@<TRIPOS>MOLECULE
ZINC00020245
   46    48     0     0     0
SMALL
USER_CHARGES

@<TRIPOS>ATOM
      1 C1         -5.6836    1.3838    0.0162 C.3       1 <0>        -0.0473
      2 N1         -5.6620   -0.0833   -0.0564 N.4       1 <0>        -0.3868
      3 C2         -6.3713   -0.5242   -1.2649 C.3       1 <0>        -0.0522
      4 C3         -4.2702   -0.5505   -0.1076 C.3       1 <0>        -0.0086
      5 C4         -4.2434   -2.0795   -0.0575 C.3       1 <0>        -0.1781
      6 C5         -2.7938   -2.5661   -0.1108 C.3       1 <0>         0.1490
      7 N2         -2.7704   -4.0309   -0.1190 N.pl3     1 <0>        -0.6108
      8 C6         -2.7295   -4.7451   -1.3212 C.ar      1 <0>         0.1758
      9 C7         -1.6865   -4.4783   -2.2022 C.ar      1 <0>        -0.1411
     10 C8         -1.5734   -5.1772   -3.3856 C.ar      1 <0>        -0.1022
     11 C9         -2.5089   -6.1508   -3.6854 C.ar      1 <0>        -0.1266
     12 C10        -3.5489   -6.4041   -2.8209 C.ar      1 <0>        -0.1101
     13 C11        -3.6933   -5.6947   -1.6266 C.ar      1 <0>        -0.0998
     14 C12        -4.9357   -6.0340   -0.8354 C.3       1 <0>        -0.0687
     15 C13        -5.1005   -5.1892    0.4158 C.3       1 <0>        -0.0773
     16 C14        -3.9592   -5.4030    1.3779 C.ar      1 <0>        -0.0996
     17 C15        -2.7824   -4.7590    1.0748 C.ar      1 <0>         0.1523
     18 C16        -1.6837   -4.8488    1.9126 C.ar      1 <0>        -0.1184
     19 C17        -1.7825   -5.6251    3.0560 C.ar      1 <0>        -0.1094
     20 C18        -2.9565   -6.2950    3.3488 C.ar      1 <0>        -0.1165
     21 C19        -4.0679   -6.1865    2.5030 C.ar      1 <0>        -0.1028
     22 H1         -6.7163    1.7305    0.0542 H         1 <0>         0.1245
     23 H2         -5.1573    1.7109    0.9129 H         1 <0>         0.1235
     24 H3         -5.1933    1.7984   -0.8646 H         1 <0>         0.1221
     25 H4         -6.3552   -1.6128   -1.3188 H         1 <0>         0.1231
     26 H5         -7.4040   -0.1775   -1.2269 H         1 <0>         0.1246
     27 H6         -5.8810   -0.1096   -2.1457 H         1 <0>         0.1227
     28 H7         -3.8061   -0.2091   -1.0329 H         1 <0>         0.1308
     29 H8         -3.7207   -0.1494    0.7440 H         1 <0>         0.1320
     30 H9         -4.7075   -2.4209    0.8678 H         1 <0>         0.0908
     31 H10        -4.7929   -2.4806   -0.9091 H         1 <0>         0.0915
     32 H11        -2.3174   -2.1901   -1.0161 H         1 <0>         0.0824
     33 H12        -2.2550   -2.1990    0.7627 H         1 <0>         0.0801
     34 H13        -0.9599   -3.7176   -1.9576 H         1 <0>         0.1215
     35 H14        -0.7646   -4.9667   -4.0697 H         1 <0>         0.1276
     36 H15        -2.4229   -6.7145   -4.6025 H         1 <0>         0.1250
     37 H16        -4.2693   -7.1687   -3.0712 H         1 <0>         0.1222
     38 H17        -5.8074   -5.8880   -1.4734 H         1 <0>         0.0793
     39 H18        -4.8898   -7.0837   -0.5452 H         1 <0>         0.0765
     40 H19        -5.1365   -4.1371    0.1334 H         1 <0>         0.0724
     41 H20        -6.0358   -5.4578    0.9068 H         1 <0>         0.0709
     42 H21        -0.7686   -4.3248    1.6795 H         1 <0>         0.1257
     43 H22        -0.9372   -5.7074    3.7231 H         1 <0>         0.1275
     44 H23        -3.0178   -6.9071    4.2365 H         1 <0>         0.1269
     45 H24        -4.9880   -6.7067    2.7249 H         1 <0>         0.1290
     46 H25        -6.1159   -0.4671    0.7589 H         1 <0>         0.4268
@<TRIPOS>BOND
     1    1    2 1
     2    1   22 1
     3    1   23 1
     4    1   24 1
     5    2    3 1
     6    2    4 1
     7    2   46 1
     8    3   25 1
     9    3   26 1
    10    3   27 1
    11    4    5 1
    12    4   28 1
    13    4   29 1
    14    5    6 1
    15    5   30 1
    16    5   31 1
    17    6    7 1
    18    6   32 1
    19    6   33 1
    20    7   17 1
    21    7    8 1
    22    8   13 ar
    23    8    9 ar
    24    9   10 ar
    25    9   34 1
    26   10   11 ar
    27   10   35 1
    28   11   12 ar
    29   11   36 1
    30   12   13 ar
    31   12   37 1
    32   13   14 1
    33   14   15 1
    34   14   38 1
    35   14   39 1
    36   15   16 1
    37   15   40 1
    38   15   41 1
    39   16   21 ar
    40   16   17 ar
    41   17   18 ar
    42   18   19 ar
    43   18   42 1
    44   19   20 ar
    45   19   43 1
    46   20   21 ar
    47   20   44 1
    48   21   45 1
@<TRIPOS>MOLECULE
ZINC00007275
   54    55     0     0     0
SMALL
USER_CHARGES

@<TRIPOS>ATOM
      1 C1         -0.0184    1.5028    0.0103 C.3       1 <0>        -0.1254
      2 C2          0.0021   -0.0041    0.0020 C.ar      1 <0>        -0.0948
      3 C3          0.0057   -0.6888   -1.1991 C.ar      1 <0>        -0.0651
      4 C4          0.0245   -2.0707   -1.2067 C.ar      1 <0>        -0.1388
      5 C5          0.0400   -2.7685   -0.0132 C.ar      1 <0>        -0.0439
      6 C6          0.0373   -2.0840    1.1875 C.ar      1 <0>        -0.6797
      7 C7          0.0229   -0.7015    1.1951 C.ar      1 <0>        -0.0214
      8 S1          0.0566   -2.9732    2.7086 S.o2      1 <0>         2.6793
      9 O1         -0.5005   -2.1103    3.6906 O.2       1 <0>        -0.9372
     10 O2         -0.4791   -4.2603    2.4334 O.2       1 <0>        -0.9424
     11 N1          1.6437   -3.1998    3.1232 N.pl3     1 <0>        -1.0026
     12 C8          2.3349   -2.2048    3.9470 C.3       1 <0>         0.0839
     13 C9          2.3567   -4.3952    2.6662 C.3       1 <0>         0.1495
     14 H1          1.6849   -5.0135    2.0707 H         1 <0>         0.1127
     15 C10         2.8442   -5.1926    3.8776 C.3       1 <0>        -0.1638
     16 C11         3.5567   -3.9785    1.8134 C.3       1 <0>        -0.1626
     17 C12         3.0626   -3.2902    0.5395 C.3       1 <0>        -0.0272
     18 N2          4.2148   -2.8901   -0.2793 N.4       1 <0>        -0.3789
     19 C13         4.9969   -1.8780    0.4407 C.3       1 <0>        -0.0126
     20 C14         6.2421   -1.5169   -0.3720 C.3       1 <0>        -0.1419
     21 C15         5.8132   -0.9601   -1.7327 C.3       1 <0>        -0.1038
     22 C16         4.9363   -1.9951   -2.4433 C.3       1 <0>        -0.1418
     23 C17         3.7395   -2.3385   -1.5538 C.3       1 <0>        -0.0087
     24 C18         7.0532   -0.6711   -2.5811 C.3       1 <0>        -0.1539
     25 H2          1.0042    1.8801    0.0026 H         1 <0>         0.0761
     26 H3         -0.5455    1.8639   -0.8728 H         1 <0>         0.0759
     27 H4         -0.5286    1.8543    0.9071 H         1 <0>         0.0768
     28 H5         -0.0064   -0.1437   -2.1314 H         1 <0>         0.1355
     29 H6          0.0266   -2.6056   -2.1449 H         1 <0>         0.1368
     30 H7          0.0540   -3.8484   -0.0191 H         1 <0>         0.1406
     31 H8          0.0246   -0.1666    2.1333 H         1 <0>         0.1430
     32 H9          2.2132   -2.4575    5.0003 H         1 <0>         0.0727
     33 H10         3.3954   -2.1980    3.6951 H         1 <0>         0.0735
     34 H11         1.9103   -1.2188    3.7584 H         1 <0>         0.0772
     35 H12         1.9893   -5.4895    4.4851 H         1 <0>         0.0751
     36 H13         3.3746   -6.0820    3.5375 H         1 <0>         0.0762
     37 H14         3.5159   -4.5744    4.4731 H         1 <0>         0.0683
     38 H15         4.1828   -3.2889    2.3796 H         1 <0>         0.0983
     39 H16         4.1375   -4.8617    1.5473 H         1 <0>         0.1056
     40 H17         2.4365   -3.9798   -0.0267 H         1 <0>         0.1332
     41 H18         2.4818   -2.4070    0.8056 H         1 <0>         0.1297
     42 H19         4.3882   -0.9858    0.5876 H         1 <0>         0.1268
     43 H20         5.2987   -2.2745    1.4101 H         1 <0>         0.1320
     44 H21         6.8206   -0.7640    0.1634 H         1 <0>         0.1124
     45 H22         6.8518   -2.4083   -0.5194 H         1 <0>         0.0892
     46 H23         5.2467   -0.0402   -1.5879 H         1 <0>         0.0873
     47 H24         4.5814   -1.5841   -3.3884 H         1 <0>         0.1124
     48 H25         5.5189   -2.8965   -2.6336 H         1 <0>         0.0893
     49 H26         3.1130   -3.0751   -2.0568 H         1 <0>         0.1305
     50 H27         3.1576   -1.4365   -1.3644 H         1 <0>         0.1265
     51 H28         7.6162   -1.5928   -2.7275 H         1 <0>         0.0624
     52 H29         6.7467   -0.2749   -3.5492 H         1 <0>         0.0673
     53 H30         7.6800    0.0604   -2.0711 H         1 <0>         0.0675
     54 H31         4.7950   -3.6960   -0.4582 H         1 <0>         0.4230
@<TRIPOS>BOND
     1    1    2 1
     2    1   25 1
     3    1   26 1
     4    1   27 1
     5    2    7 ar
     6    2    3 ar
     7    3    4 ar
     8    3   28 1
     9    4    5 ar
    10    4   29 1
    11    5    6 ar
    12    5   30 1
    13    6    7 ar
    14    6    8 1
    15    7   31 1
    16    8    9 2
    17    8   10 2
    18    8   11 1
    19   11   12 1
    20   11   13 1
    21   12   32 1
    22   12   33 1
    23   12   34 1
    24   13   14 1
    25   13   15 1
    26   13   16 1
    27   15   35 1
    28   15   36 1
    29   15   37 1
    30   16   17 1
    31   16   38 1
    32   16   39 1
    33   17   18 1
    34   17   40 1
    35   17   41 1
    36   18   23 1
    37   18   19 1
    38   18   54 1
    39   19   20 1
    40   19   42 1
    41   19   43 1
    42   20   21 1
    43   20   44 1
    44   20   45 1
    45   21   22 1
    46   21   24 1
    47   21   46 1
    48   22   23 1
    49   22   47 1
    50   22   48 1
    51   23   49 1
    52   23   50 1
    53   24   51 1
    54   24   52 1
    55   24   53 1
@<TRIPOS>MOLECULE
ZINC04393149
   55    57     0     0     0
SMALL
USER_CHARGES

@<TRIPOS>ATOM
      1 C1         -0.4267    1.0163   -0.1353 C.3       1 <0>        -0.1198
      2 C2         -0.2532   -0.4790   -0.0656 C.ar      1 <0>        -0.1025
      3 C3         -0.1950   -1.2232   -1.2293 C.ar      1 <0>        -0.0589
      4 C4         -0.0358   -2.5946   -1.1653 C.ar      1 <0>        -0.1294
      5 C5          0.0656   -3.2223    0.0624 C.ar      1 <0>        -0.0257
      6 C6          0.0084   -2.4782    1.2257 C.ar      1 <0>        -0.6770
      7 C7         -0.1465   -1.1059    1.1616 C.ar      1 <0>        -0.0270
      8 S1          0.1371   -3.2782    2.7904 S.o2      1 <0>         2.7075
      9 O1         -0.4924   -2.4245    3.7360 O.2       1 <0>        -0.9593
     10 O2         -0.2682   -4.6256    2.5922 O.2       1 <0>        -0.9405
     11 N1          1.7442   -3.3209    3.1877 N.pl3     1 <0>        -1.0072
     12 C8          2.6650   -4.4416    2.9239 C.3       1 <0>         0.1165
     13 C9          4.0733   -3.7976    2.8872 C.3       1 <0>        -0.1317
     14 C10         3.9520   -2.7199    3.9968 C.3       1 <0>        -0.1325
     15 C11         2.4905   -2.2449    3.8561 C.3       1 <0>         0.1594
     16 H1          2.4502   -1.3368    3.2547 H         1 <0>         0.0870
     17 C12         1.8960   -1.9820    5.2412 C.3       1 <0>        -0.1914
     18 C13         2.6255   -0.8065    5.8945 C.3       1 <0>        -0.0061
     19 N2          2.1437   -0.6356    7.2717 N.4       1 <0>        -0.3820
     20 C14         0.7252   -0.2591    7.2491 C.3       1 <0>        -0.0152
     21 C15         0.1972   -0.1589    8.6818 C.3       1 <0>        -0.1428
     22 C16         0.9969    0.9034    9.4415 C.3       1 <0>        -0.1045
     23 C17         2.4837    0.5393    9.3950 C.3       1 <0>        -0.1433
     24 C18         2.9269    0.4132    7.9359 C.3       1 <0>        -0.0061
     25 C19         0.5277    0.9533   10.8970 C.3       1 <0>        -0.1540
     26 H2          0.5520    1.4939   -0.1810 H         1 <0>         0.0754
     27 H3         -0.9989    1.2745   -1.0264 H         1 <0>         0.0744
     28 H4         -0.9587    1.3621    0.7510 H         1 <0>         0.0705
     29 H5         -0.2742   -0.7329   -2.1883 H         1 <0>         0.1356
     30 H6          0.0089   -3.1761   -2.0744 H         1 <0>         0.1384
     31 H7          0.1893   -4.2940    0.1124 H         1 <0>         0.1404
     32 H8         -0.1875   -0.5240    2.0706 H         1 <0>         0.1348
     33 H9          2.6054   -5.1782    3.7252 H         1 <0>         0.0786
     34 H10         2.4343   -4.9043    1.9643 H         1 <0>         0.0844
     35 H11         4.8436   -4.5281    3.1347 H         1 <0>         0.0917
     36 H12         4.2684   -3.3397    1.9175 H         1 <0>         0.0821
     37 H13         4.1263   -3.1572    4.9799 H         1 <0>         0.0812
     38 H14         4.6421   -1.8966    3.8120 H         1 <0>         0.0877
     39 H15         0.8371   -1.7431    5.1427 H         1 <0>         0.1216
     40 H16         2.0118   -2.8712    5.8609 H         1 <0>         0.0944
     41 H17         3.6972   -1.0053    5.9065 H         1 <0>         0.1327
     42 H18         2.4310    0.1030    5.3261 H         1 <0>         0.1320
     43 H19         0.6135    0.7050    6.7529 H         1 <0>         0.1292
     44 H20         0.1579   -1.0144    6.7053 H         1 <0>         0.1373
     45 H21        -0.8556    0.1225    8.6629 H         1 <0>         0.1125
     46 H22         0.3082   -1.1226    9.1788 H         1 <0>         0.0878
     47 H23         0.8453    1.8767    8.9749 H         1 <0>         0.0882
     48 H24         3.0651    1.3197    9.8859 H         1 <0>         0.1119
     49 H25         2.6421   -0.4100    9.9069 H         1 <0>         0.0880
     50 H26         3.9850    0.1542    7.8991 H         1 <0>         0.1299
     51 H27         2.7683    1.3630    7.4251 H         1 <0>         0.1283
     52 H28         0.6835   -0.0199   11.3625 H         1 <0>         0.0617
     53 H29         1.0975    1.7097   11.4367 H         1 <0>         0.0669
     54 H30        -0.5323    1.2056   10.9285 H         1 <0>         0.0674
     55 H31         2.2512   -1.5037    7.7747 H         1 <0>         0.4220
@<TRIPOS>BOND
     1    1    2 1
     2    1   26 1
     3    1   27 1
     4    1   28 1
     5    2    7 ar
     6    2    3 ar
     7    3    4 ar
     8    3   29 1
     9    4    5 ar
    10    4   30 1
    11    5    6 ar
    12    5   31 1
    13    6    7 ar
    14    6    8 1
    15    7   32 1
    16    8    9 2
    17    8   10 2
    18    8   11 1
    19   11   15 1
    20   11   12 1
    21   12   13 1
    22   12   33 1
    23   12   34 1
    24   13   14 1
    25   13   35 1
    26   13   36 1
    27   14   15 1
    28   14   37 1
    29   14   38 1
    30   15   16 1
    31   15   17 1
    32   17   18 1
    33   17   39 1
    34   17   40 1
    35   18   19 1
    36   18   41 1
    37   18   42 1
    38   19   24 1
    39   19   20 1
    40   19   55 1
    41   20   21 1
    42   20   43 1
    43   20   44 1
    44   21   22 1
    45   21   45 1
    46   21   46 1
    47   22   23 1
    48   22   25 1
    49   22   47 1
    50   23   24 1
    51   23   48 1
    52   23   49 1
    53   24   50 1
    54   24   51 1
    55   25   52 1
    56   25   53 1
    57   25   54 1
@<TRIPOS>MOLECULE
ZINC19796084
   64    68     0     0     0
SMALL
USER_CHARGES

@<TRIPOS>ATOM
      1 C1         -0.2663   -0.3620    5.4641 C.ar      1 <0>        -0.0986
      2 C2          0.6994    0.5149    5.0004 C.ar      1 <0>        -0.1026
      3 C3          1.8638    0.0332    4.4352 C.ar      1 <0>        -0.1044
      4 C4          2.0664   -1.3346    4.3318 C.ar      1 <0>         0.0788
      5 C5          1.0924   -2.2191    4.7995 C.ar      1 <0>         0.0916
      6 C6         -0.0735   -1.7260    5.3654 C.ar      1 <0>        -0.0998
      7 N1          1.5706   -3.5059    4.5639 N.am      1 <0>        -0.6391
      8 H1          1.1107   -4.3313    4.7830 H         1 <0>         0.4399
      9 C7          2.7798   -3.4086    3.9799 C.2       1 <0>         0.6857
     10 O1          3.4724   -4.3503    3.6415 O.2       1 <0>        -0.5583
     11 N2          3.1062   -2.1115    3.8266 N.am      1 <0>        -0.5378
     12 C8          4.3442   -1.6036    3.2301 C.3       1 <0>         0.1610
     13 C9          4.4622   -2.1072    1.7886 C.3       1 <0>        -0.1674
     14 C10         5.7941   -1.6393    1.1981 C.3       1 <0>         0.0018
     15 N3          6.9027   -2.1747    1.9974 N.4       1 <0>        -0.3868
     16 C11         6.8368   -1.6390    3.3624 C.3       1 <0>        -0.0033
     17 C12         5.5451   -2.1068    4.0361 C.3       1 <0>        -0.1667
     18 C13         8.1794   -1.7878    1.3822 C.3       1 <0>        -0.0099
     19 C14         9.3321   -2.4478    2.1415 C.3       1 <0>        -0.1521
     20 C15        10.6618   -2.0449    1.5008 C.3       1 <0>        -0.1087
     21 C16        11.8145   -2.7048    2.2601 C.3       1 <0>         0.0020
     22 C17        11.7312   -4.2008    2.0984 C.ar      1 <0>        -0.0960
     23 C18        11.6406   -4.7550    0.8351 C.ar      1 <0>        -0.0887
     24 C19        11.5647   -6.1268    0.6856 C.ar      1 <0>        -0.1502
     25 C20        11.5793   -6.9462    1.8016 C.ar      1 <0>         0.1040
     26 C21        11.6701   -6.3900    3.0664 C.ar      1 <0>        -0.1491
     27 C22        11.7512   -5.0182    3.2131 C.ar      1 <0>        -0.0845
     28 F1         11.5046   -8.2873    1.6567 F         1 <0>        -0.1345
     29 C23        13.1272   -2.2122    1.7076 C.ar      1 <0>        -0.0972
     30 C24        13.3682   -2.2667    0.3474 C.ar      1 <0>        -0.0865
     31 C25        14.5714   -1.8148   -0.1604 C.ar      1 <0>        -0.1502
     32 C26        15.5358   -1.3073    0.6937 C.ar      1 <0>         0.1057
     33 C27        15.2933   -1.2531    2.0559 C.ar      1 <0>        -0.1489
     34 C28        14.0872   -1.7008    2.5608 C.ar      1 <0>        -0.0812
     35 F2         16.7126   -0.8656    0.1985 F         1 <0>        -0.1344
     36 H2         -1.1724    0.0221    5.9090 H         1 <0>         0.1403
     37 H3          0.5414    1.5802    5.0807 H         1 <0>         0.1389
     38 H4          2.6148    0.7203    4.0743 H         1 <0>         0.1287
     39 H5         -0.8291   -2.4070    5.7282 H         1 <0>         0.1370
     40 H6          4.3316   -0.5137    3.2367 H         1 <0>         0.1148
     41 H7          4.4224   -3.1964    1.7792 H         1 <0>         0.1076
     42 H8          3.6403   -1.7072    1.1949 H         1 <0>         0.1178
     43 H9          5.8813   -1.9960    0.1718 H         1 <0>         0.1377
     44 H10         5.8327   -0.5501    1.2078 H         1 <0>         0.1327
     45 H11         7.6939   -1.9955    3.9338 H         1 <0>         0.1389
     46 H12         6.8532   -0.5498    3.3259 H         1 <0>         0.1330
     47 H13         5.4972   -1.7066    5.0489 H         1 <0>         0.1174
     48 H14         5.5278   -3.1961    4.0734 H         1 <0>         0.1073
     49 H15         8.1953   -2.1141    0.3423 H         1 <0>         0.1326
     50 H16         8.2896   -0.7042    1.4247 H         1 <0>         0.1320
     51 H17         9.3162   -2.1215    3.1814 H         1 <0>         0.0898
     52 H18         9.2220   -3.5314    2.0990 H         1 <0>         0.0914
     53 H19        10.6777   -2.3712    0.4609 H         1 <0>         0.0799
     54 H20        10.7720   -0.9613    1.5433 H         1 <0>         0.0841
     55 H21        11.7465   -2.4493    3.3175 H         1 <0>         0.0944
     56 H22        11.6289   -4.1157   -0.0352 H         1 <0>         0.1319
     57 H23        11.4935   -6.5595   -0.3014 H         1 <0>         0.1380
     58 H24        11.6812   -7.0281    3.9376 H         1 <0>         0.1387
     59 H25        11.8265   -4.5844    4.1993 H         1 <0>         0.1333
     60 H26        12.6160   -2.6630   -0.3186 H         1 <0>         0.1302
     61 H27        14.7596   -1.8579   -1.2230 H         1 <0>         0.1383
     62 H28        16.0449   -0.8577    2.7231 H         1 <0>         0.1395
     63 H29        13.8961   -1.6545    3.6228 H         1 <0>         0.1335
     64 H30         6.8381   -3.1812    2.0286 H         1 <0>         0.4267
@<TRIPOS>BOND
     1    1    6 ar
     2    1    2 ar
     3    1   36 1
     4    2    3 ar
     5    2   37 1
     6    3    4 ar
     7    3   38 1
     8    4   11 1
     9    4    5 ar
    10    5    6 ar
    11    5    7 1
    12    6   39 1
    13    7    8 1
    14    7    9 am
    15    9   10 2
    16    9   11 am
    17   11   12 1
    18   12   17 1
    19   12   13 1
    20   12   40 1
    21   13   14 1
    22   13   41 1
    23   13   42 1
    24   14   15 1
    25   14   43 1
    26   14   44 1
    27   15   16 1
    28   15   18 1
    29   15   64 1
    30   16   17 1
    31   16   45 1
    32   16   46 1
    33   17   47 1
    34   17   48 1
    35   18   19 1
    36   18   49 1
    37   18   50 1
    38   19   20 1
    39   19   51 1
    40   19   52 1
    41   20   21 1
    42   20   53 1
    43   20   54 1
    44   21   22 1
    45   21   29 1
    46   21   55 1
    47   22   27 ar
    48   22   23 ar
    49   23   24 ar
    50   23   56 1
    51   24   25 ar
    52   24   57 1
    53   25   26 ar
    54   25   28 1
    55   26   27 ar
    56   26   58 1
    57   27   59 1
    58   29   34 ar
    59   29   30 ar
    60   30   31 ar
    61   30   60 1
    62   31   32 ar
    63   31   61 1
    64   32   33 ar
    65   32   35 1
    66   33   34 ar
    67   33   62 1
    68   34   63 1
@<TRIPOS>MOLECULE
ZINC12068670
   58    60     0     0     0
SMALL
USER_CHARGES

@<TRIPOS>ATOM
      1 C1         -0.0184    1.5028    0.0103 C.3       1 <0>        -0.1304
      2 C2          0.0021   -0.0041    0.0020 C.ar      1 <0>        -0.0207
      3 C3          0.0057   -0.6887   -1.1989 C.ar      1 <0>        -0.1405
      4 C4          0.0245   -2.0709   -1.2065 C.ar      1 <0>        -0.0135
      5 C5          0.0400   -2.7685   -0.0132 C.ar      1 <0>        -0.6892
      6 C6          0.0373   -2.0839    1.1877 C.ar      1 <0>        -0.0211
      7 C7          0.0229   -0.7016    1.1953 C.ar      1 <0>        -0.1422
      8 S1          0.0628   -4.5303   -0.0229 S.o2      1 <0>         2.6953
      9 O1         -0.4759   -4.9503    1.2232 O.2       1 <0>        -0.9510
     10 O2         -0.4897   -4.9367   -1.2674 O.2       1 <0>        -0.9468
     11 N1          1.6509   -4.9994   -0.0343 N.pl3     1 <0>        -1.1206
     12 C8          2.5116   -4.6990    1.1125 C.3       1 <0>         0.1201
     13 C9          3.7866   -5.5405    1.0275 C.3       1 <0>        -0.1586
     14 C10         4.6855   -5.2267    2.2252 C.3       1 <0>        -0.0089
     15 N2          5.9097   -6.0347    2.1436 N.4       1 <0>        -0.3786
     16 C11         5.5645   -7.4566    2.2660 C.3       1 <0>        -0.0292
     17 C12         6.8241   -8.3060    2.0667 C.3       1 <0>         0.1238
     18 N3          7.8511   -7.8466    3.0145 N.pl3     1 <0>        -0.6644
     19 C13         8.1451   -6.4064    3.0740 C.3       1 <0>         0.1231
     20 C14         6.8231   -5.6468    3.2258 C.3       1 <0>        -0.0222
     21 C15         8.5297   -8.7542    3.8361 C.ar      1 <0>         0.1107
     22 C16         9.7110   -9.3371    3.4013 C.ar      1 <0>        -0.0783
     23 C17        10.3795  -10.2327    4.2147 C.ar      1 <0>        -0.1460
     24 C18         9.8737  -10.5497    5.4618 C.ar      1 <0>        -0.0678
     25 C19         8.6967   -9.9725    5.9018 C.ar      1 <0>        -0.2019
     26 C20         8.0235   -9.0701    5.0950 C.ar      1 <0>         0.1240
     27 O3          6.8684   -8.4978    5.5286 O.3       1 <0>        -0.3190
     28 C21         6.4092   -8.8688    6.8300 C.3       1 <0>         0.0224
     29 H1          1.0042    1.8801    0.0026 H         1 <0>         0.0819
     30 H2         -0.5455    1.8639   -0.8728 H         1 <0>         0.0768
     31 H3         -0.5286    1.8543    0.9071 H         1 <0>         0.0762
     32 H4         -0.0064   -0.1436   -2.1312 H         1 <0>         0.1363
     33 H5          0.0266   -2.6057   -2.1448 H         1 <0>         0.1416
     34 H6          0.0491   -2.6289    2.1200 H         1 <0>         0.1392
     35 H7          0.0245   -0.1667    2.1335 H         1 <0>         0.1350
     36 H8          2.0112   -5.4731   -0.8002 H         1 <0>         0.4219
     37 H9          2.7734   -3.6409    1.1030 H         1 <0>         0.0770
     38 H10         1.9820   -4.9339    2.0358 H         1 <0>         0.0918
     39 H11         3.5249   -6.5986    1.0370 H         1 <0>         0.0983
     40 H12         4.3162   -5.3055    0.1043 H         1 <0>         0.0968
     41 H13         4.9473   -4.1686    2.2156 H         1 <0>         0.1350
     42 H14         4.1560   -5.4617    3.1484 H         1 <0>         0.1342
     43 H15         5.1513   -7.6463    3.2567 H         1 <0>         0.1347
     44 H16         4.8262   -7.7180    1.5080 H         1 <0>         0.1354
     45 H17         6.5930   -9.3541    2.2566 H         1 <0>         0.1133
     46 H18         7.1882   -8.1872    1.0462 H         1 <0>         0.0769
     47 H19         8.7872   -6.1987    3.9299 H         1 <0>         0.1135
     48 H20         8.6425   -6.0959    2.1552 H         1 <0>         0.0770
     49 H21         7.0121   -4.5745    3.1750 H         1 <0>         0.1346
     50 H22         6.3718   -5.8912    4.1874 H         1 <0>         0.1338
     51 H23        10.1081   -9.0915    2.4275 H         1 <0>         0.1315
     52 H24        11.2990  -10.6862    3.8751 H         1 <0>         0.1317
     53 H25        10.3992  -11.2502    6.0938 H         1 <0>         0.1320
     54 H26         8.3043  -10.2224    6.8765 H         1 <0>         0.1333
     55 H27         6.2326   -9.9440    6.8601 H         1 <0>         0.0596
     56 H28         7.1635   -8.6037    7.5708 H         1 <0>         0.0595
     57 H29         5.4812   -8.3418    7.0517 H         1 <0>         0.1017
     58 H30         6.3577   -5.8753    1.2537 H         1 <0>         0.4208
@<TRIPOS>BOND
     1    1    2 1
     2    1   29 1
     3    1   30 1
     4    1   31 1
     5    2    7 ar
     6    2    3 ar
     7    3    4 ar
     8    3   32 1
     9    4    5 ar
    10    4   33 1
    11    5    6 ar
    12    5    8 1
    13    6    7 ar
    14    6   34 1
    15    7   35 1
    16    8    9 2
    17    8   10 2
    18    8   11 1
    19   11   12 1
    20   11   36 1
    21   12   13 1
    22   12   37 1
    23   12   38 1
    24   13   14 1
    25   13   39 1
    26   13   40 1
    27   14   15 1
    28   14   41 1
    29   14   42 1
    30   15   20 1
    31   15   16 1
    32   15   58 1
    33   16   17 1
    34   16   43 1
    35   16   44 1
    36   17   18 1
    37   17   45 1
    38   17   46 1
    39   18   19 1
    40   18   21 1
    41   19   20 1
    42   19   47 1
    43   19   48 1
    44   20   49 1
    45   20   50 1
    46   21   26 ar
    47   21   22 ar
    48   22   23 ar
    49   22   51 1
    50   23   24 ar
    51   23   52 1
    52   24   25 ar
    53   24   53 1
    54   25   26 ar
    55   25   54 1
    56   26   27 1
    57   27   28 1
    58   28   55 1
    59   28   56 1
    60   28   57 1
@<TRIPOS>MOLECULE
ZINC55669661
   54    56     0     0     0
SMALL
USER_CHARGES

@<TRIPOS>ATOM
      1 C1         -0.0184    1.5028    0.0103 C.3       1 <0>        -0.1265
      2 C2          0.0021   -0.0041    0.0020 C.ar      1 <0>        -0.0272
      3 C3          0.0057   -0.6887   -1.1989 C.ar      1 <0>        -0.1433
      4 C4          0.0245   -2.0709   -1.2065 C.ar      1 <0>        -0.0146
      5 C5          0.0400   -2.7685   -0.0132 C.ar      1 <0>        -0.6846
      6 C6          0.0373   -2.0839    1.1877 C.ar      1 <0>        -0.0163
      7 C7          0.0229   -0.7016    1.1953 C.ar      1 <0>        -0.1422
      8 S1          0.0628   -4.5303   -0.0229 S.o2      1 <0>         2.6975
      9 O1         -0.4759   -4.9503    1.2232 O.2       1 <0>        -0.9527
     10 O2         -0.4897   -4.9367   -1.2674 O.2       1 <0>        -0.9577
     11 N1          1.6509   -4.9994   -0.0343 N.pl3     1 <0>        -1.1172
     12 C8          2.5116   -4.6990    1.1125 C.3       1 <0>         0.1178
     13 C9          3.7866   -5.5405    1.0275 C.3       1 <0>         0.0503
     14 N2          4.6497   -5.2392    2.1774 N.3       1 <0>        -0.5315
     15 C10         5.1331   -3.8530    2.1239 C.3       1 <0>         0.0355
     16 C11         5.8757   -3.5241    3.4233 C.3       1 <0>         0.1536
     17 N3          6.9191   -4.5388    3.6349 N.pl3     1 <0>        -0.6687
     18 C12         6.5349   -5.9569    3.5660 C.3       1 <0>         0.1535
     19 C13         5.7663   -6.1901    2.2609 C.3       1 <0>         0.0429
     20 C14         8.2425   -4.1650    3.8954 C.ar      1 <0>         0.1387
     21 C15         8.6684   -3.9792    5.2025 C.ar      1 <0>        -0.0864
     22 C16         9.9759   -3.6105    5.4572 C.ar      1 <0>        -0.1511
     23 C17        10.8618   -3.4260    4.4119 C.ar      1 <0>        -0.0839
     24 C18        10.4444   -3.6094    3.1063 C.ar      1 <0>        -0.2069
     25 C19         9.1373   -3.9840    2.8429 C.ar      1 <0>         0.1175
     26 O3          8.7268   -4.1698    1.5596 O.3       1 <0>        -0.3058
     27 C20         9.6985   -3.9666    0.5318 C.3       1 <0>         0.0254
     28 H1          1.0042    1.8801    0.0026 H         1 <0>         0.0800
     29 H2         -0.5455    1.8639   -0.8728 H         1 <0>         0.0735
     30 H3         -0.5286    1.8543    0.9071 H         1 <0>         0.0739
     31 H4         -0.0064   -0.1436   -2.1312 H         1 <0>         0.1330
     32 H5          0.0266   -2.6057   -2.1448 H         1 <0>         0.1401
     33 H6          0.0491   -2.6289    2.1200 H         1 <0>         0.1413
     34 H7          0.0245   -0.1667    2.1335 H         1 <0>         0.1338
     35 H8          2.0112   -5.4731   -0.8002 H         1 <0>         0.4187
     36 H9          2.7734   -3.6409    1.1030 H         1 <0>         0.0651
     37 H10         1.9820   -4.9339    2.0358 H         1 <0>         0.0919
     38 H11         3.5249   -6.5986    1.0370 H         1 <0>         0.0851
     39 H12         4.3162   -5.3055    0.1043 H         1 <0>         0.0411
     40 H13         5.8108   -3.7365    1.2782 H         1 <0>         0.0416
     41 H14         4.2862   -3.1767    2.0078 H         1 <0>         0.0793
     42 H15         6.3343   -2.5385    3.3435 H         1 <0>         0.0687
     43 H16         5.1759   -3.5388    4.2589 H         1 <0>         0.0583
     44 H17         7.4293   -6.5797    3.5805 H         1 <0>         0.0696
     45 H18         5.8984   -6.2055    4.4152 H         1 <0>         0.0586
     46 H19         5.3787   -7.2087    2.2442 H         1 <0>         0.0794
     47 H20         6.4352   -6.0410    1.4133 H         1 <0>         0.0412
     48 H21         7.9783   -4.1223    6.0209 H         1 <0>         0.1293
     49 H22        10.3063   -3.4658    6.4752 H         1 <0>         0.1248
     50 H23        11.8824   -3.1376    4.6155 H         1 <0>         0.1243
     51 H24        11.1390   -3.4645    2.2921 H         1 <0>         0.1266
     52 H25         9.2414   -4.1469   -0.4412 H         1 <0>         0.0969
     53 H26        10.0655   -2.9412    0.5764 H         1 <0>         0.0538
     54 H27        10.5298   -4.6566    0.6762 H         1 <0>         0.0541
@<TRIPOS>BOND
     1    1    2 1
     2    1   28 1
     3    1   29 1
     4    1   30 1
     5    2    7 ar
     6    2    3 ar
     7    3    4 ar
     8    3   31 1
     9    4    5 ar
    10    4   32 1
    11    5    6 ar
    12    5    8 1
    13    6    7 ar
    14    6   33 1
    15    7   34 1
    16    8    9 2
    17    8   10 2
    18    8   11 1
    19   11   12 1
    20   11   35 1
    21   12   13 1
    22   12   36 1
    23   12   37 1
    24   13   14 1
    25   13   38 1
    26   13   39 1
    27   14   19 1
    28   14   15 1
    29   15   16 1
    30   15   40 1
    31   15   41 1
    32   16   17 1
    33   16   42 1
    34   16   43 1
    35   17   18 1
    36   17   20 1
    37   18   19 1
    38   18   44 1
    39   18   45 1
    40   19   46 1
    41   19   47 1
    42   20   25 ar
    43   20   21 ar
    44   21   22 ar
    45   21   48 1
    46   22   23 ar
    47   22   49 1
    48   23   24 ar
    49   23   50 1
    50   24   25 ar
    51   24   51 1
    52   25   26 1
    53   26   27 1
    54   27   52 1
    55   27   53 1
    56   27   54 1
@<TRIPOS>MOLECULE
ZINC02539813
   29    30     0     0     0
SMALL
USER_CHARGES

@<TRIPOS>ATOM
      1 C1         -0.0169    1.3975    0.0097 C.ar      1 <0>        -0.0643
      2 C2          1.1463    2.1089    0.0024 C.ar      1 <0>        -0.1252
      3 C3          2.3728    1.4480   -0.0128 C.ar      1 <0>         0.1197
      4 C4          2.4053    0.0394   -0.0207 C.ar      1 <0>        -0.1125
      5 C5          1.2161   -0.6846   -0.0130 C.ar      1 <0>        -0.0121
      6 C6          0.0021   -0.0041    0.0020 C.ar      1 <0>        -0.1565
      7 C7         -1.2668   -0.7591    0.0106 C.2       1 <0>         0.5664
      8 O1         -1.2509   -1.9747    0.0039 O.2       1 <0>        -0.5461
      9 N1         -2.4427   -0.1006    0.0258 N.am      1 <0>        -0.8483
     10 C8          3.8230   -0.3326   -0.0371 C.2       1 <0>        -0.1957
     11 C9          4.5266    0.8101   -0.0381 C.2       1 <0>         0.0855
     12 N2          3.6763    1.8825   -0.0237 N.pl3     1 <0>        -0.5837
     13 H1          3.9530    2.8122   -0.0215 H         1 <0>         0.4262
     14 C10         4.3836   -1.7314   -0.0499 C.3       1 <0>        -0.0648
     15 C11         4.4419   -2.2443   -1.4902 C.3       1 <0>        -0.0085
     16 N3          4.9884   -3.6078   -1.5026 N.4       1 <0>        -0.6386
     17 H2         -0.9624    1.9192    0.0261 H         1 <0>         0.1348
     18 H3          1.1168    3.1884    0.0082 H         1 <0>         0.1333
     19 H4          1.2355   -1.7645   -0.0193 H         1 <0>         0.1349
     20 H5         -2.4554    0.8693    0.0312 H         1 <0>         0.4024
     21 H6         -3.2762   -0.5966    0.0315 H         1 <0>         0.4094
     22 H7          5.6046    0.8742   -0.0483 H         1 <0>         0.1771
     23 H8          5.3877   -1.7243    0.3742 H         1 <0>         0.0945
     24 H9          3.7434   -2.3848    0.5429 H         1 <0>         0.0952
     25 H10         3.4379   -2.2514   -1.9143 H         1 <0>         0.1343
     26 H11         5.0821   -1.5909   -2.0829 H         1 <0>         0.1335
     27 H12         5.9178   -3.6013   -1.1100 H         1 <0>         0.4344
     28 H13         4.3958   -4.2127   -0.9539 H         1 <0>         0.4362
     29 H14         5.0268   -3.9461   -2.4524 H         1 <0>         0.4385
@<TRIPOS>BOND
     1    1    6 ar
     2    1    2 ar
     3    1   17 1
     4    2    3 ar
     5    2   18 1
     6    3   12 1
     7    3    4 ar
     8    4    5 ar
     9    4   10 1
    10    5    6 ar
    11    5   19 1
    12    6    7 1
    13    7    8 2
    14    7    9 am
    15    9   20 1
    16    9   21 1
    17   10   11 2
    18   10   14 1
    19   11   12 1
    20   11   22 1
    21   12   13 1
    22   14   15 1
    23   14   23 1
    24   14   24 1
    25   15   16 1
    26   15   25 1
    27   15   26 1
    28   16   27 1
    29   16   28 1
    30   16   29 1
@<TRIPOS>MOLECULE
ZINC13586565
   70    73     0     0     0
SMALL
USER_CHARGES

@<TRIPOS>ATOM
      1 C1         -0.0225    1.8097    0.0120 C.3       1 <0>        -0.1496
      2 S1          0.0021   -0.0041    0.0020 S.3       1 <0>        -0.1057
      3 C2          0.8484   -0.4107   -1.4889 C.ar      1 <0>        -0.0847
      4 C3          1.3146    0.5965   -2.3212 C.ar      1 <0>        -0.1278
      5 C4          1.9788    0.2750   -3.4903 C.ar      1 <0>        -0.0882
      6 C5          2.1802   -1.0491   -3.8341 C.ar      1 <0>        -0.1166
      7 C6          1.7186   -2.0596   -3.0107 C.ar      1 <0>        -0.1015
      8 C7          1.0569   -1.7467   -1.8332 C.ar      1 <0>         0.1608
      9 N1          0.5941   -2.7681   -0.9951 N.pl3     1 <0>        -0.6709
     10 C8         -0.7522   -3.3357   -1.1667 C.3       1 <0>         0.1205
     11 C9         -0.6328   -4.8624   -1.2181 C.3       1 <0>        -0.0215
     12 N2          0.0775   -5.3374   -0.0240 N.4       1 <0>        -0.3808
     13 C10         1.4564   -4.8329   -0.0285 C.3       1 <0>        -0.0263
     14 C11         1.4425   -3.3086    0.0783 C.3       1 <0>         0.1205
     15 C12         0.0954   -6.8063   -0.0189 C.3       1 <0>        -0.0097
     16 C13         0.7241   -7.3042    1.2840 C.3       1 <0>        -0.1489
     17 C14         0.7428   -8.8340    1.2893 C.3       1 <0>        -0.1172
     18 C15         1.3715   -9.3319    2.5922 C.3       1 <0>        -0.1053
     19 C16         1.3902  -10.8618    2.5975 C.3       1 <0>        -0.1437
     20 C17         2.0094  -11.3522    3.8809 C.2       1 <0>         0.5109
     21 O1          2.3976  -10.5565    4.7097 O.2       1 <0>        -0.5350
     22 N3          2.1319  -12.6751    4.1076 N.am      1 <0>        -0.7226
     23 C18         2.7338  -13.1519    5.3552 C.3       1 <0>         0.1874
     24 H1          3.5255  -12.4662    5.6572 H         1 <0>         0.0991
     25 C19         3.3292  -14.5401    5.1288 C.3       1 <0>        -0.1261
     26 C20         3.7568  -15.1102    6.4864 C.3       1 <0>        -0.1171
     27 C21         2.4991  -15.4288    7.2924 C.3       1 <0>        -0.0858
     28 C22         1.5741  -14.2402    7.3221 C.ar      1 <0>        -0.0663
     29 C23         1.6793  -13.1974    6.4298 C.ar      1 <0>        -0.0992
     30 C24         0.7892  -12.1343    6.5078 C.ar      1 <0>        -0.1088
     31 C25        -0.1965  -12.1144    7.4731 C.ar      1 <0>        -0.1295
     32 C26        -0.2994  -13.1605    8.3706 C.ar      1 <0>        -0.1123
     33 C27         0.5828  -14.2166    8.2943 C.ar      1 <0>        -0.1245
     34 H2          1.0001    2.1870    0.0043 H         1 <0>         0.0867
     35 H3         -0.5497    2.1708   -0.8711 H         1 <0>         0.0866
     36 H4         -0.5327    2.1613    0.9088 H         1 <0>         0.1131
     37 H5          1.1584    1.6318   -2.0561 H         1 <0>         0.1286
     38 H6          2.3412    1.0603   -4.1371 H         1 <0>         0.1322
     39 H7          2.6994   -1.2948   -4.7487 H         1 <0>         0.1313
     40 H8          1.8774   -3.0927   -3.2827 H         1 <0>         0.1250
     41 H9         -1.3819   -3.0457   -0.3256 H         1 <0>         0.0807
     42 H10        -1.1877   -2.9708   -2.0969 H         1 <0>         0.1149
     43 H11        -1.6288   -5.3041   -1.2483 H         1 <0>         0.1360
     44 H12        -0.0787   -5.1538   -2.1105 H         1 <0>         0.1292
     45 H13         1.9998   -5.2527    0.8179 H         1 <0>         0.1381
     46 H14         1.9473   -5.1251   -0.9568 H         1 <0>         0.1294
     47 H15         2.4574   -2.9257   -0.0292 H         1 <0>         0.1148
     48 H16         1.0382   -3.0158    1.0473 H         1 <0>         0.0804
     49 H17        -0.9247   -7.1824   -0.0971 H         1 <0>         0.1305
     50 H18         0.6809   -7.1654   -0.8653 H         1 <0>         0.1280
     51 H19         1.7442   -6.9281    1.3622 H         1 <0>         0.0879
     52 H20         0.1386   -6.9451    2.1304 H         1 <0>         0.0884
     53 H21        -0.2773   -9.2101    1.2111 H         1 <0>         0.0750
     54 H22         1.3283   -9.1932    0.4429 H         1 <0>         0.0745
     55 H23         2.3916   -8.9559    2.6704 H         1 <0>         0.0750
     56 H24         0.7860   -8.9728    3.4386 H         1 <0>         0.0748
     57 H25         0.3701  -11.2379    2.5193 H         1 <0>         0.0959
     58 H26         1.9756  -11.2209    1.7511 H         1 <0>         0.0962
     59 H27         1.8214  -13.3116    3.4446 H         1 <0>         0.4028
     60 H28         2.5812  -15.1910    4.6764 H         1 <0>         0.0733
     61 H29         4.1964  -14.4650    4.4726 H         1 <0>         0.0760
     62 H30         4.3369  -16.0207    6.3360 H         1 <0>         0.0777
     63 H31         4.3586  -14.3748    7.0204 H         1 <0>         0.0703
     64 H32         1.9839  -16.2738    6.8357 H         1 <0>         0.0792
     65 H33         2.7821  -15.6896    8.3122 H         1 <0>         0.0794
     66 H34         0.8694  -11.3163    5.8072 H         1 <0>         0.1273
     67 H35        -0.8850  -11.2841    7.5274 H         1 <0>         0.1189
     68 H36        -1.0675  -13.1495    9.1298 H         1 <0>         0.1228
     69 H37         0.5013  -15.0335    8.9960 H         1 <0>         0.1230
     70 H38        -0.3977   -5.0065    0.8023 H         1 <0>         0.4224
@<TRIPOS>BOND
     1    1    2 1
     2    1   34 1
     3    1   35 1
     4    1   36 1
     5    2    3 1
     6    3    8 ar
     7    3    4 ar
     8    4    5 ar
     9    4   37 1
    10    5    6 ar
    11    5   38 1
    12    6    7 ar
    13    6   39 1
    14    7    8 ar
    15    7   40 1
    16    8    9 1
    17    9   14 1
    18    9   10 1
    19   10   11 1
    20   10   41 1
    21   10   42 1
    22   11   12 1
    23   11   43 1
    24   11   44 1
    25   12   13 1
    26   12   15 1
    27   12   70 1
    28   13   14 1
    29   13   45 1
    30   13   46 1
    31   14   47 1
    32   14   48 1
    33   15   16 1
    34   15   49 1
    35   15   50 1
    36   16   17 1
    37   16   51 1
    38   16   52 1
    39   17   18 1
    40   17   53 1
    41   17   54 1
    42   18   19 1
    43   18   55 1
    44   18   56 1
    45   19   20 1
    46   19   57 1
    47   19   58 1
    48   20   21 2
    49   20   22 am
    50   22   23 1
    51   22   59 1
    52   23   24 1
    53   23   29 1
    54   23   25 1
    55   25   26 1
    56   25   60 1
    57   25   61 1
    58   26   27 1
    59   26   62 1
    60   26   63 1
    61   27   28 1
    62   27   64 1
    63   27   65 1
    64   28   33 ar
    65   28   29 ar
    66   29   30 ar
    67   30   31 ar
    68   30   66 1
    69   31   32 ar
    70   31   67 1
    71   32   33 ar
    72   32   68 1
    73   33   69 1
@<TRIPOS>MOLECULE
ZINC13586565
   69    72     0     0     0
SMALL
USER_CHARGES

@<TRIPOS>ATOM
      1 C1         -0.0225    1.8097    0.0120 C.3       1 <0>        -0.1559
      2 S1          0.0021   -0.0041    0.0020 S.3       1 <0>        -0.0896
      3 C2          0.8484   -0.4107   -1.4889 C.ar      1 <0>        -0.0939
      4 C3          1.3146    0.5965   -2.3212 C.ar      1 <0>        -0.1314
      5 C4          1.9788    0.2750   -3.4903 C.ar      1 <0>        -0.1045
      6 C5          2.1802   -1.0491   -3.8341 C.ar      1 <0>        -0.1196
      7 C6          1.7186   -2.0596   -3.0107 C.ar      1 <0>        -0.1081
      8 C7          1.0569   -1.7467   -1.8332 C.ar      1 <0>         0.1897
      9 N1          0.5941   -2.7681   -0.9951 N.pl3     1 <0>        -0.6752
     10 C8         -0.7523   -3.3346   -1.1678 C.3       1 <0>         0.1527
     11 C9         -0.6329   -4.8607   -1.2387 C.3       1 <0>         0.0416
     12 N2          0.0991   -5.3466   -0.0614 N.3       1 <0>        -0.5344
     13 C10         1.4743   -4.8306   -0.0385 C.3       1 <0>         0.0386
     14 C11         1.4435   -3.3075    0.0777 C.3       1 <0>         0.1523
     15 C12         0.0865   -6.8144   -0.0026 C.3       1 <0>         0.0563
     16 C13         0.6338   -7.2752    1.3499 C.3       1 <0>        -0.1157
     17 C14         0.6207   -8.8039    1.4112 C.3       1 <0>        -0.1182
     18 C15         1.1679   -9.2648    2.7636 C.3       1 <0>        -0.1029
     19 C16         1.1548  -10.7935    2.8249 C.3       1 <0>        -0.1421
     20 C17         1.6938  -11.2475    4.1570 C.2       1 <0>         0.5117
     21 O1          2.0530  -10.4289    4.9766 O.2       1 <0>        -0.5327
     22 N3          1.7766  -12.5631    4.4375 N.am      1 <0>        -0.7266
     23 C18         2.3006  -13.0044    5.7325 C.3       1 <0>         0.1866
     24 H1          3.0887  -12.3228    6.0524 H         1 <0>         0.0984
     25 C19         2.8787  -14.4108    5.5890 C.3       1 <0>        -0.1255
     26 C20         3.2206  -14.9381    6.9876 C.3       1 <0>        -0.1167
     27 C21         1.9150  -15.2032    7.7346 C.3       1 <0>        -0.0833
     28 C22         1.0145  -13.9974    7.6710 C.ar      1 <0>        -0.0698
     29 C23         1.1890  -12.9905    6.7489 C.ar      1 <0>        -0.0967
     30 C24         0.3180  -11.9089    6.7398 C.ar      1 <0>        -0.1064
     31 C25        -0.7176  -11.8349    7.6485 C.ar      1 <0>        -0.1279
     32 C26        -0.8903  -12.8450    8.5761 C.ar      1 <0>        -0.1144
     33 C27        -0.0271  -13.9194    8.5862 C.ar      1 <0>        -0.1270
     34 H2          1.0001    2.1870    0.0043 H         1 <0>         0.0813
     35 H3         -0.5497    2.1708   -0.8711 H         1 <0>         0.0813
     36 H4         -0.5327    2.1613    0.9088 H         1 <0>         0.1080
     37 H5          1.1584    1.6318   -2.0561 H         1 <0>         0.1225
     38 H6          2.3412    1.0603   -4.1371 H         1 <0>         0.1248
     39 H7          2.6994   -1.2948   -4.7487 H         1 <0>         0.1246
     40 H8          1.8774   -3.0927   -3.2827 H         1 <0>         0.1235
     41 H9         -1.3785   -3.0553   -0.3205 H         1 <0>         0.0614
     42 H10        -1.1920   -2.9584   -2.0915 H         1 <0>         0.0696
     43 H11        -1.6289   -5.3030   -1.2559 H         1 <0>         0.0795
     44 H12        -0.0940   -5.1417   -2.1436 H         1 <0>         0.0333
     45 H13         2.0064   -5.2511    0.8148 H         1 <0>         0.0837
     46 H14         1.9838   -5.1120   -0.9601 H         1 <0>         0.0325
     47 H15         2.4548   -2.9133   -0.0230 H         1 <0>         0.0693
     48 H16         1.0324   -3.0255    1.0470 H         1 <0>         0.0610
     49 H17        -0.9354   -7.1741   -0.1227 H         1 <0>         0.0735
     50 H18         0.7093   -7.2154   -0.8022 H         1 <0>         0.0306
     51 H19         1.6557   -6.9155    1.4700 H         1 <0>         0.0629
     52 H20         0.0110   -6.8742    2.1495 H         1 <0>         0.0727
     53 H21        -0.4012   -9.1637    1.2910 H         1 <0>         0.0633
     54 H22         1.2434   -9.2050    0.6115 H         1 <0>         0.0605
     55 H23         2.1898   -8.9051    2.8837 H         1 <0>         0.0699
     56 H24         0.5452   -8.8638    3.5633 H         1 <0>         0.0709
     57 H25         0.1329  -11.1533    2.7048 H         1 <0>         0.0938
     58 H26         1.7776  -11.1946    2.0252 H         1 <0>         0.0936
     59 H27         1.4893  -13.2178    3.7820 H         1 <0>         0.4018
     60 H28         2.1428  -15.0641    5.1202 H         1 <0>         0.0725
     61 H29         3.7813  -14.3763    4.9789 H         1 <0>         0.0756
     62 H30         3.7892  -15.8642    6.9019 H         1 <0>         0.0755
     63 H31         3.8078  -14.1948    7.5268 H         1 <0>         0.0699
     64 H32         1.4080  -16.0549    7.2812 H         1 <0>         0.0774
     65 H33         2.1373  -15.4313    8.7771 H         1 <0>         0.0770
     66 H34         0.4526  -11.1190    6.0157 H         1 <0>         0.1306
     67 H35        -1.3909  -10.9905    7.6352 H         1 <0>         0.1201
     68 H36        -1.6978  -12.7916    9.2913 H         1 <0>         0.1213
     69 H37        -0.1631  -14.7081    9.3114 H         1 <0>         0.1207
@<TRIPOS>BOND
     1    1    2 1
     2    1   34 1
     3    1   35 1
     4    1   36 1
     5    2    3 1
     6    3    8 ar
     7    3    4 ar
     8    4    5 ar
     9    4   37 1
    10    5    6 ar
    11    5   38 1
    12    6    7 ar
    13    6   39 1
    14    7    8 ar
    15    7   40 1
    16    8    9 1
    17    9   14 1
    18    9   10 1
    19   10   11 1
    20   10   41 1
    21   10   42 1
    22   11   12 1
    23   11   43 1
    24   11   44 1
    25   12   13 1
    26   12   15 1
    27   13   14 1
    28   13   45 1
    29   13   46 1
    30   14   47 1
    31   14   48 1
    32   15   16 1
    33   15   49 1
    34   15   50 1
    35   16   17 1
    36   16   51 1
    37   16   52 1
    38   17   18 1
    39   17   53 1
    40   17   54 1
    41   18   19 1
    42   18   55 1
    43   18   56 1
    44   19   20 1
    45   19   57 1
    46   19   58 1
    47   20   21 2
    48   20   22 am
    49   22   23 1
    50   22   59 1
    51   23   24 1
    52   23   29 1
    53   23   25 1
    54   25   26 1
    55   25   60 1
    56   25   61 1
    57   26   27 1
    58   26   62 1
    59   26   63 1
    60   27   28 1
    61   27   64 1
    62   27   65 1
    63   28   33 ar
    64   28   29 ar
    65   29   30 ar
    66   30   31 ar
    67   30   66 1
    68   31   32 ar
    69   31   67 1
    70   32   33 ar
    71   32   68 1
    72   33   69 1
@<TRIPOS>MOLECULE
ZINC13586566
   70    73     0     0     0
SMALL
USER_CHARGES

@<TRIPOS>ATOM
      1 C1         -0.0225    1.8097    0.0120 C.3       1 <0>        -0.1496
      2 S1          0.0021   -0.0041    0.0020 S.3       1 <0>        -0.1057
      3 C2          0.8484   -0.4107   -1.4889 C.ar      1 <0>        -0.0847
      4 C3          1.3146    0.5965   -2.3212 C.ar      1 <0>        -0.1278
      5 C4          1.9788    0.2750   -3.4903 C.ar      1 <0>        -0.0882
      6 C5          2.1802   -1.0491   -3.8341 C.ar      1 <0>        -0.1166
      7 C6          1.7186   -2.0596   -3.0107 C.ar      1 <0>        -0.1015
      8 C7          1.0569   -1.7467   -1.8332 C.ar      1 <0>         0.1608
      9 N1          0.5941   -2.7681   -0.9951 N.pl3     1 <0>        -0.6709
     10 C8         -0.7522   -3.3357   -1.1667 C.3       1 <0>         0.1205
     11 C9         -0.6328   -4.8624   -1.2181 C.3       1 <0>        -0.0215
     12 N2          0.0775   -5.3374   -0.0240 N.4       1 <0>        -0.3808
     13 C10         1.4564   -4.8329   -0.0285 C.3       1 <0>        -0.0263
     14 C11         1.4425   -3.3086    0.0783 C.3       1 <0>         0.1205
     15 C12         0.0954   -6.8063   -0.0189 C.3       1 <0>        -0.0097
     16 C13         0.7241   -7.3042    1.2840 C.3       1 <0>        -0.1489
     17 C14         0.7428   -8.8340    1.2893 C.3       1 <0>        -0.1172
     18 C15         1.3715   -9.3319    2.5922 C.3       1 <0>        -0.1053
     19 C16         1.3902  -10.8618    2.5975 C.3       1 <0>        -0.1437
     20 C17         2.0094  -11.3522    3.8809 C.2       1 <0>         0.5109
     21 O1          2.3976  -10.5565    4.7097 O.2       1 <0>        -0.5350
     22 N3          2.1319  -12.6751    4.1076 N.am      1 <0>        -0.7226
     23 C18         2.7338  -13.1519    5.3552 C.3       1 <0>         0.1874
     24 H1          2.4606  -12.4774    6.1667 H         1 <0>         0.0991
     25 C19         2.2080  -14.5519    5.6653 C.3       1 <0>        -0.1261
     26 C20         3.0067  -15.1181    6.8453 C.3       1 <0>        -0.1171
     27 C21         4.4286  -15.4084    6.3691 C.3       1 <0>        -0.0858
     28 C22         5.0115  -14.2039    5.6774 C.ar      1 <0>        -0.0662
     29 C23         4.2329  -13.1704    5.2080 C.ar      1 <0>        -0.0990
     30 C24         4.8336  -12.0916    4.5726 C.ar      1 <0>        -0.1088
     31 C25         6.2031  -12.0467    4.4110 C.ar      1 <0>        -0.1296
     32 C26         6.9845  -13.0835    4.8854 C.ar      1 <0>        -0.1124
     33 C27         6.3899  -14.1552    5.5158 C.ar      1 <0>        -0.1245
     34 H2          1.0001    2.1870    0.0043 H         1 <0>         0.0867
     35 H3         -0.5497    2.1708   -0.8711 H         1 <0>         0.0866
     36 H4         -0.5327    2.1613    0.9088 H         1 <0>         0.1131
     37 H5          1.1584    1.6318   -2.0561 H         1 <0>         0.1286
     38 H6          2.3412    1.0603   -4.1371 H         1 <0>         0.1322
     39 H7          2.6994   -1.2948   -4.7487 H         1 <0>         0.1313
     40 H8          1.8774   -3.0927   -3.2827 H         1 <0>         0.1249
     41 H9         -1.3819   -3.0457   -0.3256 H         1 <0>         0.0808
     42 H10        -1.1877   -2.9708   -2.0969 H         1 <0>         0.1149
     43 H11        -1.6288   -5.3041   -1.2483 H         1 <0>         0.1360
     44 H12        -0.0787   -5.1538   -2.1105 H         1 <0>         0.1292
     45 H13         1.9998   -5.2527    0.8179 H         1 <0>         0.1381
     46 H14         1.9473   -5.1251   -0.9568 H         1 <0>         0.1294
     47 H15         2.4574   -2.9257   -0.0292 H         1 <0>         0.1148
     48 H16         1.0382   -3.0158    1.0473 H         1 <0>         0.0804
     49 H17        -0.9247   -7.1824   -0.0971 H         1 <0>         0.1306
     50 H18         0.6809   -7.1654   -0.8653 H         1 <0>         0.1279
     51 H19         1.7442   -6.9281    1.3622 H         1 <0>         0.0878
     52 H20         0.1386   -6.9451    2.1304 H         1 <0>         0.0885
     53 H21        -0.2773   -9.2101    1.2111 H         1 <0>         0.0751
     54 H22         1.3283   -9.1932    0.4429 H         1 <0>         0.0743
     55 H23         2.3916   -8.9559    2.6704 H         1 <0>         0.0743
     56 H24         0.7860   -8.9728    3.4386 H         1 <0>         0.0755
     57 H25         0.3701  -11.2379    2.5193 H         1 <0>         0.0964
     58 H26         1.9756  -11.2209    1.7511 H         1 <0>         0.0957
     59 H27         1.8214  -13.3116    3.4446 H         1 <0>         0.4028
     60 H28         1.1519  -14.4972    5.9294 H         1 <0>         0.0761
     61 H29         2.3362  -15.1936    4.7936 H         1 <0>         0.0733
     62 H30         3.0323  -14.3889    7.6550 H         1 <0>         0.0704
     63 H31         2.5413  -16.0397    7.1951 H         1 <0>         0.0778
     64 H32         5.0496  -15.6656    7.2272 H         1 <0>         0.0794
     65 H33         4.4107  -16.2482    5.6745 H         1 <0>         0.0792
     66 H34         4.2237  -11.2811    4.2016 H         1 <0>         0.1273
     67 H35         6.6630  -11.2043    3.9159 H         1 <0>         0.1187
     68 H36         8.0572  -13.0534    4.7632 H         1 <0>         0.1227
     69 H37         7.0015  -14.9648    5.8858 H         1 <0>         0.1230
     70 H38        -0.3977   -5.0065    0.8023 H         1 <0>         0.4224
@<TRIPOS>BOND
     1    1    2 1
     2    1   34 1
     3    1   35 1
     4    1   36 1
     5    2    3 1
     6    3    8 ar
     7    3    4 ar
     8    4    5 ar
     9    4   37 1
    10    5    6 ar
    11    5   38 1
    12    6    7 ar
    13    6   39 1
    14    7    8 ar
    15    7   40 1
    16    8    9 1
    17    9   14 1
    18    9   10 1
    19   10   11 1
    20   10   41 1
    21   10   42 1
    22   11   12 1
    23   11   43 1
    24   11   44 1
    25   12   13 1
    26   12   15 1
    27   12   70 1
    28   13   14 1
    29   13   45 1
    30   13   46 1
    31   14   47 1
    32   14   48 1
    33   15   16 1
    34   15   49 1
    35   15   50 1
    36   16   17 1
    37   16   51 1
    38   16   52 1
    39   17   18 1
    40   17   53 1
    41   17   54 1
    42   18   19 1
    43   18   55 1
    44   18   56 1
    45   19   20 1
    46   19   57 1
    47   19   58 1
    48   20   21 2
    49   20   22 am
    50   22   23 1
    51   22   59 1
    52   23   24 1
    53   23   29 1
    54   23   25 1
    55   25   26 1
    56   25   60 1
    57   25   61 1
    58   26   27 1
    59   26   62 1
    60   26   63 1
    61   27   28 1
    62   27   64 1
    63   27   65 1
    64   28   33 ar
    65   28   29 ar
    66   29   30 ar
    67   30   31 ar
    68   30   66 1
    69   31   32 ar
    70   31   67 1
    71   32   33 ar
    72   32   68 1
    73   33   69 1
@<TRIPOS>MOLECULE
ZINC13586566
   69    72     0     0     0
SMALL
USER_CHARGES

@<TRIPOS>ATOM
      1 C1         -0.0225    1.8097    0.0120 C.3       1 <0>        -0.1559
      2 S1          0.0021   -0.0041    0.0020 S.3       1 <0>        -0.0896
      3 C2          0.8484   -0.4107   -1.4889 C.ar      1 <0>        -0.0939
      4 C3          1.3146    0.5965   -2.3212 C.ar      1 <0>        -0.1313
      5 C4          1.9788    0.2750   -3.4903 C.ar      1 <0>        -0.1045
      6 C5          2.1802   -1.0491   -3.8341 C.ar      1 <0>        -0.1196
      7 C6          1.7186   -2.0596   -3.0107 C.ar      1 <0>        -0.1081
      8 C7          1.0569   -1.7467   -1.8332 C.ar      1 <0>         0.1897
      9 N1          0.5941   -2.7681   -0.9951 N.pl3     1 <0>        -0.6752
     10 C8         -0.7523   -3.3346   -1.1678 C.3       1 <0>         0.1527
     11 C9         -0.6329   -4.8607   -1.2387 C.3       1 <0>         0.0416
     12 N2          0.0991   -5.3466   -0.0614 N.3       1 <0>        -0.5344
     13 C10         1.4743   -4.8306   -0.0385 C.3       1 <0>         0.0386
     14 C11         1.4435   -3.3075    0.0777 C.3       1 <0>         0.1523
     15 C12         0.0865   -6.8144   -0.0026 C.3       1 <0>         0.0563
     16 C13         0.6338   -7.2752    1.3499 C.3       1 <0>        -0.1157
     17 C14         0.6207   -8.8039    1.4112 C.3       1 <0>        -0.1182
     18 C15         1.1679   -9.2648    2.7636 C.3       1 <0>        -0.1029
     19 C16         1.1548  -10.7935    2.8249 C.3       1 <0>        -0.1421
     20 C17         1.6938  -11.2475    4.1570 C.2       1 <0>         0.5117
     21 O1          2.0530  -10.4289    4.9766 O.2       1 <0>        -0.5327
     22 N3          1.7766  -12.5631    4.4375 N.am      1 <0>        -0.7266
     23 C18         2.3006  -13.0044    5.7325 C.3       1 <0>         0.1864
     24 H1          1.9980  -12.2954    6.5031 H         1 <0>         0.0986
     25 C19         1.7301  -14.3820    6.0636 C.3       1 <0>        -0.1255
     26 C20         2.4523  -14.9188    7.3050 C.3       1 <0>        -0.1167
     27 C21         3.8915  -15.2529    6.9180 C.3       1 <0>        -0.0834
     28 C22         4.5355  -14.0859    6.2162 C.ar      1 <0>        -0.0697
     29 C23         3.8047  -13.0562    5.6682 C.ar      1 <0>        -0.0965
     30 C24         4.4608  -12.0130    5.0281 C.ar      1 <0>        -0.1064
     31 C25         5.8377  -11.9996    4.9400 C.ar      1 <0>        -0.1282
     32 C26         6.5709  -13.0324    5.4933 C.ar      1 <0>        -0.1145
     33 C27         5.9213  -14.0688    6.1285 C.ar      1 <0>        -0.1269
     34 H2          1.0001    2.1870    0.0043 H         1 <0>         0.0813
     35 H3         -0.5497    2.1708   -0.8711 H         1 <0>         0.0813
     36 H4         -0.5327    2.1613    0.9088 H         1 <0>         0.1080
     37 H5          1.1584    1.6318   -2.0561 H         1 <0>         0.1225
     38 H6          2.3412    1.0603   -4.1371 H         1 <0>         0.1248
     39 H7          2.6994   -1.2948   -4.7487 H         1 <0>         0.1246
     40 H8          1.8774   -3.0927   -3.2827 H         1 <0>         0.1235
     41 H9         -1.3785   -3.0553   -0.3205 H         1 <0>         0.0614
     42 H10        -1.1920   -2.9584   -2.0915 H         1 <0>         0.0696
     43 H11        -1.6289   -5.3030   -1.2559 H         1 <0>         0.0795
     44 H12        -0.0940   -5.1417   -2.1436 H         1 <0>         0.0332
     45 H13         2.0064   -5.2511    0.8148 H         1 <0>         0.0837
     46 H14         1.9838   -5.1120   -0.9601 H         1 <0>         0.0325
     47 H15         2.4548   -2.9133   -0.0230 H         1 <0>         0.0693
     48 H16         1.0324   -3.0255    1.0470 H         1 <0>         0.0610
     49 H17        -0.9354   -7.1741   -0.1227 H         1 <0>         0.0735
     50 H18         0.7093   -7.2154   -0.8022 H         1 <0>         0.0306
     51 H19         1.6557   -6.9155    1.4700 H         1 <0>         0.0628
     52 H20         0.0110   -6.8742    2.1495 H         1 <0>         0.0728
     53 H21        -0.4012   -9.1637    1.2910 H         1 <0>         0.0634
     54 H22         1.2434   -9.2050    0.6115 H         1 <0>         0.0604
     55 H23         2.1898   -8.9051    2.8837 H         1 <0>         0.0692
     56 H24         0.5452   -8.8638    3.5633 H         1 <0>         0.0717
     57 H25         0.1329  -11.1533    2.7048 H         1 <0>         0.0944
     58 H26         1.7776  -11.1946    2.0252 H         1 <0>         0.0931
     59 H27         1.4893  -13.2178    3.7820 H         1 <0>         0.4018
     60 H28         0.6627  -14.2979    6.2675 H         1 <0>         0.0758
     61 H29         1.8919  -15.0578    5.2238 H         1 <0>         0.0725
     62 H30         2.4492  -14.1607    8.0881 H         1 <0>         0.0700
     63 H31         1.9499  -15.8180    7.6619 H         1 <0>         0.0756
     64 H32         4.4599  -15.4896    7.8174 H         1 <0>         0.0771
     65 H33         3.8938  -16.1174    6.2541 H         1 <0>         0.0774
     66 H34         3.8886  -11.2057    4.5954 H         1 <0>         0.1305
     67 H35         6.3408  -11.1848    4.4407 H         1 <0>         0.1198
     68 H36         7.6490  -13.0268    5.4289 H         1 <0>         0.1212
     69 H37         6.4953  -14.8754    6.5602 H         1 <0>         0.1207
@<TRIPOS>BOND
     1    1    2 1
     2    1   34 1
     3    1   35 1
     4    1   36 1
     5    2    3 1
     6    3    8 ar
     7    3    4 ar
     8    4    5 ar
     9    4   37 1
    10    5    6 ar
    11    5   38 1
    12    6    7 ar
    13    6   39 1
    14    7    8 ar
    15    7   40 1
    16    8    9 1
    17    9   14 1
    18    9   10 1
    19   10   11 1
    20   10   41 1
    21   10   42 1
    22   11   12 1
    23   11   43 1
    24   11   44 1
    25   12   13 1
    26   12   15 1
    27   13   14 1
    28   13   45 1
    29   13   46 1
    30   14   47 1
    31   14   48 1
    32   15   16 1
    33   15   49 1
    34   15   50 1
    35   16   17 1
    36   16   51 1
    37   16   52 1
    38   17   18 1
    39   17   53 1
    40   17   54 1
    41   18   19 1
    42   18   55 1
    43   18   56 1
    44   19   20 1
    45   19   57 1
    46   19   58 1
    47   20   21 2
    48   20   22 am
    49   22   23 1
    50   22   59 1
    51   23   24 1
    52   23   29 1
    53   23   25 1
    54   25   26 1
    55   25   60 1
    56   25   61 1
    57   26   27 1
    58   26   62 1
    59   26   63 1
    60   27   28 1
    61   27   64 1
    62   27   65 1
    63   28   33 ar
    64   28   29 ar
    65   29   30 ar
    66   30   31 ar
    67   30   66 1
    68   31   32 ar
    69   31   67 1
    70   32   33 ar
    71   32   68 1
    72   33   69 1
@<TRIPOS>MOLECULE
ZINC03874895
   44    45     0     0     0
SMALL
USER_CHARGES

@<TRIPOS>ATOM
      1 C1          1.4413   -2.5874   -2.4342 C.3       1 <0>        -0.1560
      2 C2          0.7544   -2.1400   -1.1423 C.3       1 <0>        -0.1490
      3 C3         -0.7443   -2.4339   -1.2335 C.3       1 <0>        -0.0208
      4 N1         -1.4039   -2.0044    0.0068 N.4       1 <0>        -0.3815
      5 C4         -1.3254   -0.5420    0.1221 C.3       1 <0>        -0.0192
      6 C5         -1.8949   -0.1056    1.4734 C.3       1 <0>        -0.1496
      7 C6         -1.6913    1.4004    1.6503 C.3       1 <0>        -0.1557
      8 C7         -2.8130   -2.4186   -0.0191 C.3       1 <0>         0.0199
      9 H1         -3.3345   -1.9999    0.8417 H         1 <0>         0.1456
     10 C8         -3.4725   -1.9252   -1.3123 C.3       1 <0>        -0.1357
     11 C9         -4.9781   -2.1582   -1.2046 C.3       1 <0>        -0.0772
     12 C10        -5.2664   -3.5812   -0.8031 C.ar      1 <0>        -0.1019
     13 C11        -6.5508   -4.0686   -1.0238 C.ar      1 <0>         0.0983
     14 C12        -6.8817   -5.3632   -0.6730 C.ar      1 <0>        -0.1233
     15 C13        -5.9304   -6.1831   -0.0968 C.ar      1 <0>        -0.1082
     16 C14        -4.6511   -5.7023    0.1219 C.ar      1 <0>         0.1067
     17 C15        -4.3157   -4.3974   -0.2351 C.ar      1 <0>        -0.0887
     18 C16        -2.9018   -3.9428    0.0171 C.3       1 <0>        -0.0900
     19 O1         -3.7149   -6.5085    0.6890 O.3       1 <0>        -0.4920
     20 F1         -7.4829   -3.2684   -1.5858 F         1 <0>        -0.1283
     21 H2          2.5091   -2.3780   -2.3692 H         1 <0>         0.0778
     22 H3          1.2888   -3.6575   -2.5750 H         1 <0>         0.0667
     23 H4          1.0155   -2.0455   -3.2786 H         1 <0>         0.0668
     24 H5          1.1802   -2.6820   -0.2979 H         1 <0>         0.0862
     25 H6          0.9069   -1.0700   -1.0015 H         1 <0>         0.0861
     26 H7         -1.1702   -1.8920   -2.0779 H         1 <0>         0.1321
     27 H8         -0.8968   -3.5040   -1.3743 H         1 <0>         0.1315
     28 H9         -0.2845   -0.2270    0.0477 H         1 <0>         0.1348
     29 H10        -1.9022   -0.0828   -0.6807 H         1 <0>         0.1316
     30 H11        -2.9599   -0.3350    1.5100 H         1 <0>         0.0855
     31 H12        -1.3808   -0.6382    2.2735 H         1 <0>         0.0856
     32 H13        -2.0971    1.7113    2.6130 H         1 <0>         0.0776
     33 H14        -0.6264    1.6299    1.6137 H         1 <0>         0.0671
     34 H15        -2.2054    1.9330    0.8502 H         1 <0>         0.0670
     35 H16        -3.2740   -0.8615   -1.4430 H         1 <0>         0.0955
     36 H17        -3.0750   -2.4804   -2.1620 H         1 <0>         0.0945
     37 H18        -5.3937   -1.4825   -0.4571 H         1 <0>         0.0939
     38 H19        -5.4430   -1.9557   -2.1695 H         1 <0>         0.1021
     39 H20        -7.8811   -5.7331   -0.8482 H         1 <0>         0.1497
     40 H21        -6.1842   -7.1952    0.1821 H         1 <0>         0.1485
     41 H22        -2.2488   -4.3592   -0.7498 H         1 <0>         0.0979
     42 H23        -2.5784   -4.2985    0.9954 H         1 <0>         0.1085
     43 H24        -3.2012   -7.0235    0.0518 H         1 <0>         0.3963
     44 H25        -0.9429   -2.4293    0.7975 H         1 <0>         0.4235
@<TRIPOS>BOND
     1    1    2 1
     2    1   21 1
     3    1   22 1
     4    1   23 1
     5    2    3 1
     6    2   24 1
     7    2   25 1
     8    3    4 1
     9    3   26 1
    10    3   27 1
    11    4    5 1
    12    4    8 1
    13    4   44 1
    14    5    6 1
    15    5   28 1
    16    5   29 1
    17    6    7 1
    18    6   30 1
    19    6   31 1
    20    7   32 1
    21    7   33 1
    22    7   34 1
    23    8    9 1
    24    8   18 1
    25    8   10 1
    26   10   11 1
    27   10   35 1
    28   10   36 1
    29   11   12 1
    30   11   37 1
    31   11   38 1
    32   12   17 ar
    33   12   13 ar
    34   13   14 ar
    35   13   20 1
    36   14   15 ar
    37   14   39 1
    38   15   16 ar
    39   15   40 1
    40   16   17 ar
    41   16   19 1
    42   17   18 1
    43   18   41 1
    44   18   42 1
    45   19   43 1
@<TRIPOS>MOLECULE
ZINC14975987
   76    80     0     0     0
SMALL
USER_CHARGES
6-[4-(2-phenylphenyl)piperazin-1-yl]-N-[(1R)-tetralin-1-yl]hexanamide
@<TRIPOS>ATOM
      1 C1          0.6477    5.8655   -9.5015 C.ar      1 <0>        -0.1135
      2 C2          1.9150    5.5913   -9.9834 C.ar      1 <0>        -0.1164
      3 C3          2.3624    4.2876  -10.0531 C.ar      1 <0>        -0.1055
      4 C4          1.5347    3.2464   -9.6368 C.ar      1 <0>        -0.0406
      5 C5          0.2568    3.5282   -9.1570 C.ar      1 <0>        -0.0880
      6 C6         -0.1779    4.8362   -9.0865 C.ar      1 <0>        -0.1244
      7 C7          2.0097    1.8434   -9.7097 C.ar      1 <0>        -0.0112
      8 C8          2.4626    1.3198  -10.9183 C.ar      1 <0>        -0.0991
      9 C9          2.8987    0.0120  -10.9824 C.ar      1 <0>        -0.1017
     10 C10         2.8928   -0.7820   -9.8487 C.ar      1 <0>        -0.1055
     11 C11         2.4506   -0.2731   -8.6431 C.ar      1 <0>        -0.1435
     12 C12         2.0091    1.0402   -8.5633 C.ar      1 <0>         0.0729
     13 N1          1.5613    1.5558   -7.3473 N.pl3     1 <0>        -0.4884
     14 C13         0.3379    0.8728   -6.9042 C.3       1 <0>         0.0273
     15 C14        -0.1642    1.5192   -5.6109 C.3       1 <0>         0.0035
     16 C15         2.1077    2.1169   -5.0278 C.3       1 <0>         0.0008
     17 C16         2.6097    1.4706   -6.3211 C.3       1 <0>         0.0302
     18 C17         0.4126    1.9770   -3.3039 C.3       1 <0>        -0.0039
     19 C18         1.4267    1.6486   -2.2063 C.3       1 <0>        -0.1497
     20 C19         0.9354    2.2142   -0.8723 C.3       1 <0>        -0.1174
     21 C20         1.9495    1.8859    0.2253 C.3       1 <0>        -0.1052
     22 C21         1.4583    2.4515    1.5594 C.3       1 <0>        -0.1438
     23 C22         2.4571    2.1281    2.6404 C.2       1 <0>         0.5108
     24 O1          3.4629    1.5063    2.3705 O.2       1 <0>        -0.5352
     25 N2          2.2328    2.5297    3.9073 N.am      1 <0>        -0.7224
     26 C23         3.2038    2.2153    4.9582 C.3       1 <0>         0.1875
     27 H1          3.6365    1.2336    4.7657 H         1 <0>         0.0987
     28 C24         2.4940    2.1963    6.3105 C.3       1 <0>        -0.1261
     29 C25         3.5549    2.0818    7.4116 C.3       1 <0>        -0.1170
     30 C26         4.3281    3.3975    7.4742 C.3       1 <0>        -0.0857
     31 C27         4.8172    3.7902    6.1047 C.ar      1 <0>        -0.0663
     32 C28         4.2982    3.2502    4.9492 C.ar      1 <0>        -0.0992
     33 C29         4.7892    3.6613    3.7170 C.ar      1 <0>        -0.1093
     34 C30         5.7946    4.6032    3.6416 C.ar      1 <0>        -0.1296
     35 C31         6.3185    5.1421    4.8016 C.ar      1 <0>        -0.1124
     36 C32         5.8309    4.7362    6.0268 C.ar      1 <0>        -0.1246
     37 H2          0.3017    6.8872   -9.4487 H         1 <0>         0.1232
     38 H3          2.5554    6.3989  -10.3061 H         1 <0>         0.1254
     39 H4          3.3522    4.0747  -10.4292 H         1 <0>         0.1220
     40 H5         -0.3904    2.7250   -8.8372 H         1 <0>         0.1141
     41 H6         -1.1661    5.0561   -8.7104 H         1 <0>         0.1213
     42 H7          2.4689    1.9357  -11.8055 H         1 <0>         0.1337
     43 H8          3.2457   -0.3937  -11.9212 H         1 <0>         0.1330
     44 H9          3.2353   -1.8046   -9.9070 H         1 <0>         0.1293
     45 H10         2.4481   -0.8977   -7.7621 H         1 <0>         0.1192
     46 H11         0.5541   -0.1803   -6.7243 H         1 <0>         0.0643
     47 H12        -0.4273    0.9606   -7.6755 H         1 <0>         0.1230
     48 H13        -1.0553    0.9955   -5.2648 H         1 <0>         0.1352
     49 H14        -0.4065    2.5654   -5.7972 H         1 <0>         0.1400
     50 H15         1.8914    3.1700   -5.2077 H         1 <0>         0.1400
     51 H16         2.8729    2.0291   -4.2565 H         1 <0>         0.1358
     52 H17         2.8518    0.4243   -6.1346 H         1 <0>         0.0636
     53 H18         3.5010    1.9939   -6.6674 H         1 <0>         0.1234
     54 H19        -0.5506    1.5325   -3.0534 H         1 <0>         0.1297
     55 H20         0.3034    3.0584   -3.3859 H         1 <0>         0.1321
     56 H21         2.3899    2.0931   -2.4568 H         1 <0>         0.0877
     57 H22         1.5359    0.5672   -2.1243 H         1 <0>         0.0871
     58 H23        -0.0278    1.7698   -0.6218 H         1 <0>         0.0752
     59 H24         0.8262    3.2957   -0.9543 H         1 <0>         0.0753
     60 H25         2.0587    0.8045    0.3074 H         1 <0>         0.0750
     61 H26         2.9127    2.3304   -0.0251 H         1 <0>         0.0744
     62 H27         1.3491    3.5329    1.4773 H         1 <0>         0.0961
     63 H28         0.4951    2.0070    1.8098 H         1 <0>         0.0965
     64 H29         1.4284    3.0269    4.1231 H         1 <0>         0.4029
     65 H30         1.9276    3.1185    6.4408 H         1 <0>         0.0733
     66 H31         1.8196    1.3414    6.3593 H         1 <0>         0.0761
     67 H32         3.0705    1.8947    8.3700 H         1 <0>         0.0778
     68 H33         4.2383    1.2651    7.1794 H         1 <0>         0.0703
     69 H34         3.6752    4.1800    7.8608 H         1 <0>         0.0792
     70 H35         5.1823    3.2809    8.1412 H         1 <0>         0.0794
     71 H36         4.3805    3.2404    2.8102 H         1 <0>         0.1281
     72 H37         6.1711    4.9182    2.6796 H         1 <0>         0.1187
     73 H38         7.1067    5.8786    4.7491 H         1 <0>         0.1227
     74 H39         6.2406    5.1580    6.9327 H         1 <0>         0.1231
     75 N3          0.8904    1.4068   -4.5816 N.4       1 <0>        -0.3972
     76 H40         1.1152    0.4149   -4.4409 H         1 <0>         0.4240
@<TRIPOS>BOND
     1    1    6 ar
     2    1    2 ar
     3    1   37 1
     4    2    3 ar
     5    2   38 1
     6    3    4 ar
     7    3   39 1
     8    4    5 ar
     9    4    7 1
    10    5    6 ar
    11    5   40 1
    12    6   41 1
    13    7   12 ar
    14    7    8 ar
    15    8    9 ar
    16    8   42 1
    17    9   10 ar
    18    9   43 1
    19   10   11 ar
    20   10   44 1
    21   11   12 ar
    22   11   45 1
    23   12   13 1
    24   13   17 1
    25   13   14 1
    26   14   15 1
    27   14   46 1
    28   14   47 1
    29   15   48 1
    30   15   49 1
    31   15   75 1
    32   16   17 1
    33   16   50 1
    34   16   51 1
    35   16   75 1
    36   17   52 1
    37   17   53 1
    38   18   19 1
    39   18   54 1
    40   18   55 1
    41   18   75 1
    42   19   20 1
    43   19   56 1
    44   19   57 1
    45   20   21 1
    46   20   58 1
    47   20   59 1
    48   21   22 1
    49   21   60 1
    50   21   61 1
    51   22   23 1
    52   22   62 1
    53   22   63 1
    54   23   24 2
    55   23   25 am
    56   25   26 1
    57   25   64 1
    58   26   27 1
    59   26   32 1
    60   26   28 1
    61   28   29 1
    62   28   65 1
    63   28   66 1
    64   29   30 1
    65   29   67 1
    66   29   68 1
    67   30   31 1
    68   30   69 1
    69   30   70 1
    70   31   36 ar
    71   31   32 ar
    72   32   33 ar
    73   33   34 ar
    74   33   71 1
    75   34   35 ar
    76   34   72 1
    77   35   36 ar
    78   35   73 1
    79   36   74 1
    80   75   76 1
@<TRIPOS>MOLECULE
ZINC14975990
   76    80     0     0     0
SMALL
USER_CHARGES

@<TRIPOS>ATOM
      1 C1          5.9123   -5.5891    3.5577 C.ar      1 <0>        -0.1140
      2 C2          6.0948   -5.7851    2.2006 C.ar      1 <0>        -0.1142
      3 C3          5.8526   -4.7562    1.3133 C.ar      1 <0>        -0.1068
      4 C4          5.4233   -3.5176    1.7871 C.ar      1 <0>        -0.0438
      5 C5          5.2411   -3.3259    3.1555 C.ar      1 <0>        -0.1044
      6 C6          5.4864   -4.3620    4.0335 C.ar      1 <0>        -0.1225
      7 C7          5.1619   -2.4079    0.8387 C.ar      1 <0>        -0.0477
      8 C8          6.1609   -1.9832   -0.0340 C.ar      1 <0>        -0.0977
      9 C9          5.9128   -0.9504   -0.9152 C.ar      1 <0>        -0.1067
     10 C10         4.6741   -0.3330   -0.9358 C.ar      1 <0>        -0.1086
     11 C11         3.6751   -0.7449   -0.0754 C.ar      1 <0>        -0.1198
     12 C12         3.9082   -1.7861    0.8122 C.ar      1 <0>         0.1576
     13 N1          2.8993   -2.2071    1.6782 N.pl3     1 <0>        -0.6689
     14 C13         2.0501   -3.3614    1.3458 C.3       1 <0>         0.1220
     15 C14         0.5838   -2.9516    1.5188 C.3       1 <0>        -0.0213
     16 N2          0.3816   -2.4203    2.8726 N.4       1 <0>        -0.3805
     17 C15         1.1596   -1.1873    3.0474 C.3       1 <0>        -0.0275
     18 C16         2.6581   -1.5132    2.9528 C.3       1 <0>         0.1166
     19 C17        -1.0442   -2.1302    3.0749 C.3       1 <0>        -0.0100
     20 C18        -1.2756   -1.6949    4.5233 C.3       1 <0>        -0.1487
     21 C19        -2.7606   -1.3928    4.7340 C.3       1 <0>        -0.1173
     22 C20        -2.9920   -0.9575    6.1824 C.3       1 <0>        -0.1051
     23 C21        -4.4770   -0.6554    6.3931 C.3       1 <0>        -0.1438
     24 C22        -4.7049   -0.2266    7.8198 C.2       1 <0>         0.5109
     25 O1         -3.7715   -0.1684    8.5919 O.2       1 <0>        -0.5351
     26 N3         -5.9460    0.0921    8.2375 N.am      1 <0>        -0.7225
     27 C23        -6.1676    0.5089    9.6244 C.3       1 <0>         0.1874
     28 H1         -5.3067    1.0816    9.9694 H         1 <0>         0.0991
     29 C24        -7.4162    1.3858    9.6934 C.3       1 <0>        -0.1261
     30 C25        -7.7547    1.6301   11.1687 C.3       1 <0>        -0.1170
     31 C26        -8.2512    0.3179   11.7724 C.3       1 <0>        -0.0858
     32 C27        -7.2841   -0.7991   11.4793 C.ar      1 <0>        -0.0662
     33 C28        -6.3306   -0.7128   10.4902 C.ar      1 <0>        -0.0992
     34 C29        -5.4739   -1.7827   10.2669 C.ar      1 <0>        -0.1088
     35 C30        -5.5692   -2.9285   11.0297 C.ar      1 <0>        -0.1295
     36 C31        -6.5248   -3.0130   12.0248 C.ar      1 <0>        -0.1123
     37 C32        -7.3763   -1.9524   12.2474 C.ar      1 <0>        -0.1244
     38 H2          6.0987   -6.3985    4.2480 H         1 <0>         0.1245
     39 H3          6.4278   -6.7451    1.8347 H         1 <0>         0.1264
     40 H4          5.9958   -4.9102    0.2540 H         1 <0>         0.1232
     41 H5          4.9090   -2.3681    3.5281 H         1 <0>         0.1168
     42 H6          5.3455   -4.2146    5.0941 H         1 <0>         0.1229
     43 H7          7.1291   -2.4616   -0.0210 H         1 <0>         0.1292
     44 H8          6.6884   -0.6223   -1.5912 H         1 <0>         0.1309
     45 H9          4.4879    0.4750   -1.6278 H         1 <0>         0.1288
     46 H10         2.7108   -0.2590   -0.0960 H         1 <0>         0.1214
     47 H11         2.2272   -3.6611    0.3129 H         1 <0>         0.1144
     48 H12         2.2802   -4.1902    2.0153 H         1 <0>         0.0769
     49 H13         0.3319   -2.1850    0.7861 H         1 <0>         0.1299
     50 H14        -0.0565   -3.8211    1.3702 H         1 <0>         0.1352
     51 H15         0.8903   -0.4741    2.2684 H         1 <0>         0.1304
     52 H16         0.9436   -0.7567    4.0251 H         1 <0>         0.1372
     53 H17         2.9485   -2.1586    3.7818 H         1 <0>         0.0800
     54 H18         3.2374   -0.5904    2.9827 H         1 <0>         0.1155
     55 H19        -1.3513   -1.3300    2.4016 H         1 <0>         0.1283
     56 H20        -1.6302   -3.0254    2.8665 H         1 <0>         0.1304
     57 H21        -0.9685   -2.4951    5.1967 H         1 <0>         0.0880
     58 H22        -0.6896   -0.7998    4.7317 H         1 <0>         0.0879
     59 H23        -3.0677   -0.5926    4.0607 H         1 <0>         0.0746
     60 H24        -3.3466   -2.2880    4.5256 H         1 <0>         0.0750
     61 H25        -2.6849   -1.7577    6.8558 H         1 <0>         0.0747
     62 H26        -2.4060   -0.0624    6.3908 H         1 <0>         0.0749
     63 H27        -4.7841    0.1448    5.7198 H         1 <0>         0.0962
     64 H28        -5.0630   -1.5505    6.1847 H         1 <0>         0.0959
     65 H29        -6.6926    0.0456    7.6199 H         1 <0>         0.4028
     66 H30        -7.2241    2.3377    9.1983 H         1 <0>         0.0760
     67 H31        -8.2483    0.8788    9.2049 H         1 <0>         0.0733
     68 H32        -6.8633    1.9644   11.6994 H         1 <0>         0.0703
     69 H33        -8.5344    2.3880   11.2459 H         1 <0>         0.0778
     70 H34        -8.3504    0.4336   12.8517 H         1 <0>         0.0794
     71 H35        -9.2241    0.0719   11.3470 H         1 <0>         0.0792
     72 H36        -4.7270   -1.7175    9.4895 H         1 <0>         0.1272
     73 H37        -4.8992   -3.7563   10.8502 H         1 <0>         0.1188
     74 H38        -6.6033   -3.9066   12.6262 H         1 <0>         0.1228
     75 H39        -8.1227   -2.0197   13.0251 H         1 <0>         0.1231
     76 H40         0.6823   -3.1052    3.5498 H         1 <0>         0.4218
@<TRIPOS>BOND
     1    1    6 ar
     2    1    2 ar
     3    1   38 1
     4    2    3 ar
     5    2   39 1
     6    3    4 ar
     7    3   40 1
     8    4    5 ar
     9    4    7 1
    10    5    6 ar
    11    5   41 1
    12    6   42 1
    13    7   12 ar
    14    7    8 ar
    15    8    9 ar
    16    8   43 1
    17    9   10 ar
    18    9   44 1
    19   10   11 ar
    20   10   45 1
    21   11   12 ar
    22   11   46 1
    23   12   13 1
    24   13   18 1
    25   13   14 1
    26   14   15 1
    27   14   47 1
    28   14   48 1
    29   15   16 1
    30   15   49 1
    31   15   50 1
    32   16   17 1
    33   16   19 1
    34   16   76 1
    35   17   18 1
    36   17   51 1
    37   17   52 1
    38   18   53 1
    39   18   54 1
    40   19   20 1
    41   19   55 1
    42   19   56 1
    43   20   21 1
    44   20   57 1
    45   20   58 1
    46   21   22 1
    47   21   59 1
    48   21   60 1
    49   22   23 1
    50   22   61 1
    51   22   62 1
    52   23   24 1
    53   23   63 1
    54   23   64 1
    55   24   25 2
    56   24   26 am
    57   26   27 1
    58   26   65 1
    59   27   28 1
    60   27   33 1
    61   27   29 1
    62   29   30 1
    63   29   66 1
    64   29   67 1
    65   30   31 1
    66   30   68 1
    67   30   69 1
    68   31   32 1
    69   31   70 1
    70   31   71 1
    71   32   37 ar
    72   32   33 ar
    73   33   34 ar
    74   34   35 ar
    75   34   72 1
    76   35   36 ar
    77   35   73 1
    78   36   37 ar
    79   36   74 1
    80   37   75 1
@<TRIPOS>MOLECULE
ZINC14975990
   75    79     0     0     0
SMALL
USER_CHARGES

@<TRIPOS>ATOM
      1 C1          5.9126   -5.5883    3.5585 C.ar      1 <0>        -0.1192
      2 C2          6.0955   -5.7845    2.2014 C.ar      1 <0>        -0.1205
      3 C3          5.8532   -4.7557    1.3140 C.ar      1 <0>        -0.1099
      4 C4          5.4235   -3.5172    1.7875 C.ar      1 <0>        -0.0346
      5 C5          5.2410   -3.3253    3.1559 C.ar      1 <0>        -0.0922
      6 C6          5.4864   -4.3613    4.0340 C.ar      1 <0>        -0.1200
      7 C7          5.1620   -2.4077    0.8389 C.ar      1 <0>        -0.0602
      8 C8          6.1610   -1.9831   -0.0338 C.ar      1 <0>        -0.1006
      9 C9          5.9128   -0.9504   -0.9152 C.ar      1 <0>        -0.1235
     10 C10         4.6740   -0.3332   -0.9360 C.ar      1 <0>        -0.1113
     11 C11         3.6750   -0.7451   -0.0756 C.ar      1 <0>        -0.1266
     12 C12         3.9082   -1.7861    0.8122 C.ar      1 <0>         0.1869
     13 N1          2.8993   -2.2071    1.6782 N.pl3     1 <0>        -0.6736
     14 C13         2.0510   -3.3614    1.3445 C.3       1 <0>         0.1547
     15 C14         0.5835   -2.9473    1.4973 C.3       1 <0>         0.0421
     16 N2          0.3728   -2.3890    2.8396 N.3       1 <0>        -0.5341
     17 C15         1.1641   -1.1675    3.0390 C.3       1 <0>         0.0382
     18 C16         2.6593   -1.5124    2.9522 C.3       1 <0>         0.1483
     19 C17        -1.0533   -2.1389    3.0878 C.3       1 <0>         0.0562
     20 C18        -1.2618   -1.7981    4.5647 C.3       1 <0>        -0.1154
     21 C19        -2.7472   -1.5375    4.8232 C.3       1 <0>        -0.1183
     22 C20        -2.9557   -1.1967    6.3001 C.3       1 <0>        -0.1027
     23 C21        -4.4410   -0.9362    6.5586 C.3       1 <0>        -0.1421
     24 C22        -4.6464   -0.6005    8.0133 C.2       1 <0>         0.5118
     25 O1         -3.6982   -0.5725    8.7690 O.2       1 <0>        -0.5328
     26 N3         -5.8839   -0.3315    8.4746 N.am      1 <0>        -0.7266
     27 C23        -6.0835   -0.0052    9.8888 C.3       1 <0>         0.1866
     28 H1         -5.2258    0.5612   10.2515 H         1 <0>         0.0984
     29 C24        -7.3456    0.8422   10.0368 C.3       1 <0>        -0.1255
     30 C25        -7.6573    0.9887   11.5309 C.3       1 <0>        -0.1166
     31 C26        -8.1180   -0.3674   12.0618 C.3       1 <0>        -0.0834
     32 C27        -7.1378   -1.4458   11.6809 C.ar      1 <0>        -0.0697
     33 C28        -6.2070   -1.2809   10.6803 C.ar      1 <0>        -0.0968
     34 C29        -5.3365   -2.3186   10.3741 C.ar      1 <0>        -0.1064
     35 C30        -5.3957   -3.5108   11.0661 C.ar      1 <0>        -0.1280
     36 C31        -6.3285   -3.6745   12.0728 C.ar      1 <0>        -0.1143
     37 C32        -7.1936   -2.6458   12.3776 C.ar      1 <0>        -0.1269
     38 H2          6.0992   -6.3976    4.2489 H         1 <0>         0.1200
     39 H3          6.4288   -6.7445    1.8357 H         1 <0>         0.1212
     40 H4          5.9966   -4.9099    0.2547 H         1 <0>         0.1194
     41 H5          4.9086   -2.3676    3.5283 H         1 <0>         0.1197
     42 H6          5.3453   -4.2137    5.0946 H         1 <0>         0.1210
     43 H7          7.1293   -2.4613   -0.0206 H         1 <0>         0.1231
     44 H8          6.6884   -0.6223   -1.5912 H         1 <0>         0.1235
     45 H9          4.4877    0.4747   -1.6281 H         1 <0>         0.1220
     46 H10         2.7107   -0.2593   -0.0964 H         1 <0>         0.1198
     47 H11         2.2394   -3.6691    0.3160 H         1 <0>         0.0688
     48 H12         2.2713   -4.1859    2.0225 H         1 <0>         0.0572
     49 H13         0.3379   -2.1950    0.7478 H         1 <0>         0.0337
     50 H14        -0.0564   -3.8192    1.3614 H         1 <0>         0.0786
     51 H15         0.9104   -0.4400    2.2680 H         1 <0>         0.0338
     52 H16         0.9452   -0.7486    4.0211 H         1 <0>         0.0824
     53 H17         2.9370   -2.1626    3.7818 H         1 <0>         0.0611
     54 H18         3.2502   -0.5970    2.9870 H         1 <0>         0.0699
     55 H19        -1.3884   -1.3045    2.4716 H         1 <0>         0.0307
     56 H20        -1.6278   -3.0303    2.8360 H         1 <0>         0.0733
     57 H21        -0.9267   -2.6324    5.1809 H         1 <0>         0.0723
     58 H22        -0.6874   -0.9067    4.8166 H         1 <0>         0.0627
     59 H23        -3.0823   -0.7032    4.2070 H         1 <0>         0.0606
     60 H24        -3.3216   -2.4289    4.5714 H         1 <0>         0.0633
     61 H25        -2.6206   -2.0310    6.9163 H         1 <0>         0.0708
     62 H26        -2.3812   -0.3053    6.5520 H         1 <0>         0.0699
     63 H27        -4.7761   -0.1019    5.9424 H         1 <0>         0.0937
     64 H28        -5.0155   -1.8276    6.3068 H         1 <0>         0.0939
     65 H29        -6.6423   -0.3539    7.8703 H         1 <0>         0.4018
     66 H30        -7.1807    1.8262    9.5980 H         1 <0>         0.0756
     67 H31        -8.1788    0.3506    9.5345 H         1 <0>         0.0725
     68 H32        -6.7609    1.3062   12.0636 H         1 <0>         0.0699
     69 H33        -8.4483    1.7255   11.6704 H         1 <0>         0.0756
     70 H34        -8.1965   -0.3203   13.1480 H         1 <0>         0.0771
     71 H35        -9.0951   -0.6049   11.6413 H         1 <0>         0.0774
     72 H36        -4.6073   -2.1916    9.5875 H         1 <0>         0.1305
     73 H37        -4.7152   -4.3133   10.8222 H         1 <0>         0.1200
     74 H38        -6.3787   -4.6048   12.6190 H         1 <0>         0.1213
     75 H39        -7.9223   -2.7749   13.1643 H         1 <0>         0.1207
@<TRIPOS>BOND
     1    1    6 ar
     2    1    2 ar
     3    1   38 1
     4    2    3 ar
     5    2   39 1
     6    3    4 ar
     7    3   40 1
     8    4    5 ar
     9    4    7 1
    10    5    6 ar
    11    5   41 1
    12    6   42 1
    13    7   12 ar
    14    7    8 ar
    15    8    9 ar
    16    8   43 1
    17    9   10 ar
    18    9   44 1
    19   10   11 ar
    20   10   45 1
    21   11   12 ar
    22   11   46 1
    23   12   13 1
    24   13   18 1
    25   13   14 1
    26   14   15 1
    27   14   47 1
    28   14   48 1
    29   15   16 1
    30   15   49 1
    31   15   50 1
    32   16   17 1
    33   16   19 1
    34   17   18 1
    35   17   51 1
    36   17   52 1
    37   18   53 1
    38   18   54 1
    39   19   20 1
    40   19   55 1
    41   19   56 1
    42   20   21 1
    43   20   57 1
    44   20   58 1
    45   21   22 1
    46   21   59 1
    47   21   60 1
    48   22   23 1
    49   22   61 1
    50   22   62 1
    51   23   24 1
    52   23   63 1
    53   23   64 1
    54   24   25 2
    55   24   26 am
    56   26   27 1
    57   26   65 1
    58   27   28 1
    59   27   33 1
    60   27   29 1
    61   29   30 1
    62   29   66 1
    63   29   67 1
    64   30   31 1
    65   30   68 1
    66   30   69 1
    67   31   32 1
    68   31   70 1
    69   31   71 1
    70   32   37 ar
    71   32   33 ar
    72   33   34 ar
    73   34   35 ar
    74   34   72 1
    75   35   36 ar
    76   35   73 1
    77   36   37 ar
    78   36   74 1
    79   37   75 1
@<TRIPOS>MOLECULE
ZINC71754993
   49    52     0     0     0
SMALL
USER_CHARGES

@<TRIPOS>ATOM
      1 C1          2.6170   -2.6358   -1.1889 C.3       1 <0>        -0.1671
      2 C2          2.2134   -1.1611   -1.2456 C.3       1 <0>         0.1069
      3 N1          0.7528   -1.0529   -1.2130 N.am      1 <0>        -0.6114
      4 C3          0.0461   -1.0616    0.0703 C.3       1 <0>         0.0994
      5 C4         -0.0614    0.3687    0.6029 C.3       1 <0>        -0.1765
      6 C5          0.0592   -0.9454   -2.3636 C.2       1 <0>         0.5267
      7 O1          0.6474   -0.8703   -3.4215 O.2       1 <0>        -0.5333
      8 C6         -1.4473   -0.9186   -2.3355 C.3       1 <0>        -0.0725
      9 H1         -1.8080   -1.4645   -1.4638 H         1 <0>         0.1146
     10 C7         -1.9990   -1.5624   -3.6126 C.3       1 <0>         0.0770
     11 N2         -3.4593   -1.4331   -3.6037 N.3       1 <0>        -0.5484
     12 C8         -3.9081   -0.0485   -3.6742 C.3       1 <0>         0.1385
     13 H2         -3.8294    0.2578   -4.7173 H         1 <0>         0.0457
     14 C9         -5.3934    0.0321   -3.2953 C.3       1 <0>        -0.0232
     15 C10        -5.8207    1.4760   -3.2538 C.2       1 <0>        -0.1681
     16 C11        -6.9734    2.1212   -3.3973 C.2       1 <0>         0.0572
     17 N3         -6.7828    3.4861   -3.2468 N.pl3     1 <0>        -0.5952
     18 H3         -7.4843    4.1531   -3.3095 H         1 <0>         0.4163
     19 C12        -5.4715    3.7584   -2.9981 C.ar      1 <0>         0.1107
     20 C13        -4.8308    2.5163   -3.0000 C.ar      1 <0>        -0.1310
     21 C14        -3.4506    2.3050   -2.7990 C.ar      1 <0>        -0.0034
     22 C15        -2.7031    3.4367   -2.5663 C.ar      1 <0>        -0.1283
     23 C16        -3.3241    4.6838   -2.5516 C.ar      1 <0>        -0.0962
     24 C17        -4.6837    4.8842   -2.7614 C.ar      1 <0>        -0.1216
     25 C18        -3.0445    0.8889   -2.8726 C.2       1 <0>        -0.0548
     26 C19        -1.9279    0.5065   -2.2758 C.2       1 <0>        -0.1279
     27 C20        -4.0657   -2.2382   -4.6723 C.3       1 <0>         0.0274
     28 H4          2.2786   -3.0692   -0.2477 H         1 <0>         0.0559
     29 H5          2.1583   -3.1703   -2.0208 H         1 <0>         0.0579
     30 H6          3.7017   -2.7185   -1.2577 H         1 <0>         0.0673
     31 H7          2.6359   -0.6355   -0.3892 H         1 <0>         0.0755
     32 H8          2.5902   -0.7164   -2.1667 H         1 <0>         0.0872
     33 H9         -0.9534   -1.4738   -0.0682 H         1 <0>         0.0851
     34 H10         0.5964   -1.6747    0.7839 H         1 <0>         0.0811
     35 H11        -0.5106    0.3537    1.5960 H         1 <0>         0.0701
     36 H12         0.9333    0.8106    0.6607 H         1 <0>         0.0594
     37 H13        -0.6835    0.9606   -0.0684 H         1 <0>         0.0612
     38 H14        -1.5914   -1.0526   -4.4855 H         1 <0>         0.0533
     39 H15        -1.7248   -2.6170   -3.6391 H         1 <0>         0.0845
     40 H16        -5.9874   -0.5018   -4.0371 H         1 <0>         0.0765
     41 H17        -5.5435   -0.4200   -2.3149 H         1 <0>         0.0843
     42 H18        -7.9232    1.6497   -3.6022 H         1 <0>         0.1695
     43 H19        -1.6396    3.3585   -2.3953 H         1 <0>         0.1220
     44 H20        -2.7091    5.5517   -2.3648 H         1 <0>         0.1224
     45 H21        -5.1135    5.8748   -2.7421 H         1 <0>         0.1285
     46 H22        -1.3518    1.2331   -1.7222 H         1 <0>         0.1200
     47 H23        -3.7498   -3.2763   -4.5689 H         1 <0>         0.0734
     48 H24        -5.1517   -2.1799   -4.5994 H         1 <0>         0.0744
     49 H25        -3.7455   -1.8558   -5.6415 H         1 <0>         0.0291
@<TRIPOS>BOND
     1    1    2 1
     2    1   28 1
     3    1   29 1
     4    1   30 1
     5    2    3 1
     6    2   31 1
     7    2   32 1
     8    3    4 1
     9    3    6 am
    10    4    5 1
    11    4   33 1
    12    4   34 1
    13    5   35 1
    14    5   36 1
    15    5   37 1
    16    6    7 2
    17    6    8 1
    18    8    9 1
    19    8   26 1
    20    8   10 1
    21   10   11 1
    22   10   38 1
    23   10   39 1
    24   11   12 1
    25   11   27 1
    26   12   13 1
    27   12   25 1
    28   12   14 1
    29   14   15 1
    30   14   40 1
    31   14   41 1
    32   15   20 1
    33   15   16 2
    34   16   17 1
    35   16   42 1
    36   17   18 1
    37   17   19 1
    38   19   24 ar
    39   19   20 ar
    40   20   21 ar
    41   21   22 ar
    42   21   25 1
    43   22   23 ar
    44   22   43 1
    45   23   24 ar
    46   23   44 1
    47   24   45 1
    48   25   26 2
    49   26   46 1
    50   27   47 1
    51   27   48 1
    52   27   49 1
@<TRIPOS>MOLECULE
ZINC71754993
   50    53     0     0     0
SMALL
USER_CHARGES

@<TRIPOS>ATOM
      1 C1         -4.4131    1.6542    2.7709 C.3       1 <0>        -0.1692
      2 C2         -3.1002    1.6745    1.9857 C.3       1 <0>         0.1077
      3 N1         -3.2120    0.7884    0.8243 N.am      1 <0>        -0.6044
      4 C3         -3.6997    1.3136   -0.4534 C.3       1 <0>         0.0980
      5 C4         -2.5178    1.8262   -1.2787 C.3       1 <0>        -0.1810
      6 C5         -2.8661   -0.5098    0.9314 C.2       1 <0>         0.5240
      7 O1         -2.5501   -0.9662    2.0097 O.2       1 <0>        -0.5069
      8 C6         -2.8722   -1.3943   -0.2887 C.3       1 <0>        -0.1042
      9 H1         -2.7358   -0.7873   -1.1837 H         1 <0>         0.1306
     10 C7         -4.2036   -2.1497   -0.3737 C.3       1 <0>         0.0021
     11 N2         -4.1503   -3.0574   -1.5221 N.4       1 <0>        -0.3772
     12 C8         -3.1649   -4.1132   -1.3324 C.3       1 <0>         0.0727
     13 H2         -3.6138   -4.8485   -0.6647 H         1 <0>         0.1401
     14 C9         -2.9105   -4.8224   -2.6700 C.3       1 <0>        -0.0390
     15 C10        -1.8064   -5.8325   -2.5003 C.2       1 <0>        -0.2014
     16 C11        -1.4541   -6.9552   -3.1179 C.2       1 <0>         0.0960
     17 N3         -0.3151   -7.4883   -2.5346 N.pl3     1 <0>        -0.5871
     18 H3          0.1234   -8.3046   -2.8215 H         1 <0>         0.4245
     19 C12         0.1019   -6.7038   -1.5020 C.ar      1 <0>         0.1104
     20 C13        -0.8165   -5.6518   -1.4449 C.ar      1 <0>        -0.1254
     21 C14        -0.7954   -4.5939   -0.5123 C.ar      1 <0>        -0.0281
     22 C15         0.2416   -4.6193    0.3924 C.ar      1 <0>        -0.0998
     23 C16         1.1732   -5.6542    0.3464 C.ar      1 <0>        -0.0987
     24 C17         1.1382   -6.6995   -0.5693 C.ar      1 <0>        -0.0978
     25 C18        -1.9016   -3.6317   -0.6709 C.2       1 <0>        -0.0695
     26 C19        -1.7626   -2.4072   -0.1876 C.2       1 <0>        -0.1111
     27 C20        -5.4735   -3.6664   -1.7125 C.3       1 <0>        -0.0520
     28 H4         -4.3299    2.3134    3.6350 H         1 <0>         0.0742
     29 H5         -5.2253    1.9965    2.1296 H         1 <0>         0.0570
     30 H6         -4.6195    0.6382    3.1076 H         1 <0>         0.0594
     31 H7         -2.8938    2.6904    1.6490 H         1 <0>         0.0854
     32 H8         -2.2879    1.3322    2.6269 H         1 <0>         0.0886
     33 H9         -4.2089    0.5208   -1.0014 H         1 <0>         0.0700
     34 H10        -4.3955    2.1319   -0.2680 H         1 <0>         0.0939
     35 H11        -2.8686    2.1332   -2.2639 H         1 <0>         0.0759
     36 H12        -2.0638    2.6783   -0.7728 H         1 <0>         0.0695
     37 H13        -1.7789    1.0322   -1.3872 H         1 <0>         0.0580
     38 H14        -4.3580   -2.7236    0.5400 H         1 <0>         0.1434
     39 H15        -5.0199   -1.4395   -0.5058 H         1 <0>         0.1437
     40 H16        -3.8204   -5.3293   -2.9914 H         1 <0>         0.0997
     41 H17        -2.6190   -4.0881   -3.4210 H         1 <0>         0.0934
     42 H18        -1.9802   -7.3903   -3.9547 H         1 <0>         0.1758
     43 H19         0.3329   -3.8400    1.1346 H         1 <0>         0.1302
     44 H20         1.9754   -5.6435    1.0695 H         1 <0>         0.1317
     45 H21         1.8852   -7.4794   -0.5582 H         1 <0>         0.1373
     46 H22        -0.8304   -2.1256    0.2794 H         1 <0>         0.1476
     47 H23        -6.2103   -2.8845   -1.8961 H         1 <0>         0.1309
     48 H24        -5.4422   -4.3438   -2.5658 H         1 <0>         0.1309
     49 H25        -5.7497   -4.2228   -0.8168 H         1 <0>         0.1266
     50 H26        -3.9112   -2.5291   -2.3478 H         1 <0>         0.4234
@<TRIPOS>BOND
     1    1    2 1
     2    1   28 1
     3    1   29 1
     4    1   30 1
     5    2    3 1
     6    2   31 1
     7    2   32 1
     8    3    4 1
     9    3    6 am
    10    4    5 1
    11    4   33 1
    12    4   34 1
    13    5   35 1
    14    5   36 1
    15    5   37 1
    16    6    7 2
    17    6    8 1
    18    8    9 1
    19    8   26 1
    20    8   10 1
    21   10   11 1
    22   10   38 1
    23   10   39 1
    24   11   12 1
    25   11   27 1
    26   11   50 1
    27   12   13 1
    28   12   25 1
    29   12   14 1
    30   14   15 1
    31   14   40 1
    32   14   41 1
    33   15   20 1
    34   15   16 2
    35   16   17 1
    36   16   42 1
    37   17   18 1
    38   17   19 1
    39   19   24 ar
    40   19   20 ar
    41   20   21 ar
    42   21   22 ar
    43   21   25 1
    44   22   23 ar
    45   22   43 1
    46   23   24 ar
    47   23   44 1
    48   24   45 1
    49   25   26 2
    50   26   46 1
    51   27   47 1
    52   27   48 1
    53   27   49 1
@<TRIPOS>MOLECULE
ZINC00538314
   60    64     0     0     0
SMALL
USER_CHARGES

@<TRIPOS>ATOM
      1 C1         -0.0184    1.5028    0.0103 C.3       1 <0>        -0.1174
      2 C2          0.0021   -0.0041    0.0020 C.2       1 <0>         0.2445
      3 C3         -1.1751   -0.7216    0.0036 C.2       1 <0>        -0.3147
      4 C4         -1.1361   -2.1161   -0.0047 C.2       1 <0>         0.5359
      5 O1         -2.1756   -2.7567   -0.0037 O.2       1 <0>        -0.5241
      6 N1          0.0668   -2.7644   -0.0143 N.am      1 <0>        -0.4737
      7 C5          0.2679   -4.1238   -0.0236 C.2       1 <0>         0.0266
      8 C6          1.4978   -4.6373   -0.0325 C.2       1 <0>        -0.1636
      9 S1          2.5089   -3.1651   -0.0288 S.3       1 <0>         0.1803
     10 C7          1.1857   -1.9749   -0.0151 C.2       1 <0>         0.3350
     11 N2          1.1565   -0.6654   -0.0126 N.2       1 <0>        -0.4984
     12 C8         -2.4993   -0.0022    0.0147 C.3       1 <0>        -0.0635
     13 C9         -3.0147    0.1395   -1.4188 C.3       1 <0>        -0.0075
     14 N3         -4.3055    0.8408   -1.4080 N.4       1 <0>        -0.3819
     15 C10        -4.1121    2.2079   -0.9103 C.3       1 <0>        -0.0097
     16 C11        -5.4758    2.8853   -0.7337 C.3       1 <0>        -0.1045
     17 C12        -6.2228    2.7941   -2.0481 C.2       1 <0>        -0.1537
     18 C13        -6.8154    3.8677   -2.5843 C.2       1 <0>         0.0201
     19 C14        -7.5400    3.7487   -3.8726 C.ar      1 <0>        -0.0793
     20 C15        -6.8454    3.4297   -5.0384 C.ar      1 <0>        -0.0814
     21 C16        -7.5238    3.3196   -6.2346 C.ar      1 <0>        -0.1518
     22 C17        -8.8933    3.5256   -6.2784 C.ar      1 <0>         0.1146
     23 C18        -9.5877    3.8433   -5.1223 C.ar      1 <0>        -0.1473
     24 C19        -8.9186    3.9499   -3.9205 C.ar      1 <0>        -0.0659
     25 F1         -9.5535    3.4167   -7.4521 F         1 <0>        -0.1311
     26 C20        -6.7474    5.1762   -1.8900 C.ar      1 <0>        -0.0818
     27 C21        -7.3566    5.3406   -0.6469 C.ar      1 <0>        -0.0760
     28 C22        -7.2903    6.5596   -0.0045 C.ar      1 <0>        -0.1515
     29 C23        -6.6196    7.6197   -0.5929 C.ar      1 <0>         0.1154
     30 C24        -6.0130    7.4611   -1.8286 C.ar      1 <0>        -0.1500
     31 C25        -6.0692    6.2440   -2.4758 C.ar      1 <0>        -0.0670
     32 F2         -6.5572    8.8117    0.0399 F         1 <0>        -0.1311
     33 C26        -6.2752    1.4449   -2.7346 C.3       1 <0>        -0.1083
     34 C27        -4.8545    0.8700   -2.7688 C.3       1 <0>        -0.0019
     35 H1          1.0042    1.8801    0.0026 H         1 <0>         0.0964
     36 H2         -0.5455    1.8639   -0.8728 H         1 <0>         0.0880
     37 H3         -0.5286    1.8543    0.9071 H         1 <0>         0.0967
     38 H4         -0.5845   -4.7869   -0.0233 H         1 <0>         0.1919
     39 H5          1.8032   -5.6732   -0.0394 H         1 <0>         0.2293
     40 H6         -3.2174   -0.5721    0.6044 H         1 <0>         0.1000
     41 H7         -2.3717    0.9869    0.4545 H         1 <0>         0.0983
     42 H8         -2.2966    0.7094   -2.0085 H         1 <0>         0.1284
     43 H9         -3.1423   -0.8496   -1.8586 H         1 <0>         0.1316
     44 H10        -3.5955    2.1756    0.0490 H         1 <0>         0.1348
     45 H11        -3.5151    2.7739   -1.6255 H         1 <0>         0.1309
     46 H12        -6.0411    2.3760    0.0468 H         1 <0>         0.1010
     47 H13        -5.3343    3.9317   -0.4629 H         1 <0>         0.1205
     48 H14        -5.7779    3.2693   -5.0053 H         1 <0>         0.1324
     49 H15        -6.9865    3.0728   -7.1384 H         1 <0>         0.1419
     50 H16       -10.6551    4.0034   -5.1612 H         1 <0>         0.1431
     51 H17        -9.4614    4.1929   -3.0190 H         1 <0>         0.1358
     52 H18        -7.8799    4.5149   -0.1877 H         1 <0>         0.1352
     53 H19        -7.7622    6.6880    0.9585 H         1 <0>         0.1425
     54 H20        -5.4916    8.2902   -2.2837 H         1 <0>         0.1424
     55 H21        -5.5921    6.1199   -3.4367 H         1 <0>         0.1346
     56 H22        -6.9300    0.7743   -2.1783 H         1 <0>         0.1009
     57 H23        -6.6483    1.5640   -3.7518 H         1 <0>         0.1217
     58 H24        -4.2246    1.4954   -3.4014 H         1 <0>         0.1291
     59 H25        -4.8820   -0.1426   -3.1713 H         1 <0>         0.1328
     60 H26        -4.9458    0.3531   -0.7995 H         1 <0>         0.4242
@<TRIPOS>BOND
     1    1    2 1
     2    1   35 1
     3    1   36 1
     4    1   37 1
     5    2   11 1
     6    2    3 2
     7    3    4 1
     8    3   12 1
     9    4    5 2
    10    4    6 am
    11    6   10 1
    12    6    7 1
    13    7    8 2
    14    7   38 1
    15    8    9 1
    16    8   39 1
    17    9   10 1
    18   10   11 2
    19   12   13 1
    20   12   40 1
    21   12   41 1
    22   13   14 1
    23   13   42 1
    24   13   43 1
    25   14   34 1
    26   14   15 1
    27   14   60 1
    28   15   16 1
    29   15   44 1
    30   15   45 1
    31   16   17 1
    32   16   46 1
    33   16   47 1
    34   17   18 2
    35   17   33 1
    36   18   19 1
    37   18   26 1
    38   19   24 ar
    39   19   20 ar
    40   20   21 ar
    41   20   48 1
    42   21   22 ar
    43   21   49 1
    44   22   23 ar
    45   22   25 1
    46   23   24 ar
    47   23   50 1
    48   24   51 1
    49   26   31 ar
    50   26   27 ar
    51   27   28 ar
    52   27   52 1
    53   28   29 ar
    54   28   53 1
    55   29   30 ar
    56   29   32 1
    57   30   31 ar
    58   30   54 1
    59   31   55 1
    60   33   34 1
    61   33   56 1
    62   33   57 1
    63   34   58 1
    64   34   59 1
@<TRIPOS>MOLECULE
ZINC00643233
   56    59     0     0     0
SMALL
USER_CHARGES

@<TRIPOS>ATOM
      1 C1         -0.0167    1.3786    0.0096 C.ar      1 <0>        -0.1573
      2 C2          1.1695    2.0894    0.0021 C.ar      1 <0>        -0.0635
      3 C3          2.3774    1.4200   -0.0130 C.ar      1 <0>        -0.1784
      4 C4          2.3998    0.0311   -0.0206 C.ar      1 <0>         0.2317
      5 C5          1.2064   -0.6798   -0.0130 C.ar      1 <0>        -0.1988
      6 C6          0.0021   -0.0041    0.0020 C.ar      1 <0>        -0.0706
      7 N1          3.6196   -0.6492   -0.0363 N.pl3     1 <0>        -0.6334
      8 C7          4.9637   -0.0571   -0.0400 C.3       1 <0>         0.3326
      9 N2          5.9388   -1.1470   -0.0572 N.am      1 <0>        -0.7166
     10 C8          5.3099   -2.3344   -0.0641 C.2       1 <0>         0.5288
     11 O1          5.8532   -3.4187   -0.0778 O.2       1 <0>        -0.5133
     12 C9          3.8222   -2.1026   -0.0461 C.3       1 <0>         0.1361
     13 C10         3.1820   -2.7114   -1.2943 C.3       1 <0>        -0.1499
     14 C11         3.3480   -4.2326   -1.2552 C.3       1 <0>        -0.0132
     15 N3          2.7020   -4.7671   -0.0503 N.4       1 <0>        -0.3794
     16 C12         3.3698   -4.2457    1.1482 C.3       1 <0>        -0.0190
     17 C13         3.2050   -2.7250    1.2070 C.3       1 <0>        -0.1492
     18 C14         2.7905   -6.2335   -0.0591 C.3       1 <0>        -0.0094
     19 C15         2.0109   -6.7986    1.1299 C.3       1 <0>        -0.1425
     20 C16         2.1030   -8.3258    1.1207 C.3       1 <0>        -0.1654
     21 C17         1.3351   -8.8824    2.2919 C.2       1 <0>         0.4040
     22 O2          0.7698   -8.1316    3.0583 O.2       1 <0>        -0.4484
     23 C18         1.2712  -10.3355    2.5052 C.ar      1 <0>        -0.1962
     24 C19         1.9272  -11.2044    1.6259 C.ar      1 <0>        -0.0430
     25 C20         1.8634  -12.5650    1.8315 C.ar      1 <0>        -0.1669
     26 C21         1.1505  -13.0743    2.9070 C.ar      1 <0>         0.1434
     27 C22         0.4980  -12.2186    3.7823 C.ar      1 <0>        -0.1651
     28 C23         0.5590  -10.8557    3.5917 C.ar      1 <0>        -0.0262
     29 F1          1.0910  -14.4098    3.1025 F         1 <0>        -0.1261
     30 H1         -0.9598    1.9046    0.0260 H         1 <0>         0.1276
     31 H2          1.1513    3.1692    0.0077 H         1 <0>         0.1312
     32 H3          3.3034    1.9757   -0.0192 H         1 <0>         0.1257
     33 H4          1.2204   -1.7597   -0.0193 H         1 <0>         0.1144
     34 H5         -0.9261   -0.5561    0.0079 H         1 <0>         0.1276
     35 H6          5.0901    0.5643   -0.9265 H         1 <0>         0.0880
     36 H7          5.1025    0.5473    0.8564 H         1 <0>         0.0877
     37 H8          6.9016   -1.0295   -0.0627 H         1 <0>         0.4365
     38 H9          2.1214   -2.4613   -1.3183 H         1 <0>         0.1096
     39 H10         3.6706   -2.3147   -2.1843 H         1 <0>         0.1192
     40 H11         2.8858   -4.6710   -2.1397 H         1 <0>         0.1383
     41 H12         4.4090   -4.4817   -1.2391 H         1 <0>         0.1470
     42 H13         2.9238   -4.6937    2.0361 H         1 <0>         0.1399
     43 H14         4.4303   -4.4946    1.1101 H         1 <0>         0.1471
     44 H15         3.7099   -2.3380    2.0921 H         1 <0>         0.1189
     45 H16         2.1450   -2.4752    1.2532 H         1 <0>         0.1098
     46 H17         2.3668   -6.6175   -0.9870 H         1 <0>         0.1347
     47 H18         3.8354   -6.5348    0.0153 H         1 <0>         0.1347
     48 H19         2.4346   -6.4145    2.0578 H         1 <0>         0.0947
     49 H20         0.9660   -6.4972    1.0555 H         1 <0>         0.0950
     50 H21         1.6793   -8.7098    0.1928 H         1 <0>         0.1132
     51 H22         3.1479   -8.6271    1.1951 H         1 <0>         0.1132
     52 H23         2.4820  -10.8091    0.7879 H         1 <0>         0.1415
     53 H24         2.3692  -13.2366    1.1537 H         1 <0>         0.1468
     54 H25        -0.0554  -12.6215    4.6177 H         1 <0>         0.1475
     55 H26         0.0543  -10.1903    4.2765 H         1 <0>         0.1457
     56 H27         1.7315   -4.4913   -0.0400 H         1 <0>         0.4195
@<TRIPOS>BOND
     1    1    6 ar
     2    1    2 ar
     3    1   30 1
     4    2    3 ar
     5    2   31 1
     6    3    4 ar
     7    3   32 1
     8    4    5 ar
     9    4    7 1
    10    5    6 ar
    11    5   33 1
    12    6   34 1
    13    7   12 1
    14    7    8 1
    15    8    9 1
    16    8   35 1
    17    8   36 1
    18    9   10 am
    19    9   37 1
    20   10   11 2
    21   10   12 1
    22   12   17 1
    23   12   13 1
    24   13   14 1
    25   13   38 1
    26   13   39 1
    27   14   15 1
    28   14   40 1
    29   14   41 1
    30   15   16 1
    31   15   18 1
    32   15   56 1
    33   16   17 1
    34   16   42 1
    35   16   43 1
    36   17   44 1
    37   17   45 1
    38   18   19 1
    39   18   46 1
    40   18   47 1
    41   19   20 1
    42   19   48 1
    43   19   49 1
    44   20   21 1
    45   20   50 1
    46   20   51 1
    47   21   22 2
    48   21   23 1
    49   23   28 ar
    50   23   24 ar
    51   24   25 ar
    52   24   52 1
    53   25   26 ar
    54   25   53 1
    55   26   27 ar
    56   26   29 1
    57   27   28 ar
    58   27   54 1
    59   28   55 1
@<TRIPOS>MOLECULE
ZINC03870313
   44    45     0     0     0
SMALL
USER_CHARGES

@<TRIPOS>ATOM
      1 C1          1.4413   -2.5874   -2.4342 C.3       1 <0>        -0.1558
      2 C2          0.7544   -2.1400   -1.1423 C.3       1 <0>        -0.1491
      3 C3         -0.7443   -2.4339   -1.2335 C.3       1 <0>        -0.0201
      4 N1         -1.4039   -2.0044    0.0068 N.4       1 <0>        -0.3818
      5 C4         -1.3254   -0.5420    0.1221 C.3       1 <0>        -0.0189
      6 C5         -1.8949   -0.1056    1.4734 C.3       1 <0>        -0.1495
      7 C6         -1.6913    1.4004    1.6503 C.3       1 <0>        -0.1554
      8 C7         -2.8130   -2.4186   -0.0191 C.3       1 <0>         0.0212
      9 H1         -3.3345   -1.9999    0.8417 H         1 <0>         0.1439
     10 C8         -3.4725   -1.9253   -1.3124 C.3       1 <0>        -0.1372
     11 C9         -4.9780   -2.1583   -1.2047 C.3       1 <0>        -0.0775
     12 C10        -5.2664   -3.5813   -0.8033 C.ar      1 <0>        -0.0684
     13 C11        -6.5491   -4.0680   -1.0239 C.ar      1 <0>        -0.1225
     14 C12        -6.8811   -5.3604   -0.6738 C.ar      1 <0>        -0.0878
     15 C13        -5.9313   -6.1820   -0.0976 C.ar      1 <0>        -0.1384
     16 C14        -4.6513   -5.7025    0.1215 C.ar      1 <0>         0.1150
     17 C15        -4.3156   -4.3974   -0.2354 C.ar      1 <0>        -0.1164
     18 C16        -2.9018   -3.9428    0.0171 C.3       1 <0>        -0.0892
     19 O1         -3.7160   -6.5091    0.6885 O.3       1 <0>        -0.4966
     20 H2          2.5091   -2.3780   -2.3693 H         1 <0>         0.0777
     21 H3          1.2888   -3.6574   -2.5750 H         1 <0>         0.0667
     22 H4          1.0155   -2.0454   -3.2786 H         1 <0>         0.0666
     23 H5          1.1802   -2.6819   -0.2979 H         1 <0>         0.0859
     24 H6          0.9069   -1.0699   -1.0015 H         1 <0>         0.0859
     25 H7         -1.1702   -1.8919   -2.0779 H         1 <0>         0.1316
     26 H8         -0.8968   -3.5039   -1.3743 H         1 <0>         0.1312
     27 H9         -0.2845   -0.2270    0.0477 H         1 <0>         0.1340
     28 H10        -1.9022   -0.0828   -0.6807 H         1 <0>         0.1313
     29 H11        -2.9599   -0.3350    1.5100 H         1 <0>         0.0855
     30 H12        -1.3808   -0.6382    2.2735 H         1 <0>         0.0852
     31 H13        -2.2054    1.9330    0.8503 H         1 <0>         0.0669
     32 H14        -2.0971    1.7113    2.6130 H         1 <0>         0.0774
     33 H15        -0.6264    1.6298    1.6137 H         1 <0>         0.0669
     34 H16        -3.2741   -0.8615   -1.4430 H         1 <0>         0.0923
     35 H17        -3.0749   -2.4804   -2.1620 H         1 <0>         0.0927
     36 H18        -5.3938   -1.4827   -0.4571 H         1 <0>         0.0903
     37 H19        -5.4430   -1.9557   -2.1695 H         1 <0>         0.0990
     38 H20        -7.2937   -3.4279   -1.4736 H         1 <0>         0.1316
     39 H21        -7.8809   -5.7290   -0.8494 H         1 <0>         0.1360
     40 H22        -6.1865   -7.1938    0.1811 H         1 <0>         0.1370
     41 H23        -2.2487   -4.3592   -0.7498 H         1 <0>         0.0928
     42 H24        -2.5786   -4.2985    0.9954 H         1 <0>         0.1031
     43 H25        -3.2026   -7.0244    0.0514 H         1 <0>         0.3942
     44 H26        -0.9429   -2.4293    0.7974 H         1 <0>         0.4229
@<TRIPOS>BOND
     1    1    2 1
     2    1   20 1
     3    1   21 1
     4    1   22 1
     5    2    3 1
     6    2   23 1
     7    2   24 1
     8    3    4 1
     9    3   25 1
    10    3   26 1
    11    4    5 1
    12    4    8 1
    13    4   44 1
    14    5    6 1
    15    5   27 1
    16    5   28 1
    17    6    7 1
    18    6   29 1
    19    6   30 1
    20    7   31 1
    21    7   32 1
    22    7   33 1
    23    8    9 1
    24    8   18 1
    25    8   10 1
    26   10   11 1
    27   10   34 1
    28   10   35 1
    29   11   12 1
    30   11   36 1
    31   11   37 1
    32   12   17 ar
    33   12   13 ar
    34   13   14 ar
    35   13   38 1
    36   14   15 ar
    37   14   39 1
    38   15   16 ar
    39   15   40 1
    40   16   17 ar
    41   16   19 1
    42   17   18 1
    43   18   41 1
    44   18   42 1
    45   19   43 1
@<TRIPOS>MOLECULE
ZINC02009671
   53    55     0     0     0
SMALL
USER_CHARGES

@<TRIPOS>ATOM
      1 C1         -0.0173    1.4248    0.0099 C.3       1 <0>         0.0229
      2 O1          0.0021   -0.0041    0.0020 O.3       1 <0>        -0.3112
      3 C2         -1.2013   -0.6380    0.0101 C.ar      1 <0>         0.1290
      4 C3         -2.3740    0.0989    0.0195 C.ar      1 <0>        -0.2023
      5 C4         -3.5967   -0.5469    0.0283 C.ar      1 <0>        -0.0670
      6 C5         -3.6532   -1.9283    0.0271 C.ar      1 <0>        -0.1490
      7 C6         -2.4875   -2.6710    0.0173 C.ar      1 <0>        -0.0821
      8 C7         -1.2572   -2.0300    0.0032 C.ar      1 <0>         0.1089
      9 N1         -0.0754   -2.7797   -0.0127 N.pl3     1 <0>        -0.6636
     10 C8          0.5725   -3.1969    1.2404 C.3       1 <0>         0.1220
     11 C9          0.8530   -4.7014    1.1647 C.3       1 <0>        -0.0222
     12 N2          1.6309   -4.9929   -0.0461 N.4       1 <0>        -0.3803
     13 C10         0.8351   -4.6789   -1.2395 C.3       1 <0>        -0.0275
     14 C11         0.5506   -3.1781   -1.2829 C.3       1 <0>         0.1222
     15 C12         1.9935   -6.4164   -0.0621 C.3       1 <0>        -0.0082
     16 C13         2.9078   -6.6964   -1.2565 C.3       1 <0>        -0.1449
     17 C14         3.2853   -8.1790   -1.2732 C.3       1 <0>        -0.1329
     18 C15         4.1996   -8.4590   -2.4676 C.3       1 <0>         0.0976
     19 N3          4.5612   -9.8786   -2.4836 N.am      1 <0>        -0.5780
     20 C16         5.6377  -10.3592   -1.8493 C.2       1 <0>         0.5272
     21 O2          6.4236   -9.7009   -1.2022 O.2       1 <0>        -0.4778
     22 C17         5.7180  -11.8543   -2.0677 C.3       1 <0>        -0.1592
     23 C18         4.4881  -12.1577   -2.9475 C.3       1 <0>        -0.1592
     24 C19         3.8391  -10.8029   -3.1290 C.2       1 <0>         0.5274
     25 O3          2.8272  -10.5880   -3.7610 O.2       1 <0>        -0.4782
     26 H1          1.0053    1.8021    0.0021 H         1 <0>         0.1035
     27 H2         -0.5445    1.7859   -0.8732 H         1 <0>         0.0588
     28 H3         -0.5275    1.7763    0.9067 H         1 <0>         0.0589
     29 H4         -2.3335    1.1781    0.0204 H         1 <0>         0.1341
     30 H5         -4.5101    0.0293    0.0363 H         1 <0>         0.1320
     31 H6         -4.6104   -2.4284    0.0343 H         1 <0>         0.1306
     32 H7         -2.5344   -3.7500    0.0168 H         1 <0>         0.1264
     33 H8          1.5101   -2.6554    1.3659 H         1 <0>         0.0779
     34 H9         -0.0891   -2.9896    2.0815 H         1 <0>         0.1140
     35 H10         1.4191   -5.0102    2.0435 H         1 <0>         0.1358
     36 H11        -0.0906   -5.2458    1.1302 H         1 <0>         0.1295
     37 H12         1.3880   -4.9711   -2.1323 H         1 <0>         0.1371
     38 H13        -0.1080   -5.2240   -1.2012 H         1 <0>         0.1300
     39 H14        -0.1254   -2.9583   -2.1092 H         1 <0>         0.1138
     40 H15         1.4860   -2.6346   -1.4165 H         1 <0>         0.0772
     41 H16         2.5145   -6.6690    0.8613 H         1 <0>         0.1318
     42 H17         1.0901   -7.0204   -0.1466 H         1 <0>         0.1294
     43 H18         2.3868   -6.4437   -2.1800 H         1 <0>         0.0916
     44 H19         3.8111   -6.0923   -1.1721 H         1 <0>         0.0923
     45 H20         3.8063   -8.4316   -0.3497 H         1 <0>         0.0812
     46 H21         2.3820   -8.7830   -1.3577 H         1 <0>         0.0806
     47 H22         3.6786   -8.2063   -3.3911 H         1 <0>         0.0975
     48 H23         5.1030   -7.8549   -2.3831 H         1 <0>         0.0978
     49 H24         6.6377  -12.1169   -2.5904 H         1 <0>         0.1262
     50 H25         5.6505  -12.3849   -1.1179 H         1 <0>         0.1250
     51 H26         4.7960  -12.5711   -3.9079 H         1 <0>         0.1265
     52 H27         3.8088  -12.8391   -2.4354 H         1 <0>         0.1246
     53 H28         2.4712   -4.4343   -0.0471 H         1 <0>         0.4224
@<TRIPOS>BOND
     1    1    2 1
     2    1   26 1
     3    1   27 1
     4    1   28 1
     5    2    3 1
     6    3    8 ar
     7    3    4 ar
     8    4    5 ar
     9    4   29 1
    10    5    6 ar
    11    5   30 1
    12    6    7 ar
    13    6   31 1
    14    7    8 ar
    15    7   32 1
    16    8    9 1
    17    9   14 1
    18    9   10 1
    19   10   11 1
    20   10   33 1
    21   10   34 1
    22   11   12 1
    23   11   35 1
    24   11   36 1
    25   12   13 1
    26   12   15 1
    27   12   53 1
    28   13   14 1
    29   13   37 1
    30   13   38 1
    31   14   39 1
    32   14   40 1
    33   15   16 1
    34   15   41 1
    35   15   42 1
    36   16   17 1
    37   16   43 1
    38   16   44 1
    39   17   18 1
    40   17   45 1
    41   17   46 1
    42   18   19 1
    43   18   47 1
    44   18   48 1
    45   19   24 am
    46   19   20 am
    47   20   21 2
    48   20   22 1
    49   22   23 1
    50   22   49 1
    51   22   50 1
    52   23   24 1
    53   23   51 1
    54   23   52 1
    55   24   25 2
@<TRIPOS>MOLECULE
ZINC02009671
   52    54     0     0     0
SMALL
USER_CHARGES

@<TRIPOS>ATOM
      1 C1         -0.0173    1.4248    0.0099 C.3       1 <0>         0.0251
      2 O1          0.0021   -0.0041    0.0020 O.3       1 <0>        -0.3040
      3 C2         -1.2013   -0.6380    0.0101 C.ar      1 <0>         0.1197
      4 C3         -2.3740    0.0989    0.0195 C.ar      1 <0>        -0.2065
      5 C4         -3.5967   -0.5469    0.0283 C.ar      1 <0>        -0.0837
      6 C5         -3.6532   -1.9283    0.0271 C.ar      1 <0>        -0.1522
      7 C6         -2.4875   -2.6710    0.0173 C.ar      1 <0>        -0.0882
      8 C7         -1.2572   -2.0300    0.0032 C.ar      1 <0>         0.1391
      9 N1         -0.0754   -2.7797   -0.0127 N.pl3     1 <0>        -0.6684
     10 C8          0.5713   -3.1961    1.2410 C.3       1 <0>         0.1535
     11 C9          0.8354   -4.7041    1.1750 C.3       1 <0>         0.0413
     12 N2          1.5913   -5.0126   -0.0462 N.3       1 <0>        -0.5344
     13 C10         0.8175   -4.6811   -1.2500 C.3       1 <0>         0.0377
     14 C11         0.5494   -3.1773   -1.2834 C.3       1 <0>         0.1533
     15 C12         2.0135   -6.4196   -0.0626 C.3       1 <0>         0.0575
     16 C13         2.9994   -6.6428   -1.2111 C.3       1 <0>        -0.1118
     17 C14         3.4391   -8.1081   -1.2283 C.3       1 <0>        -0.1320
     18 C15         4.4250   -8.3314   -2.3768 C.3       1 <0>         0.0984
     19 N3          4.8460   -9.7345   -2.3932 N.am      1 <0>        -0.5753
     20 C16         5.9074  -10.1804   -1.7100 C.2       1 <0>         0.5249
     21 O2          6.6304   -9.5008   -1.0136 O.2       1 <0>        -0.4782
     22 C17         6.0614  -11.6674   -1.9443 C.3       1 <0>        -0.1582
     23 C18         4.8925  -12.0070   -2.8914 C.3       1 <0>        -0.1583
     24 C19         4.1977  -10.6773   -3.0882 C.2       1 <0>         0.5251
     25 O3          3.2118  -10.4943   -3.7694 O.2       1 <0>        -0.4797
     26 H1          1.0053    1.8021    0.0021 H         1 <0>         0.0992
     27 H2         -0.5445    1.7859   -0.8732 H         1 <0>         0.0536
     28 H3         -0.5275    1.7763    0.9067 H         1 <0>         0.0537
     29 H4         -2.3335    1.1781    0.0204 H         1 <0>         0.1276
     30 H5         -4.5101    0.0293    0.0363 H         1 <0>         0.1245
     31 H6         -4.6104   -2.4284    0.0343 H         1 <0>         0.1238
     32 H7         -2.5344   -3.7500    0.0168 H         1 <0>         0.1249
     33 H8          1.5150   -2.6639    1.3604 H         1 <0>         0.0582
     34 H9         -0.0855   -2.9758    2.0825 H         1 <0>         0.0691
     35 H10         1.4125   -5.0108    2.0473 H         1 <0>         0.0794
     36 H11        -0.1140   -5.2393    1.1600 H         1 <0>         0.0340
     37 H12         1.3817   -4.9710   -2.1364 H         1 <0>         0.0827
     38 H13        -0.1317   -5.2166   -1.2312 H         1 <0>         0.0336
     39 H14        -0.1219   -2.9447   -2.1101 H         1 <0>         0.0686
     40 H15         1.4910   -2.6433   -1.4113 H         1 <0>         0.0575
     41 H16         2.4960   -6.6652    0.8834 H         1 <0>         0.0748
     42 H17         1.1418   -7.0588   -0.2026 H         1 <0>         0.0323
     43 H18         2.5169   -6.3971   -2.1571 H         1 <0>         0.0667
     44 H19         3.8711   -6.0035   -1.0711 H         1 <0>         0.0767
     45 H20         3.9216   -8.3538   -0.2823 H         1 <0>         0.0697
     46 H21         2.5674   -8.7474   -1.3683 H         1 <0>         0.0670
     47 H22         3.9425   -8.0857   -3.3228 H         1 <0>         0.0939
     48 H23         5.2967   -7.6921   -2.2368 H         1 <0>         0.0954
     49 H24         7.0172  -11.8836   -2.4216 H         1 <0>         0.1223
     50 H25         5.9670  -12.2153   -1.0067 H         1 <0>         0.1219
     51 H26         5.2669  -12.3922   -3.8399 H         1 <0>         0.1225
     52 H27         4.2167  -12.7238   -2.4251 H         1 <0>         0.1214
@<TRIPOS>BOND
     1    1    2 1
     2    1   26 1
     3    1   27 1
     4    1   28 1
     5    2    3 1
     6    3    8 ar
     7    3    4 ar
     8    4    5 ar
     9    4   29 1
    10    5    6 ar
    11    5   30 1
    12    6    7 ar
    13    6   31 1
    14    7    8 ar
    15    7   32 1
    16    8    9 1
    17    9   14 1
    18    9   10 1
    19   10   11 1
    20   10   33 1
    21   10   34 1
    22   11   12 1
    23   11   35 1
    24   11   36 1
    25   12   13 1
    26   12   15 1
    27   13   14 1
    28   13   37 1
    29   13   38 1
    30   14   39 1
    31   14   40 1
    32   15   16 1
    33   15   41 1
    34   15   42 1
    35   16   17 1
    36   16   43 1
    37   16   44 1
    38   17   18 1
    39   17   45 1
    40   17   46 1
    41   18   19 1
    42   18   47 1
    43   18   48 1
    44   19   24 am
    45   19   20 am
    46   20   21 2
    47   20   22 1
    48   22   23 1
    49   22   49 1
    50   22   50 1
    51   23   24 1
    52   23   51 1
    53   23   52 1
    54   24   25 2
@<TRIPOS>MOLECULE
ZINC02386800
   36    39     0     0     0
SMALL
USER_CHARGES
methylBLAH
@<TRIPOS>ATOM
      1 C1          2.3217    4.2460   -0.6219 C.3       1 <0>        -0.0472
      2 C2          0.0539    4.2132    0.2144 C.3       1 <0>         0.0009
      3 C3         -1.3095    3.5580    0.0681 C.3       1 <0>        -0.1073
      4 C4         -1.2221    2.0587    0.0345 C.ar      1 <0>        -0.0814
      5 C5         -2.4073    1.3329    0.0425 C.ar      1 <0>        -0.1080
      6 C6         -2.3921   -0.0472    0.0396 C.ar      1 <0>        -0.0852
      7 C7         -1.1885   -0.7233    0.0228 C.ar      1 <0>        -0.0994
      8 C8          0.0021   -0.0041    0.0020 C.ar      1 <0>        -0.0064
      9 C9         -0.0169    1.3918    0.0097 C.ar      1 <0>        -0.1270
     10 C10         1.2865    2.1466    0.0013 C.3       1 <0>         0.0951
     11 H1          1.6540    2.2442    1.0228 H         1 <0>         0.1459
     12 C11         2.3313    1.4237   -0.8454 C.3       1 <0>        -0.0944
     13 C12         2.4427   -0.0199   -0.4368 C.ar      1 <0>        -0.0840
     14 C13         1.3022   -0.7151   -0.0425 C.ar      1 <0>        -0.0580
     15 C14         1.3911   -2.0593    0.3058 C.ar      1 <0>        -0.0947
     16 C15         2.6164   -2.6952    0.2700 C.ar      1 <0>        -0.1058
     17 C16         3.7496   -1.9975   -0.1081 C.ar      1 <0>        -0.1018
     18 C17         3.6637   -0.6624   -0.4604 C.ar      1 <0>        -0.1050
     19 H2          3.0332    3.7165   -1.2556 H         1 <0>         0.1250
     20 H3          2.1290    5.2344   -1.0390 H         1 <0>         0.1270
     21 H4          2.7353    4.3493    0.3813 H         1 <0>         0.1258
     22 H5          0.3395    4.2156    1.2663 H         1 <0>         0.1312
     23 H6         -0.0025    5.2409   -0.1442 H         1 <0>         0.1377
     24 H7         -1.9369    3.8565    0.9080 H         1 <0>         0.1229
     25 H8         -1.7703    3.9043   -0.8570 H         1 <0>         0.1047
     26 H9         -3.3524    1.8555    0.0513 H         1 <0>         0.1364
     27 H10        -3.3211   -0.5979    0.0503 H         1 <0>         0.1404
     28 H11        -1.1714   -1.8031    0.0253 H         1 <0>         0.1397
     29 H12         3.2983    1.9094   -0.7140 H         1 <0>         0.1051
     30 H13         2.0421    1.4783   -1.8949 H         1 <0>         0.0981
     31 H14         0.5061   -2.6028    0.6022 H         1 <0>         0.1328
     32 H15         2.6903   -3.7388    0.5381 H         1 <0>         0.1349
     33 H16         4.7066   -2.4977   -0.1280 H         1 <0>         0.1339
     34 H17         4.5523   -0.1229   -0.7535 H         1 <0>         0.1314
     35 N1          1.0546    3.4844   -0.5829 N.4       1 <0>        -0.3931
     36 H18         0.7022    3.3739   -1.5410 H         1 <0>         0.4299
@<TRIPOS>BOND
     1    1   19 1
     2    1   20 1
     3    1   21 1
     4    1   35 1
     5    2    3 1
     6    2   22 1
     7    2   23 1
     8    2   35 1
     9    3    4 1
    10    3   24 1
    11    3   25 1
    12    4    9 ar
    13    4    5 ar
    14    5    6 ar
    15    5   26 1
    16    6    7 ar
    17    6   27 1
    18    7    8 ar
    19    7   28 1
    20    8   14 1
    21    8    9 ar
    22    9   10 1
    23   10   11 1
    24   10   12 1
    25   10   35 1
    26   12   13 1
    27   12   29 1
    28   12   30 1
    29   13   18 ar
    30   13   14 ar
    31   14   15 ar
    32   15   16 ar
    33   15   31 1
    34   16   17 ar
    35   16   32 1
    36   17   18 ar
    37   17   33 1
    38   18   34 1
    39   35   36 1
@<TRIPOS>MOLECULE
ZINC03982174
   53    55     0     0     0
SMALL
USER_CHARGES

@<TRIPOS>ATOM
      1 C1          2.1158    1.7135    3.3059 C.3       1 <0>        -0.1544
      2 C2          2.1509    0.1993    3.5221 C.3       1 <0>        -0.1038
      3 C3          2.7723   -0.4786    2.2975 C.3       1 <0>        -0.1441
      4 C4          2.7317   -1.9966    2.4861 C.3       1 <0>        -0.0059
      5 N1          1.3399   -2.4374    2.6376 N.4       1 <0>        -0.3834
      6 C5          0.7597   -1.8475    3.8500 C.3       1 <0>        -0.0118
      7 C6          0.7244   -0.3238    3.7139 C.3       1 <0>        -0.1441
      8 C7          1.3001   -3.9023    2.7402 C.3       1 <0>        -0.0045
      9 C8         -0.1556   -4.3720    2.7727 C.3       1 <0>        -0.1908
     10 C9         -0.1990   -5.9010    2.7415 C.3       1 <0>         0.1608
     11 H1          0.3544   -6.2698    1.8778 H         1 <0>         0.0878
     12 C10         0.4129   -6.4701    4.0389 C.3       1 <0>        -0.1316
     13 C11        -0.5015   -7.6840    4.3511 C.3       1 <0>        -0.1316
     14 C12        -1.8825   -7.1619    3.8821 C.3       1 <0>         0.1163
     15 N2         -1.5940   -6.3604    2.6749 N.pl3     1 <0>        -1.0081
     16 S1         -2.6611   -6.0315    1.4520 S.o2      1 <0>         2.7082
     17 O1         -3.9563   -6.0165    2.0363 O.2       1 <0>        -0.9386
     18 O2         -2.1335   -4.9204    0.7405 O.2       1 <0>        -0.9565
     19 C13        -2.6238   -7.4020    0.3453 C.ar      1 <0>        -0.6657
     20 C14        -1.7285   -7.4147   -0.7086 C.ar      1 <0>        -0.0333
     21 C15        -1.6967   -8.4885   -1.5787 C.ar      1 <0>        -0.1193
     22 C16        -2.5601   -9.5518   -1.3975 C.ar      1 <0>        -0.0847
     23 C17        -3.4591   -9.5415   -0.3411 C.ar      1 <0>         0.0957
     24 C18        -3.4848   -8.4653    0.5344 C.ar      1 <0>        -0.0487
     25 O3         -4.3093  -10.5862   -0.1607 O.3       1 <0>        -0.4910
     26 H2          1.6670    2.1943    4.1751 H         1 <0>         0.0672
     27 H3          3.1316    2.0847    3.1695 H         1 <0>         0.0671
     28 H4          1.5240    1.9403    2.4191 H         1 <0>         0.0622
     29 H5          2.7449   -0.0289    4.4070 H         1 <0>         0.0881
     30 H6          2.2074   -0.2074    1.4056 H         1 <0>         0.0888
     31 H7          3.8066   -0.1531    2.1870 H         1 <0>         0.1123
     32 H8          3.1735   -2.4823    1.6160 H         1 <0>         0.1306
     33 H9          3.2970   -2.2667    3.3780 H         1 <0>         0.1283
     34 H10        -0.2543   -2.2232    3.9869 H         1 <0>         0.1308
     35 H11         1.3671   -2.1208    4.7129 H         1 <0>         0.1289
     36 H12         0.2950    0.1123    4.6158 H         1 <0>         0.1120
     37 H13         0.1171   -0.0494    2.8514 H         1 <0>         0.0890
     38 H14         1.8042   -4.3406    1.8789 H         1 <0>         0.1338
     39 H15         1.8037   -4.2162    3.6545 H         1 <0>         0.1320
     40 H16        -0.6327   -4.0135    3.6849 H         1 <0>         0.0958
     41 H17        -0.6847   -3.9757    1.9061 H         1 <0>         0.1165
     42 H18         1.4400   -6.7940    3.8711 H         1 <0>         0.0885
     43 H19         0.3656   -5.7350    4.8423 H         1 <0>         0.0812
     44 H20        -0.1989   -8.5592    3.7761 H         1 <0>         0.0818
     45 H21        -0.5088   -7.9034    5.4187 H         1 <0>         0.0920
     46 H22        -2.5391   -7.9958    3.6341 H         1 <0>         0.0819
     47 H23        -2.3344   -6.5386    4.6537 H         1 <0>         0.0804
     48 H24        -1.0533   -6.5842   -0.8524 H         1 <0>         0.1402
     49 H25        -0.9966   -8.4961   -2.4010 H         1 <0>         0.1414
     50 H26        -2.5354  -10.3902   -2.0779 H         1 <0>         0.1428
     51 H27        -4.1805   -8.4571    1.3604 H         1 <0>         0.1470
     52 H28        -3.9569  -11.2870    0.4047 H         1 <0>         0.3975
     53 H29         0.8058   -2.1440    1.8333 H         1 <0>         0.4248
@<TRIPOS>BOND
     1    1    2 1
     2    1   26 1
     3    1   27 1
     4    1   28 1
     5    2    7 1
     6    2    3 1
     7    2   29 1
     8    3    4 1
     9    3   30 1
    10    3   31 1
    11    4    5 1
    12    4   32 1
    13    4   33 1
    14    5    6 1
    15    5    8 1
    16    5   53 1
    17    6    7 1
    18    6   34 1
    19    6   35 1
    20    7   36 1
    21    7   37 1
    22    8    9 1
    23    8   38 1
    24    8   39 1
    25    9   10 1
    26    9   40 1
    27    9   41 1
    28   10   11 1
    29   10   15 1
    30   10   12 1
    31   12   13 1
    32   12   42 1
    33   12   43 1
    34   13   14 1
    35   13   44 1
    36   13   45 1
    37   14   15 1
    38   14   46 1
    39   14   47 1
    40   15   16 1
    41   16   17 2
    42   16   18 2
    43   16   19 1
    44   19   24 ar
    45   19   20 ar
    46   20   21 ar
    47   20   48 1
    48   21   22 ar
    49   21   49 1
    50   22   23 ar
    51   22   50 1
    52   23   24 ar
    53   23   25 1
    54   24   51 1
    55   25   52 1
@<TRIPOS>MOLECULE
ZINC03778441
   61    63     0     0     0
SMALL
USER_CHARGES
diethylsulfamoylamino-hydroxy-propyl-BLAH
@<TRIPOS>ATOM
      1 C1         -2.0685    7.1638    0.7922 C.3       1 <0>        -0.1551
      2 C2         -1.8026    5.6616    0.9081 C.3       1 <0>        -0.1549
      3 C3         -1.1393    5.1605   -0.3764 C.3       1 <0>        -0.0121
      4 C4         -0.3471    3.2955    0.9446 C.3       1 <0>        -0.0295
      5 C5         -0.3749    1.7671    1.0422 C.3       1 <0>         0.1369
      6 H1          0.0903    1.4532    1.9766 H         1 <0>         0.1305
      7 C6          0.4035    1.1863   -0.1387 C.3       1 <0>        -0.1381
      8 C7         -0.2182    1.6622   -1.4560 C.3       1 <0>        -0.1001
      9 H2         -1.2246    1.2570   -1.5610 H         1 <0>         0.0995
     10 C8         -0.2642    3.1940   -1.4868 C.3       1 <0>         0.0372
     11 H3          0.7486    3.5960   -1.5142 H         1 <0>         0.1504
     12 C9         -1.0337    3.6298   -2.7371 C.3       1 <0>        -0.0983
     13 C10        -0.5007    2.9491   -3.9676 C.ar      1 <0>        -0.0754
     14 C11        -0.8184    3.4998   -5.2033 C.ar      1 <0>        -0.1195
     15 C12        -0.3663    2.9186   -6.3699 C.ar      1 <0>        -0.0934
     16 C13         0.4092    1.7765   -6.3127 C.ar      1 <0>        -0.1322
     17 C14         0.7302    1.2256   -5.0841 C.ar      1 <0>         0.1143
     18 C15         0.2766    1.8161   -3.9055 C.ar      1 <0>        -0.1095
     19 C16         0.6765    1.1819   -2.6021 C.3       1 <0>        -0.0627
     20 O1          1.4929    0.1023   -5.0263 O.3       1 <0>        -0.4941
     21 N1         -1.7610    1.2952    0.9969 N.pl3     1 <0>        -1.1398
     22 S1         -2.5673    0.9583    2.4036 S.o2      1 <0>         2.7747
     23 O2         -2.3657    2.0712    3.2639 O.2       1 <0>        -0.9651
     24 O3         -3.8627    0.5080    2.0314 O.2       1 <0>        -0.9588
     25 N2         -1.8031   -0.3301    3.1095 N.pl3     1 <0>        -0.9984
     26 C17        -0.7862   -0.1041    4.1396 C.3       1 <0>         0.1173
     27 C18        -1.4325   -0.1971    5.5233 C.3       1 <0>        -0.1777
     28 C19        -2.1439   -1.6960    2.7038 C.3       1 <0>         0.1060
     29 C20        -1.1326   -2.1871    1.6660 C.3       1 <0>        -0.1734
     30 H4         -1.1254    7.6892    0.6414 H         1 <0>         0.0674
     31 H5         -2.7285    7.3517   -0.0547 H         1 <0>         0.0662
     32 H6         -2.5411    7.5208    1.7072 H         1 <0>         0.0781
     33 H7         -2.7457    5.1363    1.0588 H         1 <0>         0.0845
     34 H8         -1.1427    5.4737    1.7550 H         1 <0>         0.0914
     35 H9         -0.1588    5.6244   -0.4838 H         1 <0>         0.1353
     36 H10        -1.7610    5.4225   -1.2325 H         1 <0>         0.1302
     37 H11         0.6853    3.6448    0.9583 H         1 <0>         0.1472
     38 H12        -0.8895    3.7267    1.7860 H         1 <0>         0.1468
     39 H13         0.3691    0.0977   -0.0947 H         1 <0>         0.1064
     40 H14         1.4405    1.5181   -0.0871 H         1 <0>         0.1016
     41 H15        -2.0866    3.3753   -2.6156 H         1 <0>         0.0954
     42 H16        -0.9394    4.7092   -2.8566 H         1 <0>         0.1026
     43 H17        -1.4257    4.3916   -5.2509 H         1 <0>         0.1288
     44 H18        -0.6185    3.3547   -7.3252 H         1 <0>         0.1357
     45 H19         0.7631    1.3153   -7.2229 H         1 <0>         0.1369
     46 H20         1.7116    1.4422   -2.3806 H         1 <0>         0.0927
     47 H21         0.5927    0.0988   -2.6911 H         1 <0>         0.0955
     48 H22         0.9840   -0.7198   -5.0415 H         1 <0>         0.3951
     49 H23        -2.2065    1.1801    0.1430 H         1 <0>         0.4161
     50 H24        -0.0057   -0.8598    4.0516 H         1 <0>         0.0857
     51 H25        -0.3498    0.8860    4.0082 H         1 <0>         0.0790
     52 H26        -1.8689   -1.1872    5.6546 H         1 <0>         0.0642
     53 H27        -0.6759   -0.0289    6.2897 H         1 <0>         0.0745
     54 H28        -2.2130    0.5587    5.6112 H         1 <0>         0.0616
     55 H29        -2.1178   -2.3509    3.5748 H         1 <0>         0.0904
     56 H30        -3.1439   -1.7075    2.2704 H         1 <0>         0.0928
     57 H31        -1.0951   -1.4838    0.8341 H         1 <0>         0.0526
     58 H32        -0.1467   -2.2595    2.1253 H         1 <0>         0.0632
     59 H33        -1.4355   -3.1678    1.2993 H         1 <0>         0.0744
     60 N3         -1.0209    3.6917   -0.3126 N.4       1 <0>        -0.3919
     61 H34        -1.9618    3.2810   -0.3273 H         1 <0>         0.4208
@<TRIPOS>BOND
     1    1    2 1
     2    1   30 1
     3    1   31 1
     4    1   32 1
     5    2    3 1
     6    2   33 1
     7    2   34 1
     8    3   35 1
     9    3   36 1
    10    3   60 1
    11    4    5 1
    12    4   37 1
    13    4   38 1
    14    4   60 1
    15    5    6 1
    16    5    7 1
    17    5   21 1
    18    7    8 1
    19    7   39 1
    20    7   40 1
    21    8    9 1
    22    8   19 1
    23    8   10 1
    24   10   11 1
    25   10   12 1
    26   10   60 1
    27   12   13 1
    28   12   41 1
    29   12   42 1
    30   13   18 ar
    31   13   14 ar
    32   14   15 ar
    33   14   43 1
    34   15   16 ar
    35   15   44 1
    36   16   17 ar
    37   16   45 1
    38   17   18 ar
    39   17   20 1
    40   18   19 1
    41   19   46 1
    42   19   47 1
    43   20   48 1
    44   21   22 1
    45   21   49 1
    46   22   23 2
    47   22   24 2
    48   22   25 1
    49   25   26 1
    50   25   28 1
    51   26   27 1
    52   26   50 1
    53   26   51 1
    54   27   52 1
    55   27   53 1
    56   27   54 1
    57   28   29 1
    58   28   55 1
    59   28   56 1
    60   29   57 1
    61   29   58 1
    62   29   59 1
    63   60   61 1
@<TRIPOS>MOLECULE
ZINC26579568
   66    70     0     0     0
SMALL
USER_CHARGES

@<TRIPOS>ATOM
      1 C1         -1.8242    1.5605   -1.0062 C.ar      1 <0>        -0.0848
      2 C2         -1.6672    2.5831   -1.9225 C.ar      1 <0>        -0.1528
      3 C3         -0.7619    2.4482   -2.9613 C.ar      1 <0>         0.1061
      4 C4         -0.0148    1.2886   -3.0809 C.ar      1 <0>        -0.1531
      5 C5         -0.1735    0.2673   -2.1634 C.ar      1 <0>        -0.0669
      6 C6         -1.0777    0.4032   -1.1266 C.ar      1 <0>        -0.1333
      7 C7         -1.2498   -0.7112   -0.1268 C.3       1 <0>         0.1338
      8 H1         -2.2084   -0.5998    0.3801 H         1 <0>         0.0997
      9 C8         -0.1190   -0.6524    0.9021 C.3       1 <0>         0.0879
     10 O1          1.1406   -0.6995    0.2289 O.3       1 <0>        -0.5696
     11 N1         -1.2115   -2.0041   -0.8231 N.3       1 <0>        -0.6677
     12 C9         -2.5265   -2.3378   -1.3865 C.3       1 <0>         0.0716
     13 C10        -3.3705   -3.0534   -0.3279 C.3       1 <0>        -0.1379
     14 C11        -4.7079   -3.4684   -0.9448 C.3       1 <0>        -0.0055
     15 N2         -4.4694   -4.3729   -2.0759 N.4       1 <0>        -0.3830
     16 C12        -3.7220   -3.6707   -3.1261 C.3       1 <0>        -0.0059
     17 C13        -2.3467   -3.2635   -2.5932 C.3       1 <0>        -0.1513
     18 C14        -5.7571   -4.8299   -2.6155 C.3       1 <0>        -0.0120
     19 C15        -5.5109   -5.8679   -3.7123 C.3       1 <0>        -0.1452
     20 C16        -6.8520   -6.3438   -4.2743 C.3       1 <0>        -0.0354
     21 C17        -6.6096   -7.3662   -5.3546 C.2       1 <0>        -0.1893
     22 C18        -6.5383   -7.1316   -6.6743 C.2       1 <0>         0.0805
     23 N3         -6.3067   -8.3016   -7.3445 N.pl3     1 <0>        -0.5872
     24 H2         -6.2157   -8.3841   -8.3067 H         1 <0>         0.4245
     25 C19        -6.2210   -9.3455   -6.4487 C.ar      1 <0>         0.0944
     26 C20        -6.4007   -8.8036   -5.1629 C.ar      1 <0>        -0.0775
     27 C21        -6.3578   -9.6352   -4.0428 C.ar      1 <0>        -0.0861
     28 C22        -6.1346  -10.9892   -4.2060 C.ar      1 <0>         0.1125
     29 C23        -5.9529  -11.5219   -5.4806 C.ar      1 <0>        -0.1059
     30 C24        -6.0027  -10.7117   -6.5926 C.ar      1 <0>        -0.0904
     31 N4         -6.0903  -11.8311   -3.0833 N.pl3     1 <0>        -0.4277
     32 C25        -6.2530  -11.4713   -1.7793 C.2       1 <0>         0.1516
     33 N5         -6.1372  -12.5558   -1.0619 N.2       1 <0>        -0.2855
     34 N6         -5.9141  -13.5643   -1.8270 N.2       1 <0>        -0.2855
     35 C26        -5.8817  -13.1775   -3.0734 C.2       1 <0>         0.1625
     36 F1         -0.6079    3.4470   -3.8579 F         1 <0>        -0.1349
     37 H3         -2.5271    1.6674   -0.1932 H         1 <0>         0.1314
     38 H4         -2.2508    3.4870   -1.8284 H         1 <0>         0.1382
     39 H5          0.6914    1.1821   -3.8910 H         1 <0>         0.1375
     40 H6          0.4089   -0.6374   -2.2567 H         1 <0>         0.1329
     41 H7         -0.1927    0.2748    1.4704 H         1 <0>         0.0527
     42 H8         -0.2004   -1.5017    1.5804 H         1 <0>         0.0594
     43 H9          1.9045   -0.6661    0.8208 H         1 <0>         0.3864
     44 H10        -0.4999   -2.0085   -1.5385 H         1 <0>         0.3587
     45 H11        -3.0312   -1.4240   -1.7002 H         1 <0>         0.0656
     46 H12        -2.8407   -3.9392    0.0223 H         1 <0>         0.0971
     47 H13        -3.5497   -2.3804    0.5107 H         1 <0>         0.1095
     48 H14        -5.3114   -3.9780   -0.1936 H         1 <0>         0.1332
     49 H15        -5.2370   -2.5819   -1.2943 H         1 <0>         0.1271
     50 H16        -3.5977   -4.3297   -3.9854 H         1 <0>         0.1340
     51 H17        -4.2721   -2.7799   -3.4292 H         1 <0>         0.1284
     52 H18        -1.7940   -2.7407   -3.3738 H         1 <0>         0.1098
     53 H19        -1.7956   -4.1537   -2.2900 H         1 <0>         0.0984
     54 H20        -6.3472   -5.2786   -1.8164 H         1 <0>         0.1324
     55 H21        -6.2977   -3.9808   -3.0336 H         1 <0>         0.1300
     56 H22        -4.9208   -5.4192   -4.5114 H         1 <0>         0.0870
     57 H23        -4.9703   -6.7170   -3.2942 H         1 <0>         0.0872
     58 H24        -7.4421   -6.7925   -3.4752 H         1 <0>         0.0813
     59 H25        -7.3927   -5.4947   -4.6924 H         1 <0>         0.0821
     60 H26        -6.6481   -6.1626   -7.1385 H         1 <0>         0.1749
     61 H27        -6.4979   -9.2230   -3.0544 H         1 <0>         0.1299
     62 H28        -5.7787  -12.5813   -5.5978 H         1 <0>         0.1406
     63 H29        -5.8590  -11.1349   -7.5758 H         1 <0>         0.1382
     64 H30        -6.4419  -10.4747   -1.4083 H         1 <0>         0.2181
     65 H31        -5.7178  -13.8069   -3.9356 H         1 <0>         0.2235
     66 H32        -3.9369   -5.1701   -1.7613 H         1 <0>         0.4237
@<TRIPOS>BOND
     1    1    6 ar
     2    1    2 ar
     3    1   37 1
     4    2    3 ar
     5    2   38 1
     6    3    4 ar
     7    3   36 1
     8    4    5 ar
     9    4   39 1
    10    5    6 ar
    11    5   40 1
    12    6    7 1
    13    7    8 1
    14    7    9 1
    15    7   11 1
    16    9   10 1
    17    9   41 1
    18    9   42 1
    19   10   43 1
    20   11   12 1
    21   11   44 1
    22   12   17 1
    23   12   13 1
    24   12   45 1
    25   13   14 1
    26   13   46 1
    27   13   47 1
    28   14   15 1
    29   14   48 1
    30   14   49 1
    31   15   16 1
    32   15   18 1
    33   15   66 1
    34   16   17 1
    35   16   50 1
    36   16   51 1
    37   17   52 1
    38   17   53 1
    39   18   19 1
    40   18   54 1
    41   18   55 1
    42   19   20 1
    43   19   56 1
    44   19   57 1
    45   20   21 1
    46   20   58 1
    47   20   59 1
    48   21   26 1
    49   21   22 2
    50   22   23 1
    51   22   60 1
    52   23   24 1
    53   23   25 1
    54   25   30 ar
    55   25   26 ar
    56   26   27 ar
    57   27   28 ar
    58   27   61 1
    59   28   29 ar
    60   28   31 1
    61   29   30 ar
    62   29   62 1
    63   30   63 1
    64   31   35 1
    65   31   32 1
    66   32   33 2
    67   32   64 1
    68   33   34 1
    69   34   35 2
    70   35   65 1
@<TRIPOS>MOLECULE
ZINC00077360
   29    30     0     0     0
SMALL
USER_CHARGES

@<TRIPOS>ATOM
      1 C1         -0.0173    1.4248    0.0099 C.3       1 <0>         0.0260
      2 O1          0.0021   -0.0041    0.0020 O.3       1 <0>        -0.3138
      3 C2         -1.2006   -0.6377    0.0101 C.ar      1 <0>         0.1564
      4 C3         -2.3754    0.1105    0.0196 C.ar      1 <0>        -0.2121
      5 C4         -3.5918   -0.5101    0.0282 C.ar      1 <0>        -0.0422
      6 C5         -3.6602   -1.9049    0.0271 C.ar      1 <0>        -0.1363
      7 C6         -2.4782   -2.6674    0.0171 C.ar      1 <0>         0.1371
      8 C7         -1.2477   -2.0189    0.0031 C.ar      1 <0>        -0.1690
      9 N1         -2.8498   -3.9933    0.0179 N.pl3     1 <0>        -0.5876
     10 H1         -2.2357   -4.7442    0.0122 H         1 <0>         0.4244
     11 C8         -4.2157   -4.0937    0.0281 C.2       1 <0>         0.0794
     12 C9         -4.7641   -2.8690    0.0340 C.2       1 <0>        -0.1982
     13 C10        -6.2360   -2.5461    0.0463 C.3       1 <0>        -0.0616
     14 C11        -6.7186   -2.3112   -1.3864 C.3       1 <0>        -0.0083
     15 N2         -8.1535   -1.9965   -1.3744 N.4       1 <0>        -0.6389
     16 H2          1.0053    1.8021    0.0021 H         1 <0>         0.1060
     17 H3         -0.5445    1.7859   -0.8732 H         1 <0>         0.0580
     18 H4         -0.5275    1.7763    0.9067 H         1 <0>         0.0588
     19 H5         -2.3239    1.1893    0.0205 H         1 <0>         0.1340
     20 H6         -4.4986    0.0763    0.0363 H         1 <0>         0.1226
     21 H7         -0.3327   -2.5925   -0.0087 H         1 <0>         0.1339
     22 H8         -4.7693   -5.0210    0.0309 H         1 <0>         0.1736
     23 H9         -6.7870   -3.3788    0.4834 H         1 <0>         0.0921
     24 H10        -6.4058   -1.6471    0.6389 H         1 <0>         0.0920
     25 H11        -6.1676   -1.4785   -1.8235 H         1 <0>         0.1334
     26 H12        -6.5488   -3.2102   -1.9790 H         1 <0>         0.1332
     27 H13        -8.6635   -2.7673   -0.9698 H         1 <0>         0.4346
     28 H14        -8.3106   -1.1643   -0.8259 H         1 <0>         0.4348
     29 H15        -8.4717   -1.8416   -2.3193 H         1 <0>         0.4378
@<TRIPOS>BOND
     1    1    2 1
     2    1   16 1
     3    1   17 1
     4    1   18 1
     5    2    3 1
     6    3    8 ar
     7    3    4 ar
     8    4    5 ar
     9    4   19 1
    10    5    6 ar
    11    5   20 1
    12    6   12 1
    13    6    7 ar
    14    7    8 ar
    15    7    9 1
    16    8   21 1
    17    9   10 1
    18    9   11 1
    19   11   12 2
    20   11   22 1
    21   12   13 1
    22   13   14 1
    23   13   23 1
    24   13   24 1
    25   14   15 1
    26   14   25 1
    27   14   26 1
    28   15   27 1
    29   15   28 1
    30   15   29 1
@<TRIPOS>MOLECULE
ZINC05734222
   29    30     0     0     0
SMALL
USER_CHARGES
2-(4-methoxy-1H-indol-3-yl)ethanamine
@<TRIPOS>ATOM
      1 C1         -0.0127    1.0858    0.0080 C.3       1 <0>         0.0231
      2 O1         -0.6816    1.5467    1.1837 O.3       1 <0>        -0.3249
      3 C2         -1.9747    1.1631    1.3482 C.ar      1 <0>         0.1656
      4 C3         -2.5883    0.3629    0.4036 C.ar      1 <0>        -0.2308
      5 C4         -3.9086   -0.0299    0.5696 C.ar      1 <0>        -0.0517
      6 C5         -4.6280    0.3694    1.6745 C.ar      1 <0>        -0.1608
      7 C6         -4.0317    1.1756    2.6397 C.ar      1 <0>         0.1330
      8 C7         -2.6925    1.5713    2.4789 C.ar      1 <0>        -0.1273
      9 C8         -2.3681    2.3913    3.6486 C.2       1 <0>        -0.1850
     10 C9         -3.4702    2.4375    4.4131 C.2       1 <0>         0.0740
     11 N1         -4.4777    1.7227    3.8220 N.pl3     1 <0>        -0.5870
     12 H1         -5.3695    1.6105    4.1866 H         1 <0>         0.4256
     13 C10        -1.0473    3.0563    3.9388 C.3       1 <0>        -0.0617
     14 C11        -0.9906    4.4098    3.2277 C.3       1 <0>        -0.0009
     15 H2          0.3589    5.9545    3.0517 H         1 <0>         0.4386
     16 H3          0.4451    5.1495    4.5044 H         1 <0>         0.4353
     17 H4          0.0021   -0.0041    0.0020 H         1 <0>         0.0614
     18 H5          1.0099    1.4631    0.0003 H         1 <0>         0.1012
     19 H6         -0.5399    1.4469   -0.8751 H         1 <0>         0.0597
     20 H7         -2.0376    0.0420   -0.4683 H         1 <0>         0.1328
     21 H8         -4.3776   -0.6551   -0.1757 H         1 <0>         0.1348
     22 H9         -5.6549    0.0564    1.7919 H         1 <0>         0.1279
     23 H10        -3.5530    2.9670    5.3507 H         1 <0>         0.1746
     24 H11        -0.9442    3.2059    5.0136 H         1 <0>         0.0895
     25 H12        -0.2354    2.4234    3.5806 H         1 <0>         0.0967
     26 H13        -1.0937    4.2602    2.1530 H         1 <0>         0.1318
     27 H14        -1.8025    5.0427    3.5860 H         1 <0>         0.1318
     28 N2          0.3127    5.0411    3.5002 N.4       1 <0>        -0.6469
     29 H15         1.0609    4.4458    3.1260 H         1 <0>         0.4395
@<TRIPOS>BOND
     1    1    2 1
     2    1   17 1
     3    1   18 1
     4    1   19 1
     5    2    3 1
     6    3    8 ar
     7    3    4 ar
     8    4    5 ar
     9    4   20 1
    10    5    6 ar
    11    5   21 1
    12    6    7 ar
    13    6   22 1
    14    7   11 1
    15    7    8 ar
    16    8    9 1
    17    9   10 2
    18    9   13 1
    19   10   11 1
    20   10   23 1
    21   11   12 1
    22   13   14 1
    23   13   24 1
    24   13   25 1
    25   14   26 1
    26   14   27 1
    27   14   28 1
    28   15   28 1
    29   16   28 1
    30   28   29 1
@<TRIPOS>MOLECULE
ZINC00057058
   26    27     0     0     0
SMALL
USER_CHARGES

@<TRIPOS>ATOM
      1 C1         -0.0168    1.3880    0.0097 C.ar      1 <0>        -0.1182
      2 C2          1.1587    2.1055    0.0023 C.ar      1 <0>        -0.1024
      3 C3          2.3795    1.4398   -0.0129 C.ar      1 <0>         0.0862
      4 C4          2.4019    0.0334   -0.0206 C.ar      1 <0>        -0.0842
      5 C5          1.2039   -0.6838   -0.0130 C.ar      1 <0>        -0.1143
      6 C6          0.0021   -0.0041    0.0020 C.ar      1 <0>         0.0953
      7 O1         -1.1679   -0.6972    0.0094 O.3       1 <0>        -0.4959
      8 C7          3.8159   -0.3493   -0.0361 C.2       1 <0>        -0.2101
      9 C8          4.5307    0.7870   -0.0369 C.2       1 <0>         0.0918
     10 N1          3.6908    1.8667   -0.0231 N.pl3     1 <0>        -0.5866
     11 H1          3.9751    2.7941   -0.0208 H         1 <0>         0.4248
     12 C9          4.3642   -1.7530   -0.0489 C.3       1 <0>        -0.0616
     13 C10         4.4190   -2.2661   -1.4892 C.3       1 <0>        -0.0080
     14 N2          4.9535   -3.6343   -1.5017 N.4       1 <0>        -0.6389
     15 H2         -0.9621    1.9101    0.0260 H         1 <0>         0.1389
     16 H3          1.1325    3.1852    0.0080 H         1 <0>         0.1315
     17 H4          1.2172   -1.7637   -0.0192 H         1 <0>         0.1256
     18 H5         -1.5147   -0.8930   -0.8718 H         1 <0>         0.3922
     19 H6          5.6093    0.8408   -0.0472 H         1 <0>         0.1750
     20 H7          5.3681   -1.7548    0.3759 H         1 <0>         0.0927
     21 H8          3.7180   -2.4009    0.5433 H         1 <0>         0.0925
     22 H9          3.4152   -2.2643   -1.9140 H         1 <0>         0.1329
     23 H10         5.0652   -1.6182   -2.0814 H         1 <0>         0.1331
     24 H11         5.8827   -3.6360   -1.1085 H         1 <0>         0.4347
     25 H12         4.3553   -4.2341   -0.9535 H         1 <0>         0.4353
     26 H13         4.9896   -3.9727   -2.4515 H         1 <0>         0.4379
@<TRIPOS>BOND
     1    1    6 ar
     2    1    2 ar
     3    1   15 1
     4    2    3 ar
     5    2   16 1
     6    3   10 1
     7    3    4 ar
     8    4    5 ar
     9    4    8 1
    10    5    6 ar
    11    5   17 1
    12    6    7 1
    13    7   18 1
    14    8    9 2
    15    8   12 1
    16    9   10 1
    17    9   19 1
    18   10   11 1
    19   12   13 1
    20   12   20 1
    21   12   21 1
    22   13   14 1
    23   13   22 1
    24   13   23 1
    25   14   24 1
    26   14   25 1
    27   14   26 1
@<TRIPOS>MOLECULE
ZINC00020248
   46    48     0     0     0
SMALL
USER_CHARGES

@<TRIPOS>ATOM
      1 C1         -5.6600    1.3618    0.4597 C.3       1 <0>        -0.0474
      2 N1         -5.6471   -0.0878    0.2218 N.4       1 <0>        -0.3867
      3 C2         -6.3574   -0.3850   -1.0293 C.3       1 <0>        -0.0523
      4 C3         -4.2581   -0.5548    0.1191 C.3       1 <0>        -0.0083
      5 C4         -4.2405   -2.0797   -0.0038 C.3       1 <0>        -0.1741
      6 C5         -2.7938   -2.5661   -0.1108 C.3       1 <0>         0.1309
      7 N2         -2.7704   -4.0309   -0.1190 N.pl3     1 <0>        -0.5935
      8 C6         -2.7303   -4.6837   -1.3451 C.ar      1 <0>         0.1859
      9 C7         -1.8260   -4.1660   -2.2811 C.ar      1 <0>        -0.1574
     10 C8         -1.6797   -4.7476   -3.5192 C.ar      1 <0>        -0.0952
     11 C9         -2.4365   -5.8609   -3.8384 C.ar      1 <0>        -0.1332
     12 C10        -3.3330   -6.3646   -2.9249 C.ar      1 <0>        -0.0999
     13 C11        -3.5037   -5.7750   -1.6688 C.ar      1 <0>        -0.1089
     14 C12        -4.5743   -6.4166   -0.8216 C.3       1 <0>        -0.0721
     15 C13        -4.9918   -5.6033    0.3783 C.3       1 <0>        -0.0690
     16 C14        -3.8887   -5.4681    1.3836 C.ar      1 <0>        -0.0980
     17 C15        -2.7839   -4.6994    1.1019 C.ar      1 <0>         0.1741
     18 C16        -1.7322   -4.5882    1.9998 C.ar      1 <0>        -0.1187
     19 C17        -1.8086   -5.2524    3.2126 C.ar      1 <0>        -0.0223
     20 C18        -2.9248   -6.0132    3.5136 C.ar      1 <0>        -0.1131
     21 C19        -3.9754   -6.1256    2.6005 C.ar      1 <0>        -0.0889
     22 Cl1        -0.5058   -5.1313    4.3535 Cl        1 <0>        -0.0554
     23 H1         -6.6906    1.7083    0.5359 H         1 <0>         0.1247
     24 H2         -5.1330    1.5823    1.3879 H         1 <0>         0.1236
     25 H3         -5.1660    1.8703   -0.3683 H         1 <0>         0.1224
     26 H4         -5.8633    0.1235   -1.8572 H         1 <0>         0.1230
     27 H5         -6.3478   -1.4606   -1.2058 H         1 <0>         0.1233
     28 H6         -7.3880   -0.0385   -0.9531 H         1 <0>         0.1247
     29 H7         -3.7907   -0.1139   -0.7614 H         1 <0>         0.1315
     30 H8         -3.7074   -0.2558    1.0110 H         1 <0>         0.1322
     31 H9         -4.7079   -2.5206    0.8766 H         1 <0>         0.0896
     32 H10        -4.7912   -2.3787   -0.8957 H         1 <0>         0.0908
     33 H11        -2.3515   -2.1905   -1.0335 H         1 <0>         0.0902
     34 H12        -2.2229   -2.1984    0.7418 H         1 <0>         0.0815
     35 H13        -1.2357   -3.2979   -2.0274 H         1 <0>         0.1217
     36 H14        -0.9815   -4.3392   -4.2348 H         1 <0>         0.1273
     37 H15        -2.3238   -6.3333   -4.8030 H         1 <0>         0.1262
     38 H16        -3.9182   -7.2346   -3.1839 H         1 <0>         0.1241
     39 H17        -5.4518   -6.5884   -1.4450 H         1 <0>         0.0825
     40 H18        -4.2074   -7.3823   -0.4739 H         1 <0>         0.0763
     41 H19        -5.2905   -4.6094    0.0453 H         1 <0>         0.0673
     42 H20        -5.8457   -6.0866    0.8532 H         1 <0>         0.0790
     43 H21        -0.8653   -3.9919    1.7562 H         1 <0>         0.1372
     44 H22        -2.9858   -6.5230    4.4638 H         1 <0>         0.1382
     45 H23        -4.8449   -6.7215    2.8354 H         1 <0>         0.1390
     46 H24        -6.1044   -0.5585    0.9882 H         1 <0>         0.4269
@<TRIPOS>BOND
     1    1    2 1
     2    1   23 1
     3    1   24 1
     4    1   25 1
     5    2    3 1
     6    2    4 1
     7    2   46 1
     8    3   26 1
     9    3   27 1
    10    3   28 1
    11    4    5 1
    12    4   29 1
    13    4   30 1
    14    5    6 1
    15    5   31 1
    16    5   32 1
    17    6    7 1
    18    6   33 1
    19    6   34 1
    20    7   17 1
    21    7    8 1
    22    8   13 ar
    23    8    9 ar
    24    9   10 ar
    25    9   35 1
    26   10   11 ar
    27   10   36 1
    28   11   12 ar
    29   11   37 1
    30   12   13 ar
    31   12   38 1
    32   13   14 1
    33   14   15 1
    34   14   39 1
    35   14   40 1
    36   15   16 1
    37   15   41 1
    38   15   42 1
    39   16   21 ar
    40   16   17 ar
    41   17   18 ar
    42   18   19 ar
    43   18   43 1
    44   19   20 ar
    45   19   22 1
    46   20   21 ar
    47   20   44 1
    48   21   45 1
@<TRIPOS>MOLECULE
ZINC19796155
   42    45     0     0     0
SMALL
USER_CHARGES

@<TRIPOS>ATOM
      1 C1         -0.0670    1.4396   -0.3852 C.3       1 <0>         0.0243
      2 N1         -0.0229   -0.0169   -0.1987 N.3       1 <0>        -0.5428
      3 C2          0.3808   -0.6943   -1.4380 C.3       1 <0>         0.0399
      4 C3          0.2401   -2.2095   -1.2572 C.3       1 <0>         0.1263
      5 N2          0.9912   -2.6085   -0.0572 N.pl3     1 <0>        -0.5953
      6 C4          0.7394   -1.8803    1.1955 C.3       1 <0>         0.1122
      7 C5          0.8604   -0.3781    0.9181 C.3       1 <0>         0.0393
      8 C6          1.9051   -3.6365   -0.1053 C.2       1 <0>         0.5098
      9 N3          2.1670   -4.1290   -1.2643 N.2       1 <0>        -0.6041
     10 C7          3.0130   -5.1503   -1.5719 C.ar      1 <0>         0.1655
     11 C8          2.6280   -6.0848   -2.5372 C.ar      1 <0>        -0.1058
     12 C9          3.4872   -7.1047   -2.8991 C.ar      1 <0>        -0.0230
     13 C10         4.7348   -7.2069   -2.3106 C.ar      1 <0>        -0.1209
     14 C11         5.1212   -6.2977   -1.3402 C.ar      1 <0>        -0.1017
     15 C12         4.2618   -5.2835   -0.9546 C.ar      1 <0>         0.1117
     16 N4          4.6314   -4.4326    0.1003 N.pl3     1 <0>        -0.7261
     17 C13         3.8434   -4.4184    1.2519 C.ar      1 <0>         0.2140
     18 C14         2.4943   -4.0640    1.1729 C.ar      1 <0>        -0.1453
     19 C15         1.7072   -4.1133    2.3240 C.ar      1 <0>        -0.0723
     20 C16         2.2727   -4.4729    3.5311 C.ar      1 <0>        -0.1389
     21 C17         3.6189   -4.7825    3.6069 C.ar      1 <0>        -0.0765
     22 C18         4.3974   -4.7629    2.4751 C.ar      1 <0>        -0.1433
     23 Cl1         2.9987   -8.2627   -4.0966 Cl        1 <0>        -0.0679
     24 H1          0.9359    1.8090   -0.5992 H         1 <0>         0.0255
     25 H2         -0.7279    1.6794   -1.2181 H         1 <0>         0.0711
     26 H3         -0.4416    1.9111    0.5233 H         1 <0>         0.0709
     27 H4         -0.2581   -0.3649   -2.2574 H         1 <0>         0.0878
     28 H5          1.4186   -0.4499   -1.6647 H         1 <0>         0.0378
     29 H6         -0.8117   -2.4673   -1.1334 H         1 <0>         0.0720
     30 H7          0.6453   -2.7216   -2.1299 H         1 <0>         0.1060
     31 H8         -0.2645   -2.1065    1.5551 H         1 <0>         0.0792
     32 H9          1.4746   -2.1748    1.9444 H         1 <0>         0.0984
     33 H10         1.8915   -0.1381    0.6586 H         1 <0>         0.0379
     34 H11         0.5693    0.1807    1.8075 H         1 <0>         0.0892
     35 H12         1.6558   -6.0097   -3.0016 H         1 <0>         0.1375
     36 H13         5.4083   -7.9971   -2.6081 H         1 <0>         0.1357
     37 H14         6.0961   -6.3802   -0.8829 H         1 <0>         0.1326
     38 H15         5.4169   -3.8679    0.0299 H         1 <0>         0.4097
     39 H16         0.6563   -3.8699    2.2709 H         1 <0>         0.1344
     40 H17         1.6613   -4.5124    4.4205 H         1 <0>         0.1323
     41 H18         4.0571   -5.0467    4.5580 H         1 <0>         0.1317
     42 H19         5.4473   -5.0071    2.5424 H         1 <0>         0.1313
@<TRIPOS>BOND
     1    1    2 1
     2    1   24 1
     3    1   25 1
     4    1   26 1
     5    2    7 1
     6    2    3 1
     7    3    4 1
     8    3   27 1
     9    3   28 1
    10    4    5 1
    11    4   29 1
    12    4   30 1
    13    5    6 1
    14    5    8 1
    15    6    7 1
    16    6   31 1
    17    6   32 1
    18    7   33 1
    19    7   34 1
    20    8   18 1
    21    8    9 2
    22    9   10 1
    23   10   15 ar
    24   10   11 ar
    25   11   12 ar
    26   11   35 1
    27   12   13 ar
    28   12   23 1
    29   13   14 ar
    30   13   36 1
    31   14   15 ar
    32   14   37 1
    33   15   16 1
    34   16   17 1
    35   16   38 1
    36   17   22 ar
    37   17   18 ar
    38   18   19 ar
    39   19   20 ar
    40   19   39 1
    41   20   21 ar
    42   20   40 1
    43   21   22 ar
    44   21   41 1
    45   22   42 1
@<TRIPOS>MOLECULE
ZINC19796155
   44    47     0     0     0
SMALL
USER_CHARGES

@<TRIPOS>ATOM
      1 C1         -1.5703   -0.0018   -1.9302 C.3       1 <0>        -0.0497
      2 N1         -0.7527   -0.7171   -0.9414 N.4       1 <0>        -0.3854
      3 C2         -1.0498   -2.1535   -1.0104 C.3       1 <0>        -0.0252
      4 C3         -0.2839   -2.8861    0.0962 C.3       1 <0>         0.1048
      5 N2          1.1441   -2.5548   -0.0269 N.pl3     1 <0>        -0.7052
      6 C4          1.5202   -1.1363   -0.1296 C.3       1 <0>         0.1049
      7 C5          0.6692   -0.4862   -1.2256 C.3       1 <0>        -0.0251
      8 C6          2.0831   -3.5253   -0.0448 C.2       1 <0>         0.6309
      9 C7          2.6112   -3.9094    1.2074 C.ar      1 <0>        -0.2438
     10 C8          2.0495   -3.1929    2.2728 C.ar      1 <0>         0.0055
     11 C9          2.4602   -3.4528    3.5483 C.ar      1 <0>        -0.1817
     12 C10         3.4265   -4.4148    3.8208 C.ar      1 <0>         0.0489
     13 C11         4.0101   -5.1439    2.8276 C.ar      1 <0>        -0.2233
     14 C12         3.6302   -4.9235    1.4921 C.ar      1 <0>         0.3343
     15 N3          4.2865   -5.7106    0.6358 N.pl3     1 <0>        -0.6131
     16 C13         4.1767   -5.7728   -0.7271 C.ar      1 <0>         0.1589
     17 C14         5.0408   -6.7320   -1.2562 C.ar      1 <0>        -0.1157
     18 C15         5.0795   -6.9478   -2.6222 C.ar      1 <0>        -0.0495
     19 C16         4.2642   -6.2154   -3.4643 C.ar      1 <0>        -0.0338
     20 C17         3.4016   -5.2585   -2.9468 C.ar      1 <0>        -0.0846
     21 C18         3.3520   -5.0321   -1.5848 C.ar      1 <0>         0.0769
     22 N4          2.4115   -4.0290   -1.2719 N.pl3     1 <0>        -0.5773
     23 Cl1         4.3195   -6.4929   -5.1771 Cl        1 <0>        -0.0159
     24 H1         -1.3348   -0.3678   -2.9295 H         1 <0>         0.1246
     25 H2         -2.6262   -0.1724   -1.7203 H         1 <0>         0.1321
     26 H3         -1.3566    1.0656   -1.8745 H         1 <0>         0.1321
     27 H4         -2.1201   -2.3101   -0.8766 H         1 <0>         0.1569
     28 H5         -0.7442   -2.5415   -1.9820 H         1 <0>         0.1344
     29 H6         -0.6518   -2.5648    1.0707 H         1 <0>         0.1155
     30 H7         -0.4211   -3.9618   -0.0138 H         1 <0>         0.1302
     31 H8          1.3345   -0.6383    0.8220 H         1 <0>         0.1155
     32 H9          2.5758   -1.0551   -0.3891 H         1 <0>         0.1302
     33 H10         0.9228   -0.9247   -2.1907 H         1 <0>         0.1344
     34 H11         0.8655    0.5856   -1.2504 H         1 <0>         0.1569
     35 H12         1.2975   -2.4405    2.0860 H         1 <0>         0.1502
     36 H13         2.0243   -2.8976    4.3657 H         1 <0>         0.1496
     37 H14         3.7223   -4.5886    4.8448 H         1 <0>         0.1558
     38 H15         4.7590   -5.8851    3.0650 H         1 <0>         0.1623
     39 H16         5.6790   -7.3052   -0.6001 H         1 <0>         0.1677
     40 H17         5.7487   -7.6901   -3.0316 H         1 <0>         0.1653
     41 H18         2.7675   -4.6896   -3.6107 H         1 <0>         0.1565
     42 H19         1.9393   -3.6432   -2.0263 H         1 <0>         0.4255
     43 H20         4.9278   -6.3202    1.0333 H         1 <0>         0.4372
     44 H21        -0.9695   -0.3754   -0.0171 H         1 <0>         0.4310
@<TRIPOS>BOND
     1    1    2 1
     2    1   24 1
     3    1   25 1
     4    1   26 1
     5    2    7 1
     6    2    3 1
     7    2   44 1
     8    3    4 1
     9    3   27 1
    10    3   28 1
    11    4    5 1
    12    4   29 1
    13    4   30 1
    14    5    6 1
    15    5    8 1
    16    6    7 1
    17    6   31 1
    18    6   32 1
    19    7   33 1
    20    7   34 1
    21    8   22 1
    22    8    9 2
    23    9   14 ar
    24    9   10 ar
    25   10   11 ar
    26   10   35 1
    27   11   12 ar
    28   11   36 1
    29   12   13 ar
    30   12   37 1
    31   13   14 ar
    32   13   38 1
    33   14   15 2
    34   15   16 1
    35   15   43 1
    36   16   21 ar
    37   16   17 ar
    38   17   18 ar
    39   17   39 1
    40   18   19 ar
    41   18   40 1
    42   19   20 ar
    43   19   23 1
    44   20   21 ar
    45   20   41 1
    46   21   22 1
    47   22   42 1
@<TRIPOS>MOLECULE
ZINC19796155
   43    46     0     0     0
SMALL
USER_CHARGES

@<TRIPOS>ATOM
      1 C1         -0.0523    1.4387   -0.3863 C.3       1 <0>        -0.0469
      2 N1         -0.0147   -0.0168   -0.1908 N.4       1 <0>        -0.3852
      3 C2          0.4863   -0.6601   -1.4120 C.3       1 <0>        -0.0213
      4 C3          0.4181   -2.1823   -1.2510 C.3       1 <0>         0.1002
      5 N2          1.1441   -2.5548   -0.0269 N.pl3     1 <0>        -0.6180
      6 C4          0.8178   -1.8405    1.2170 C.3       1 <0>         0.0860
      7 C5          0.8671   -0.3344    0.9395 C.3       1 <0>        -0.0221
      8 C6          2.1017   -3.5432   -0.0451 C.2       1 <0>         0.5019
      9 N3          2.4234   -4.0210   -1.1951 N.2       1 <0>        -0.5760
     10 C7          3.3217   -5.0050   -1.4750 C.ar      1 <0>         0.1390
     11 C8          3.0096   -5.9522   -2.4541 C.ar      1 <0>        -0.0932
     12 C9          3.9229   -6.9340   -2.7877 C.ar      1 <0>        -0.0267
     13 C10         5.1529   -6.9852   -2.1572 C.ar      1 <0>        -0.1032
     14 C11         5.4673   -6.0631   -1.1730 C.ar      1 <0>        -0.1031
     15 C12         4.5533   -5.0871   -0.8155 C.ar      1 <0>         0.1235
     16 N4          4.8505   -4.2243    0.2524 N.pl3     1 <0>        -0.7273
     17 C13         4.0239   -4.2464    1.3765 C.ar      1 <0>         0.2173
     18 C14         2.6645   -3.9489    1.2520 C.ar      1 <0>        -0.1537
     19 C15         1.8414   -4.0345    2.3754 C.ar      1 <0>        -0.0841
     20 C16         2.3802   -4.3733    3.6007 C.ar      1 <0>        -0.1334
     21 C17         3.7349   -4.6261    3.7220 C.ar      1 <0>        -0.0692
     22 C18         4.5500   -4.5705    2.6174 C.ar      1 <0>        -0.1369
     23 Cl1         3.5248   -8.1083   -4.0027 Cl        1 <0>        -0.0551
     24 H1          0.9534    1.8033   -0.5956 H         1 <0>         0.1211
     25 H2         -0.7066    1.6758   -1.2253 H         1 <0>         0.1256
     26 H3         -0.4316    1.9169    0.5167 H         1 <0>         0.1252
     27 H4         -0.1269   -0.3565   -2.2605 H         1 <0>         0.1425
     28 H5          1.5196   -0.3587   -1.5839 H         1 <0>         0.1315
     29 H6         -0.6226   -2.4957   -1.1694 H         1 <0>         0.0898
     30 H7          0.8819   -2.6629   -2.1125 H         1 <0>         0.1431
     31 H8         -0.1827   -2.1194    1.5479 H         1 <0>         0.0960
     32 H9          1.5457   -2.0950    1.9873 H         1 <0>         0.1385
     33 H10         1.8889   -0.0428    0.6965 H         1 <0>         0.1320
     34 H11         0.5345    0.2092    1.8238 H         1 <0>         0.1439
     35 H12         2.0515   -5.9169   -2.9512 H         1 <0>         0.1396
     36 H13         5.8689   -7.7454   -2.4325 H         1 <0>         0.1422
     37 H14         6.4287   -6.1057   -0.6827 H         1 <0>         0.1382
     38 H15         5.6134   -3.6267    0.2096 H         1 <0>         0.4129
     39 H16         0.7836   -3.8354    2.2868 H         1 <0>         0.1314
     40 H17         1.7411   -4.4409    4.4686 H         1 <0>         0.1357
     41 H18         4.1512   -4.8742    4.6872 H         1 <0>         0.1370
     42 H19         5.6063   -4.7705    2.7202 H         1 <0>         0.1363
     43 H20        -0.9456   -0.3526    0.0057 H         1 <0>         0.4250
@<TRIPOS>BOND
     1    1    2 1
     2    1   24 1
     3    1   25 1
     4    1   26 1
     5    2    7 1
     6    2    3 1
     7    2   43 1
     8    3    4 1
     9    3   27 1
    10    3   28 1
    11    4    5 1
    12    4   29 1
    13    4   30 1
    14    5    6 1
    15    5    8 1
    16    6    7 1
    17    6   31 1
    18    6   32 1
    19    7   33 1
    20    7   34 1
    21    8   18 1
    22    8    9 2
    23    9   10 1
    24   10   15 ar
    25   10   11 ar
    26   11   12 ar
    27   11   35 1
    28   12   13 ar
    29   12   23 1
    30   13   14 ar
    31   13   36 1
    32   14   15 ar
    33   14   37 1
    34   15   16 1
    35   16   17 1
    36   16   38 1
    37   17   22 ar
    38   17   18 ar
    39   18   19 ar
    40   19   20 ar
    41   19   39 1
    42   20   21 ar
    43   20   40 1
    44   21   22 ar
    45   21   41 1
    46   22   42 1
@<TRIPOS>MOLECULE
ZINC12068672
   59    61     0     0     0
SMALL
USER_CHARGES

@<TRIPOS>ATOM
      1 C1         -0.0173    1.4248    0.0099 C.3       1 <0>         0.0202
      2 O1          0.0021   -0.0041    0.0020 O.3       1 <0>        -0.3079
      3 C2          0.6058   -0.6071   -1.0557 C.ar      1 <0>         0.1902
      4 C3          1.1730    0.1607   -2.0624 C.ar      1 <0>        -0.2289
      5 C4          1.7865   -0.4547   -3.1363 C.ar      1 <0>         0.0245
      6 C5          1.8352   -1.8346   -3.2086 C.ar      1 <0>        -0.7224
      7 C6          1.2702   -2.6021   -2.2068 C.ar      1 <0>         0.0138
      8 C7          0.6609   -1.9915   -1.1277 C.ar      1 <0>        -0.1721
      9 S1          2.6179   -2.6165   -4.5800 S.o2      1 <0>         2.6987
     10 O2          2.0512   -3.9154   -4.6847 O.2       1 <0>        -0.9516
     11 O3          2.5875   -1.6833   -5.6512 O.2       1 <0>        -0.9484
     12 N1          4.2112   -2.8262   -4.1801 N.pl3     1 <0>        -1.1212
     13 C8          4.5787   -3.7213   -3.0801 C.3       1 <0>         0.1198
     14 C9          6.0754   -4.0304   -3.1525 C.3       1 <0>        -0.1585
     15 C10         6.4592   -4.9653   -2.0037 C.3       1 <0>        -0.0092
     16 N2          7.8962   -5.2621   -2.0731 N.4       1 <0>        -0.3786
     17 C11         8.1812   -6.0074   -3.3058 C.3       1 <0>        -0.0291
     18 C12         9.6933   -6.2177   -3.4362 C.3       1 <0>         0.1237
     19 N3         10.1818   -6.8648   -2.2087 N.pl3     1 <0>        -0.6643
     20 C13         9.8036   -6.2736   -0.9158 C.3       1 <0>         0.1231
     21 C14         8.2862   -6.0607   -0.9043 C.3       1 <0>        -0.0222
     22 C15        10.9839   -8.0102   -2.2692 C.ar      1 <0>         0.1108
     23 C16        12.3650   -7.8901   -2.3209 C.ar      1 <0>        -0.0783
     24 C17        13.1551   -9.0227   -2.3801 C.ar      1 <0>        -0.1460
     25 C18        12.5723  -10.2765   -2.3880 C.ar      1 <0>        -0.0679
     26 C19        11.1963  -10.4039   -2.3367 C.ar      1 <0>        -0.2019
     27 C20        10.3978   -9.2740   -2.2718 C.ar      1 <0>         0.1240
     28 O4          9.0445   -9.3980   -2.2161 O.3       1 <0>        -0.3189
     29 C21         8.5138  -10.7248   -2.2225 C.3       1 <0>         0.0224
     30 H1          1.0053    1.8021    0.0021 H         1 <0>         0.0619
     31 H2         -0.5445    1.7859   -0.8732 H         1 <0>         0.0639
     32 H3         -0.5275    1.7763    0.9067 H         1 <0>         0.1100
     33 H4          1.1347    1.2385   -2.0068 H         1 <0>         0.1418
     34 H5          2.2283    0.1425   -3.9203 H         1 <0>         0.1444
     35 H6          1.3092   -3.6798   -2.2657 H         1 <0>         0.1463
     36 H7          0.2237   -2.5913   -0.3432 H         1 <0>         0.1439
     37 H8          4.9011   -2.3563   -4.6742 H         1 <0>         0.4215
     38 H9          4.3527   -3.2397   -2.1288 H         1 <0>         0.0773
     39 H10         4.0118   -4.6487   -3.1616 H         1 <0>         0.0920
     40 H11         6.3013   -4.5121   -4.1038 H         1 <0>         0.0982
     41 H12         6.6423   -3.1030   -3.0710 H         1 <0>         0.0966
     42 H13         6.2332   -4.4837   -1.0523 H         1 <0>         0.1351
     43 H14         5.8923   -5.8927   -2.0851 H         1 <0>         0.1343
     44 H15         7.6815   -6.9754   -3.2690 H         1 <0>         0.1348
     45 H16         7.8174   -5.4428   -4.1642 H         1 <0>         0.1355
     46 H17         9.9016   -6.8562   -4.2947 H         1 <0>         0.1132
     47 H18        10.1874   -5.2545   -3.5640 H         1 <0>         0.0769
     48 H19        10.0848   -6.9492   -0.1079 H         1 <0>         0.1134
     49 H20        10.3088   -5.3161   -0.7891 H         1 <0>         0.0770
     50 H21         7.9998   -5.5354    0.0068 H         1 <0>         0.1346
     51 H22         7.7833   -7.0271   -0.9402 H         1 <0>         0.1339
     52 H23        12.8228   -6.9119   -2.3152 H         1 <0>         0.1314
     53 H24        14.2301   -8.9281   -2.4207 H         1 <0>         0.1317
     54 H25        13.1935  -11.1587   -2.4347 H         1 <0>         0.1320
     55 H26        10.7444  -11.3847   -2.3430 H         1 <0>         0.1333
     56 H27         8.8169  -11.2329   -3.1379 H         1 <0>         0.0596
     57 H28         8.8938  -11.2723   -1.3600 H         1 <0>         0.0594
     58 H29         7.4257  -10.6811   -2.1745 H         1 <0>         0.1018
     59 H30         8.4170   -4.3979   -2.0775 H         1 <0>         0.4208
@<TRIPOS>BOND
     1    1    2 1
     2    1   30 1
     3    1   31 1
     4    1   32 1
     5    2    3 1
     6    3    8 ar
     7    3    4 ar
     8    4    5 ar
     9    4   33 1
    10    5    6 ar
    11    5   34 1
    12    6    7 ar
    13    6    9 1
    14    7    8 ar
    15    7   35 1
    16    8   36 1
    17    9   10 2
    18    9   11 2
    19    9   12 1
    20   12   13 1
    21   12   37 1
    22   13   14 1
    23   13   38 1
    24   13   39 1
    25   14   15 1
    26   14   40 1
    27   14   41 1
    28   15   16 1
    29   15   42 1
    30   15   43 1
    31   16   21 1
    32   16   17 1
    33   16   59 1
    34   17   18 1
    35   17   44 1
    36   17   45 1
    37   18   19 1
    38   18   46 1
    39   18   47 1
    40   19   20 1
    41   19   22 1
    42   20   21 1
    43   20   48 1
    44   20   49 1
    45   21   50 1
    46   21   51 1
    47   22   27 ar
    48   22   23 ar
    49   23   24 ar
    50   23   52 1
    51   24   25 ar
    52   24   53 1
    53   25   26 ar
    54   25   54 1
    55   26   27 ar
    56   26   55 1
    57   27   28 1
    58   28   29 1
    59   29   56 1
    60   29   57 1
    61   29   58 1
@<TRIPOS>MOLECULE
ZINC19362650
   49    52     0     0     0
SMALL
USER_CHARGES

@<TRIPOS>ATOM
      1 C1          0.2206    1.5152    1.9057 C.3       1 <0>        -0.0457
      2 N1          0.2516    0.0487    1.9854 N.4       1 <0>        -0.3883
      3 C2          0.6486   -0.5039    0.6837 C.3       1 <0>        -0.0011
      4 C3          0.6992   -2.0308    0.7714 C.3       1 <0>         0.0175
      5 N2         -0.6244   -2.5407    1.1564 N.3       1 <0>        -0.5281
      6 C4         -1.0461   -1.9766    2.4464 C.3       1 <0>         0.0177
      7 C5         -1.0824   -0.4501    2.3448 C.3       1 <0>        -0.0018
      8 C6         -0.6316   -4.0091    1.1963 C.3       1 <0>         0.1437
      9 H1         -0.2338   -4.3716    0.2485 H         1 <0>         0.1037
     10 C7          0.2948   -4.4467    2.2842 C.3       1 <0>        -0.1250
     11 C8          0.6363   -5.8984    2.2023 C.ar      1 <0>        -0.0552
     12 C9          1.8715   -6.2799    1.6918 C.ar      1 <0>        -0.1196
     13 C10         2.1806   -7.6226    1.5809 C.ar      1 <0>        -0.0925
     14 C11         1.2687   -8.5877    1.9690 C.ar      1 <0>        -0.1150
     15 C12         0.0449   -8.2081    2.4889 C.ar      1 <0>        -0.0637
     16 C13        -0.2456   -6.8537    2.6139 C.ar      1 <0>        -0.1262
     17 S1         -1.7507   -6.3303    3.3560 S.3       1 <0>        -0.0082
     18 C14        -2.6122   -5.4134    2.1303 C.ar      1 <0>        -0.1042
     19 C15        -2.0601   -4.4644    1.3058 C.ar      1 <0>        -0.0476
     20 C16        -2.9031   -3.7952    0.4063 C.ar      1 <0>        -0.0825
     21 C17        -4.2501   -4.0763    0.3136 C.ar      1 <0>        -0.0750
     22 C18        -4.7979   -5.0557    1.1337 C.ar      1 <0>        -0.1188
     23 C19        -3.9838   -5.7055    2.0238 C.ar      1 <0>        -0.0674
     24 S2         -5.2652   -3.2038   -0.8322 S.3       1 <0>        -0.1090
     25 C20        -6.9164   -3.9128   -0.5840 C.3       1 <0>        -0.1464
     26 H2         -0.0726    1.9255    2.8720 H         1 <0>         0.1243
     27 H3          1.2105    1.8855    1.6391 H         1 <0>         0.1242
     28 H4         -0.4989    1.8227    1.1469 H         1 <0>         0.1235
     29 H5         -0.0773   -0.2074   -0.0735 H         1 <0>         0.1388
     30 H6          1.6330   -0.1227    0.4121 H         1 <0>         0.1369
     31 H7          0.9793   -2.4417   -0.1985 H         1 <0>         0.1258
     32 H8          1.4349   -2.3279    1.5189 H         1 <0>         0.0670
     33 H9         -2.0394   -2.3480    2.6984 H         1 <0>         0.1255
     34 H10        -0.3392   -2.2728    3.2214 H         1 <0>         0.0671
     35 H11        -1.3813   -0.0291    3.3048 H         1 <0>         0.1364
     36 H12        -1.7994   -0.1539    1.5791 H         1 <0>         0.1387
     37 H13         1.2142   -3.8648    2.2186 H         1 <0>         0.0842
     38 H14        -0.1757   -4.2497    3.2475 H         1 <0>         0.0945
     39 H15         2.5859   -5.5311    1.3832 H         1 <0>         0.1260
     40 H16         3.1413   -7.9205    1.1877 H         1 <0>         0.1310
     41 H17         1.5121   -9.6349    1.8665 H         1 <0>         0.1353
     42 H18        -0.6755   -8.9530    2.7932 H         1 <0>         0.1393
     43 H19        -2.4834   -3.0343   -0.2349 H         1 <0>         0.1382
     44 H20        -5.8478   -5.3009    1.0698 H         1 <0>         0.1341
     45 H21        -4.4090   -6.4640    2.6643 H         1 <0>         0.1365
     46 H22        -6.8876   -4.9823   -0.7924 H         1 <0>         0.0879
     47 H23        -7.2296   -3.7519    0.4475 H         1 <0>         0.0869
     48 H24        -7.6241   -3.4302   -1.2581 H         1 <0>         0.1146
     49 H25         0.9174   -0.2358    2.6882 H         1 <0>         0.4222
@<TRIPOS>BOND
     1    1    2 1
     2    1   26 1
     3    1   27 1
     4    1   28 1
     5    2    7 1
     6    2    3 1
     7    2   49 1
     8    3    4 1
     9    3   29 1
    10    3   30 1
    11    4    5 1
    12    4   31 1
    13    4   32 1
    14    5    6 1
    15    5    8 1
    16    6    7 1
    17    6   33 1
    18    6   34 1
    19    7   35 1
    20    7   36 1
    21    8    9 1
    22    8   19 1
    23    8   10 1
    24   10   11 1
    25   10   37 1
    26   10   38 1
    27   11   16 ar
    28   11   12 ar
    29   12   13 ar
    30   12   39 1
    31   13   14 ar
    32   13   40 1
    33   14   15 ar
    34   14   41 1
    35   15   16 ar
    36   15   42 1
    37   16   17 1
    38   17   18 1
    39   18   23 ar
    40   18   19 ar
    41   19   20 ar
    42   20   21 ar
    43   20   43 1
    44   21   22 ar
    45   21   24 1
    46   22   23 ar
    47   22   44 1
    48   23   45 1
    49   24   25 1
    50   25   46 1
    51   25   47 1
    52   25   48 1
@<TRIPOS>MOLECULE
ZINC19362650
   49    52     0     0     0
SMALL
USER_CHARGES

@<TRIPOS>ATOM
      1 C1          0.0941    1.3815    2.3220 C.3       1 <0>         0.0196
      2 N1          0.1096   -0.0841    2.2226 N.3       1 <0>        -0.5418
      3 C2          0.6952   -0.5193    0.9468 C.3       1 <0>         0.0269
      4 C3          0.7475   -2.0482    0.9082 C.3       1 <0>        -0.0136
      5 N2         -0.6107   -2.5886    1.0529 N.4       1 <0>        -0.3874
      6 C4         -1.1729   -2.1658    2.3423 C.3       1 <0>        -0.0104
      7 C5         -1.2412   -0.6379    2.3928 C.3       1 <0>         0.0280
      8 C6         -0.5621   -4.0557    0.9977 C.3       1 <0>         0.0987
      9 H1         -0.0929   -4.3397    0.0557 H         1 <0>         0.1422
     10 C7          0.3126   -4.5317    2.1120 C.3       1 <0>        -0.1195
     11 C8          0.7158   -5.9616    1.9587 C.ar      1 <0>        -0.0629
     12 C9          1.9941   -6.2640    1.5045 C.ar      1 <0>        -0.1122
     13 C10         2.3624   -7.5845    1.3272 C.ar      1 <0>        -0.0884
     14 C11         1.4674   -8.6052    1.5935 C.ar      1 <0>        -0.1057
     15 C12         0.2000   -8.3049    2.0577 C.ar      1 <0>        -0.0611
     16 C13        -0.1510   -6.9731    2.2509 C.ar      1 <0>        -0.1283
     17 S1         -1.7183   -6.5541    2.9277 S.3       1 <0>         0.0182
     18 C14        -2.5389   -5.5887    1.7112 C.ar      1 <0>        -0.0842
     19 C15        -1.9754   -4.5678    0.9864 C.ar      1 <0>        -0.0871
     20 C16        -2.7876   -3.8705    0.0799 C.ar      1 <0>        -0.1290
     21 C17        -4.1141   -4.1925   -0.1163 C.ar      1 <0>        -0.0551
     22 C18        -4.6719   -5.2432    0.6024 C.ar      1 <0>        -0.1046
     23 C19        -3.8887   -5.9217    1.4989 C.ar      1 <0>        -0.0528
     24 S2         -5.0910   -3.2821   -1.2659 S.3       1 <0>        -0.0918
     25 C20        -6.7248   -4.0644   -1.1697 C.3       1 <0>        -0.1488
     26 H2         -0.2832    1.6753    3.3015 H         1 <0>         0.0847
     27 H3          1.1060    1.7652    2.1924 H         1 <0>         0.0841
     28 H4         -0.5521    1.7915    1.5458 H         1 <0>         0.0396
     29 H5          0.0821   -0.1555    0.1223 H         1 <0>         0.0608
     30 H6          1.7046   -0.1184    0.8544 H         1 <0>         0.1263
     31 H7          1.1685   -2.3734   -0.0432 H         1 <0>         0.1379
     32 H8          1.3718   -2.4111    1.7247 H         1 <0>         0.1442
     33 H9         -2.1757   -2.5781    2.4542 H         1 <0>         0.1356
     34 H10        -0.5388   -2.5280    3.1515 H         1 <0>         0.1417
     35 H11        -1.6445   -0.3234    3.3554 H         1 <0>         0.1251
     36 H12        -1.8862   -0.2760    1.5921 H         1 <0>         0.0606
     37 H13         1.2104   -3.9144    2.1427 H         1 <0>         0.1105
     38 H14        -0.2235   -4.4163    3.0540 H         1 <0>         0.1137
     39 H15         2.6958   -5.4714    1.2908 H         1 <0>         0.1329
     40 H16         3.3565   -7.8211    0.9778 H         1 <0>         0.1360
     41 H17         1.7580   -9.6339    1.4395 H         1 <0>         0.1395
     42 H18        -0.5075   -9.0935    2.2669 H         1 <0>         0.1431
     43 H19        -2.3599   -3.0540   -0.4829 H         1 <0>         0.1187
     44 H20        -5.7053   -5.5208    0.4561 H         1 <0>         0.1449
     45 H21        -4.3219   -6.7359    2.0608 H         1 <0>         0.1481
     46 H22        -7.4085   -3.5634   -1.8550 H         1 <0>         0.1205
     47 H23        -6.6410   -5.1159   -1.4442 H         1 <0>         0.0922
     48 H24        -7.1068   -3.9839   -0.1519 H         1 <0>         0.0918
     49 H25        -1.1914   -2.2432    0.3035 H         1 <0>         0.4184
@<TRIPOS>BOND
     1    1    2 1
     2    1   26 1
     3    1   27 1
     4    1   28 1
     5    2    7 1
     6    2    3 1
     7    3    4 1
     8    3   29 1
     9    3   30 1
    10    4    5 1
    11    4   31 1
    12    4   32 1
    13    5    6 1
    14    5    8 1
    15    5   49 1
    16    6    7 1
    17    6   33 1
    18    6   34 1
    19    7   35 1
    20    7   36 1
    21    8    9 1
    22    8   19 1
    23    8   10 1
    24   10   11 1
    25   10   37 1
    26   10   38 1
    27   11   16 ar
    28   11   12 ar
    29   12   13 ar
    30   12   39 1
    31   13   14 ar
    32   13   40 1
    33   14   15 ar
    34   14   41 1
    35   15   16 ar
    36   15   42 1
    37   16   17 1
    38   17   18 1
    39   18   23 ar
    40   18   19 ar
    41   19   20 ar
    42   20   21 ar
    43   20   43 1
    44   21   22 ar
    45   21   24 1
    46   22   23 ar
    47   22   44 1
    48   23   45 1
    49   24   25 1
    50   25   46 1
    51   25   47 1
    52   25   48 1
@<TRIPOS>MOLECULE
ZINC19362650
   48    51     0     0     0
SMALL
USER_CHARGES

@<TRIPOS>ATOM
      1 C1          0.1598    1.4566    1.9299 C.3       1 <0>         0.0248
      2 N1          0.1797   -0.0122    1.9218 N.3       1 <0>        -0.5453
      3 C2          0.6554   -0.5254    0.6295 C.3       1 <0>         0.0573
      4 C3          0.7370   -2.0525    0.6888 C.3       1 <0>         0.0510
      5 N2         -0.5880   -2.5990    1.0137 N.3       1 <0>        -0.5275
      6 C4         -1.0637   -2.0859    2.3060 C.3       1 <0>         0.0532
      7 C5         -1.1452   -0.5587    2.2467 C.3       1 <0>         0.0574
      8 C6         -0.5680   -4.0678    1.0056 C.3       1 <0>         0.1374
      9 H1         -0.1341   -4.3914    0.0595 H         1 <0>         0.0920
     10 C7          0.3326   -4.5241    2.1074 C.3       1 <0>        -0.1282
     11 C8          0.7045   -5.9659    1.9892 C.ar      1 <0>        -0.0436
     12 C9          1.9620   -6.3075    1.5059 C.ar      1 <0>        -0.1189
     13 C10         2.3003   -7.6399    1.3611 C.ar      1 <0>        -0.0964
     14 C11         1.3956   -8.6339    1.6886 C.ar      1 <0>        -0.1236
     15 C12         0.1492   -8.2942    2.1816 C.ar      1 <0>        -0.0672
     16 C13        -0.1711   -6.9503    2.3415 C.ar      1 <0>        -0.1264
     17 S1         -1.7083   -6.4793    3.0522 S.3       1 <0>        -0.0147
     18 C14        -2.5490   -5.5383    1.8304 C.ar      1 <0>        -0.1066
     19 C15        -1.9901   -4.5526    1.0551 C.ar      1 <0>        -0.0308
     20 C16        -2.8176   -3.8696    0.1516 C.ar      1 <0>        -0.0744
     21 C17        -4.1554   -4.1720    0.0074 C.ar      1 <0>        -0.0779
     22 C18        -4.7094   -5.1879    0.7774 C.ar      1 <0>        -0.1252
     23 C19        -3.9108   -5.8518    1.6712 C.ar      1 <0>        -0.0718
     24 S2         -5.1513   -3.2808   -1.1410 S.3       1 <0>        -0.1116
     25 C20        -6.7953   -4.0278   -0.9683 C.3       1 <0>        -0.1460
     26 H2         -0.1314    1.8106    2.9188 H         1 <0>         0.0692
     27 H3          1.1527    1.8348    1.6864 H         1 <0>         0.0688
     28 H4         -0.5567    1.8143    1.1904 H         1 <0>         0.0270
     29 H5         -0.0381   -0.2285   -0.1572 H         1 <0>         0.0439
     30 H6          1.6433   -0.1164    0.4172 H         1 <0>         0.0809
     31 H7          1.0619   -2.4372   -0.2779 H         1 <0>         0.0818
     32 H8          1.4510   -2.3490    1.4572 H         1 <0>         0.0507
     33 H9         -2.0515   -2.4948    2.5183 H         1 <0>         0.0812
     34 H10        -0.3701   -2.3827    3.0927 H         1 <0>         0.0496
     35 H11        -1.4702   -0.1740    3.2134 H         1 <0>         0.0799
     36 H12        -1.8592   -0.2622    1.4783 H         1 <0>         0.0437
     37 H13         1.2421   -3.9236    2.0899 H         1 <0>         0.0901
     38 H14        -0.1713   -4.3679    3.0612 H         1 <0>         0.0936
     39 H15         2.6710   -5.5360    1.2444 H         1 <0>         0.1275
     40 H16         3.2784   -7.9070    0.9890 H         1 <0>         0.1273
     41 H17         1.6623   -9.6725    1.5599 H         1 <0>         0.1304
     42 H18        -0.5657   -9.0618    2.4387 H         1 <0>         0.1354
     43 H19        -2.3931   -3.0802   -0.4509 H         1 <0>         0.1403
     44 H20        -5.7518   -5.4500    0.6724 H         1 <0>         0.1300
     45 H21        -4.3409   -6.6388    2.2729 H         1 <0>         0.1324
     46 H22        -7.1434   -3.9069    0.0575 H         1 <0>         0.0846
     47 H23        -7.4910   -3.5362   -1.6483 H         1 <0>         0.1104
     48 H24        -6.7394   -5.0891   -1.2103 H         1 <0>         0.0844
@<TRIPOS>BOND
     1    1    2 1
     2    1   26 1
     3    1   27 1
     4    1   28 1
     5    2    7 1
     6    2    3 1
     7    3    4 1
     8    3   29 1
     9    3   30 1
    10    4    5 1
    11    4   31 1
    12    4   32 1
    13    5    6 1
    14    5    8 1
    15    6    7 1
    16    6   33 1
    17    6   34 1
    18    7   35 1
    19    7   36 1
    20    8    9 1
    21    8   19 1
    22    8   10 1
    23   10   11 1
    24   10   37 1
    25   10   38 1
    26   11   16 ar
    27   11   12 ar
    28   12   13 ar
    29   12   39 1
    30   13   14 ar
    31   13   40 1
    32   14   15 ar
    33   14   41 1
    34   15   16 ar
    35   15   42 1
    36   16   17 1
    37   17   18 1
    38   18   23 ar
    39   18   19 ar
    40   19   20 ar
    41   20   21 ar
    42   20   43 1
    43   21   22 ar
    44   21   24 1
    45   22   23 ar
    46   22   44 1
    47   23   45 1
    48   24   25 1
    49   25   46 1
    50   25   47 1
    51   25   48 1
@<TRIPOS>MOLECULE
ZINC01542113
   61    65     0     0     0
SMALL
USER_CHARGES
5-[4-[4-(5-cyano-1H-indol-3-yl)butyl]piperazin-1-yl]benzofuran-2-carboxamide
@<TRIPOS>ATOM
      1 C1         -0.6908   -1.8418   -9.9564 C.ar      1 <0>        -0.0533
      2 C2          0.2910   -0.9109  -10.1276 C.ar      1 <0>        -0.1223
      3 C3          0.4306    0.1367   -9.2201 C.ar      1 <0>         0.1217
      4 C4         -0.4445    0.2270   -8.1198 C.ar      1 <0>        -0.1088
      5 C5         -1.4499   -0.7217   -7.9498 C.ar      1 <0>        -0.0176
      6 C6         -1.5715   -1.7604   -8.8687 C.ar      1 <0>        -0.0509
      7 C7         -2.5971   -2.7459   -8.7030 C.1       1 <0>         0.2516
      8 N1         -3.4107   -3.5277   -8.5716 N.1       1 <0>        -0.4148
      9 C8         -0.0376    1.4225   -7.3759 C.2       1 <0>        -0.1737
     10 C9          1.0082    1.9522   -8.0291 C.2       1 <0>         0.0644
     11 N2          1.3011    1.1974   -9.1324 N.pl3     1 <0>        -0.5878
     12 H1          2.0171    1.3832   -9.7598 H         1 <0>         0.4230
     13 C10        -0.6691    1.9522   -6.1143 C.3       1 <0>        -0.0421
     14 C11        -0.0683    1.2355   -4.9034 C.3       1 <0>        -0.1132
     15 C12        -0.7095    1.7734   -3.6226 C.3       1 <0>        -0.1528
     16 C13        -0.1087    1.0567   -2.4117 C.3       1 <0>        -0.0044
     17 C14        -0.0127    1.0858    0.0080 C.3       1 <0>         0.0031
     18 C15        -0.7300    1.5798    1.2666 C.3       1 <0>         0.0230
     19 N3         -0.7832    3.0484    1.2523 N.pl3     1 <0>        -0.4826
     20 C16        -1.4948    3.5356    0.0624 C.3       1 <0>         0.0189
     21 C17        -0.7771    3.0416   -1.1959 C.3       1 <0>        -0.0039
     22 C18        -1.3696    3.5402    2.4236 C.ar      1 <0>         0.0698
     23 C19        -2.4823    4.3771    2.3463 C.ar      1 <0>        -0.1261
     24 C20        -3.0715    4.8698    3.4890 C.ar      1 <0>        -0.0768
     25 C21        -2.5589    4.5359    4.7374 C.ar      1 <0>         0.0632
     26 C22        -1.4363    3.6918    4.8192 C.ar      1 <0>        -0.1171
     27 C23        -0.8480    3.1911    3.6550 C.ar      1 <0>        -0.0686
     28 C24        -1.1565    3.5406    6.2468 C.2       1 <0>        -0.1139
     29 C25        -2.0959    4.2771    6.8946 C.2       1 <0>        -0.0141
     30 O1         -2.9174    4.8595    5.9964 O.3       1 <0>        -0.1814
     31 C26        -2.2018    4.4184    8.3536 C.2       1 <0>         0.6027
     32 O2         -1.4080    3.8496    9.0791 O.2       1 <0>        -0.5088
     33 N4         -3.1784    5.1782    8.8880 N.am      1 <0>        -0.8362
     34 H2         -0.7910   -2.6497  -10.6661 H         1 <0>         0.1384
     35 H3          0.9625   -0.9859  -10.9702 H         1 <0>         0.1339
     36 H4         -2.1260   -0.6548   -7.1103 H         1 <0>         0.1300
     37 H5          1.5403    2.8426   -7.7283 H         1 <0>         0.1729
     38 H6         -1.7443    1.7758   -6.1444 H         1 <0>         0.0747
     39 H7         -0.4787    3.0225   -6.0344 H         1 <0>         0.0746
     40 H8          1.0069    1.4120   -4.8733 H         1 <0>         0.0747
     41 H9         -0.2587    0.1653   -4.9833 H         1 <0>         0.0754
     42 H10        -1.7847    1.5969   -3.6527 H         1 <0>         0.0872
     43 H11        -0.5191    2.8436   -3.5426 H         1 <0>         0.0900
     44 H12         0.9665    1.2331   -2.3816 H         1 <0>         0.1321
     45 H13        -0.2991   -0.0136   -2.4916 H         1 <0>         0.1300
     46 H14         0.0021   -0.0041    0.0020 H         1 <0>         0.1381
     47 H15         1.0098    1.4634    0.0003 H         1 <0>         0.1410
     48 H16        -1.7436    1.1797    1.2882 H         1 <0>         0.0704
     49 H17        -0.1871    1.2439    2.1500 H         1 <0>         0.1282
     50 H18        -1.5096    4.6255    0.0684 H         1 <0>         0.1303
     51 H19        -2.5172    3.1577    0.0699 H         1 <0>         0.0721
     52 H20         0.2366    3.4417   -1.2171 H         1 <0>         0.1411
     53 H21        -1.3193    3.3776   -2.0798 H         1 <0>         0.1421
     54 H22        -2.8860    4.6416    1.3801 H         1 <0>         0.1422
     55 H23        -3.9329    5.5171    3.4154 H         1 <0>         0.1438
     56 H24         0.0111    2.5395    3.7168 H         1 <0>         0.1379
     57 H25        -0.3635    2.9604    6.6952 H         1 <0>         0.1760
     58 H26        -3.8114    5.6317    8.3096 H         1 <0>         0.4096
     59 H27        -3.2483    5.2714    9.8509 H         1 <0>         0.4159
     60 N5         -0.7506    1.5637   -1.1801 N.4       1 <0>        -0.3985
     61 H28        -1.7146    1.2130   -1.1376 H         1 <0>         0.4256
@<TRIPOS>BOND
     1    1    6 ar
     2    1    2 ar
     3    1   34 1
     4    2    3 ar
     5    2   35 1
     6    3   11 1
     7    3    4 ar
     8    4    5 ar
     9    4    9 1
    10    5    6 ar
    11    5   36 1
    12    6    7 1
    13    7    8 3
    14    9   10 2
    15    9   13 1
    16   10   11 1
    17   10   37 1
    18   11   12 1
    19   13   14 1
    20   13   38 1
    21   13   39 1
    22   14   15 1
    23   14   40 1
    24   14   41 1
    25   15   16 1
    26   15   42 1
    27   15   43 1
    28   16   44 1
    29   16   45 1
    30   16   60 1
    31   17   18 1
    32   17   46 1
    33   17   47 1
    34   17   60 1
    35   18   19 1
    36   18   48 1
    37   18   49 1
    38   19   20 1
    39   19   22 1
    40   20   21 1
    41   20   50 1
    42   20   51 1
    43   21   52 1
    44   21   53 1
    45   21   60 1
    46   22   27 ar
    47   22   23 ar
    48   23   24 ar
    49   23   54 1
    50   24   25 ar
    51   24   55 1
    52   25   30 1
    53   25   26 ar
    54   26   27 ar
    55   26   28 1
    56   27   56 1
    57   28   29 2
    58   28   57 1
    59   29   30 1
    60   29   31 1
    61   31   32 2
    62   31   33 am
    63   33   58 1
    64   33   59 1
    65   60   61 1
@<TRIPOS>MOLECULE
ZINC01530741
   42    44     0     0     0
SMALL
USER_CHARGES

@<TRIPOS>ATOM
      1 C1         -0.0178    1.4648    0.0101 C.3       1 <0>        -0.0473
      2 N1          0.0021   -0.0041    0.0020 N.4       1 <0>        -0.5104
      3 C2         -1.3761   -0.5125    0.0124 C.3       1 <0>        -0.0075
      4 C3         -1.3553   -2.0424    0.0040 C.3       1 <0>        -0.1205
      5 C4         -2.7691   -2.5640    0.0147 C.2       1 <0>        -0.1701
      6 C5         -3.1759   -3.4141   -0.9354 C.2       1 <0>         0.0084
      7 C6         -2.2617   -3.8737   -2.0162 C.ar      1 <0>        -0.0603
      8 C7         -1.0502   -4.4584   -1.6510 C.ar      1 <0>        -0.1120
      9 C8         -0.1817   -4.9254   -2.6144 C.ar      1 <0>        -0.1225
     10 C9         -0.5309   -4.8091   -3.9481 C.ar      1 <0>        -0.1072
     11 C10        -1.7216   -4.2226   -4.3099 C.ar      1 <0>        -0.1263
     12 C11        -2.6129   -3.7258   -3.3561 C.ar      1 <0>        -0.0535
     13 C12        -3.8344   -3.0498   -3.9297 C.3       1 <0>        -0.0765
     14 C13        -4.7567   -2.4533   -2.8869 C.3       1 <0>        -0.0806
     15 C14        -5.3648   -3.4987   -1.9877 C.ar      1 <0>        -0.0737
     16 C15        -4.5615   -3.9515   -0.9605 C.ar      1 <0>        -0.0697
     17 C16        -5.0352   -4.8627   -0.0270 C.ar      1 <0>        -0.0955
     18 C17        -6.3272   -5.3414   -0.1696 C.ar      1 <0>        -0.1191
     19 C18        -7.1195   -4.9199   -1.2225 C.ar      1 <0>        -0.1080
     20 C19        -6.6408   -3.9814   -2.1491 C.ar      1 <0>        -0.1083
     21 H1          1.0047    1.8421    0.0024 H         1 <0>         0.1266
     22 H2         -0.5450    1.8259   -0.8730 H         1 <0>         0.1232
     23 H3         -0.5280    1.8163    0.9069 H         1 <0>         0.1239
     24 H4          0.4744   -0.3295   -0.8281 H         1 <0>         0.4301
     25 H5         -1.8863   -0.1610    0.9092 H         1 <0>         0.1332
     26 H6         -1.9033   -0.1515   -0.8706 H         1 <0>         0.1314
     27 H7         -0.8451   -2.3939   -0.8928 H         1 <0>         0.0991
     28 H8         -0.8281   -2.4035    0.8871 H         1 <0>         0.0962
     29 H9         -3.4541   -2.2517    0.7892 H         1 <0>         0.1310
     30 H10        -0.7900   -4.5458   -0.6065 H         1 <0>         0.1235
     31 H11         0.7582   -5.3762   -2.3319 H         1 <0>         0.1290
     32 H12         0.1367   -5.1814   -4.7112 H         1 <0>         0.1265
     33 H13        -1.9733   -4.1443   -5.3573 H         1 <0>         0.1247
     34 H14        -3.5084   -2.2546   -4.6003 H         1 <0>         0.0855
     35 H15        -4.3952   -3.7815   -4.5113 H         1 <0>         0.0834
     36 H16        -4.1905   -1.7497   -2.2766 H         1 <0>         0.0703
     37 H17        -5.5577   -1.9136   -3.3920 H         1 <0>         0.0793
     38 H18        -4.4114   -5.1904    0.7915 H         1 <0>         0.1267
     39 H19        -6.7188   -6.0491    0.5460 H         1 <0>         0.1278
     40 H20        -8.1181   -5.3161   -1.3327 H         1 <0>         0.1275
     41 H21        -7.2557   -3.6486   -2.9723 H         1 <0>         0.1315
     42 H22         0.4901   -0.3383    0.8195 H         1 <0>         0.4302
@<TRIPOS>BOND
     1    1    2 1
     2    1   21 1
     3    1   22 1
     4    1   23 1
     5    2    3 1
     6    2   24 1
     7    2   42 1
     8    3    4 1
     9    3   25 1
    10    3   26 1
    11    4    5 1
    12    4   27 1
    13    4   28 1
    14    5    6 2
    15    5   29 1
    16    6   16 1
    17    6    7 1
    18    7   12 ar
    19    7    8 ar
    20    8    9 ar
    21    8   30 1
    22    9   10 ar
    23    9   31 1
    24   10   11 ar
    25   10   32 1
    26   11   12 ar
    27   11   33 1
    28   12   13 1
    29   13   14 1
    30   13   34 1
    31   13   35 1
    32   14   15 1
    33   14   36 1
    34   14   37 1
    35   15   20 ar
    36   15   16 ar
    37   16   17 ar
    38   17   18 ar
    39   17   38 1
    40   18   19 ar
    41   18   39 1
    42   19   20 ar
    43   19   40 1
    44   20   41 1
@<TRIPOS>MOLECULE
ZINC40424136
   70    73     0     0     0
SMALL
USER_CHARGES

@<TRIPOS>ATOM
      1 C1          5.9123   -5.5891    3.5577 C.ar      1 <0>        -0.1140
      2 C2          6.0948   -5.7851    2.2006 C.ar      1 <0>        -0.1141
      3 C3          5.8526   -4.7562    1.3133 C.ar      1 <0>        -0.1068
      4 C4          5.4233   -3.5176    1.7871 C.ar      1 <0>        -0.0438
      5 C5          5.2411   -3.3259    3.1555 C.ar      1 <0>        -0.1044
      6 C6          5.4864   -4.3620    4.0335 C.ar      1 <0>        -0.1225
      7 C7          5.1619   -2.4079    0.8387 C.ar      1 <0>        -0.0477
      8 C8          6.1609   -1.9832   -0.0340 C.ar      1 <0>        -0.0977
      9 C9          5.9128   -0.9504   -0.9152 C.ar      1 <0>        -0.1067
     10 C10         4.6741   -0.3330   -0.9358 C.ar      1 <0>        -0.1086
     11 C11         3.6751   -0.7449   -0.0754 C.ar      1 <0>        -0.1198
     12 C12         3.9082   -1.7861    0.8122 C.ar      1 <0>         0.1575
     13 N1          2.8993   -2.2071    1.6782 N.pl3     1 <0>        -0.6689
     14 C13         2.0501   -3.3614    1.3458 C.3       1 <0>         0.1220
     15 C14         0.5838   -2.9516    1.5188 C.3       1 <0>        -0.0213
     16 N2          0.3816   -2.4203    2.8726 N.4       1 <0>        -0.3806
     17 C15         1.1596   -1.1873    3.0474 C.3       1 <0>        -0.0274
     18 C16         2.6581   -1.5132    2.9528 C.3       1 <0>         0.1165
     19 C17        -1.0442   -2.1302    3.0749 C.3       1 <0>        -0.0101
     20 C18        -1.2756   -1.6949    4.5233 C.3       1 <0>        -0.1488
     21 C19        -2.7606   -1.3928    4.7340 C.3       1 <0>        -0.1174
     22 C20        -2.9920   -0.9575    6.1824 C.3       1 <0>        -0.1056
     23 C21        -4.4770   -0.6554    6.3931 C.3       1 <0>        -0.1423
     24 C22        -4.7049   -0.2266    7.8198 C.2       1 <0>         0.5112
     25 O1         -3.7715   -0.1684    8.5919 O.2       1 <0>        -0.5383
     26 N3         -5.9460    0.0921    8.2375 N.am      1 <0>        -0.7273
     27 C23        -6.1676    0.5089    9.6244 C.3       1 <0>         0.1564
     28 C24        -7.6303    0.8065    9.8319 C.ar      1 <0>        -0.0871
     29 C25        -8.1116    2.0842    9.6077 C.ar      1 <0>        -0.1001
     30 C26        -9.4494    2.3635    9.7958 C.ar      1 <0>        -0.0708
     31 C27       -10.3183    1.3532   10.2129 C.ar      1 <0>        -0.0127
     32 C28        -9.8258    0.0660   10.4368 C.ar      1 <0>        -0.0707
     33 C29        -8.4867   -0.2006   10.2403 C.ar      1 <0>        -0.1001
     34 C30       -11.7081    1.6361   10.4105 C.1       1 <0>         0.2426
     35 N4        -12.8106    1.8605   10.5673 N.1       1 <0>        -0.4000
     36 H1          6.0987   -6.3985    4.2480 H         1 <0>         0.1245
     37 H2          6.4278   -6.7451    1.8347 H         1 <0>         0.1264
     38 H3          5.9958   -4.9102    0.2540 H         1 <0>         0.1232
     39 H4          4.9090   -2.3681    3.5281 H         1 <0>         0.1169
     40 H5          5.3455   -4.2146    5.0941 H         1 <0>         0.1229
     41 H6          7.1291   -2.4616   -0.0210 H         1 <0>         0.1292
     42 H7          6.6884   -0.6223   -1.5912 H         1 <0>         0.1309
     43 H8          4.4879    0.4750   -1.6278 H         1 <0>         0.1288
     44 H9          2.7108   -0.2590   -0.0960 H         1 <0>         0.1214
     45 H10         2.2272   -3.6611    0.3129 H         1 <0>         0.1144
     46 H11         2.2802   -4.1902    2.0153 H         1 <0>         0.0770
     47 H12         0.3319   -2.1850    0.7861 H         1 <0>         0.1299
     48 H13        -0.0565   -3.8211    1.3702 H         1 <0>         0.1352
     49 H14         0.8903   -0.4741    2.2684 H         1 <0>         0.1304
     50 H15         0.9436   -0.7567    4.0251 H         1 <0>         0.1373
     51 H16         2.9485   -2.1586    3.7818 H         1 <0>         0.0801
     52 H17         3.2374   -0.5904    2.9827 H         1 <0>         0.1155
     53 H18        -1.3513   -1.3300    2.4016 H         1 <0>         0.1282
     54 H19        -1.6302   -3.0254    2.8665 H         1 <0>         0.1305
     55 H20        -0.9685   -2.4951    5.1967 H         1 <0>         0.0882
     56 H21        -0.6896   -0.7998    4.7317 H         1 <0>         0.0879
     57 H22        -3.0677   -0.5926    4.0607 H         1 <0>         0.0746
     58 H23        -3.3466   -2.2880    4.5256 H         1 <0>         0.0752
     59 H24        -2.6849   -1.7577    6.8558 H         1 <0>         0.0751
     60 H25        -2.4060   -0.0624    6.3908 H         1 <0>         0.0746
     61 H26        -4.7841    0.1448    5.7198 H         1 <0>         0.0962
     62 H27        -5.0630   -1.5505    6.1847 H         1 <0>         0.0964
     63 H28        -6.6926    0.0456    7.6199 H         1 <0>         0.4041
     64 H29        -5.8605   -0.2913   10.2978 H         1 <0>         0.0823
     65 H30        -5.5816    1.4041    9.8328 H         1 <0>         0.0823
     66 H31        -7.4384    2.8646    9.2852 H         1 <0>         0.1362
     67 H32        -9.8237    3.3614    9.6211 H         1 <0>         0.1377
     68 H33       -10.4925   -0.7201   10.7595 H         1 <0>         0.1377
     69 H34        -8.1052   -1.1967   10.4092 H         1 <0>         0.1362
     70 H35         0.6823   -3.1052    3.5498 H         1 <0>         0.4218
@<TRIPOS>BOND
     1    1    6 ar
     2    1    2 ar
     3    1   36 1
     4    2    3 ar
     5    2   37 1
     6    3    4 ar
     7    3   38 1
     8    4    5 ar
     9    4    7 1
    10    5    6 ar
    11    5   39 1
    12    6   40 1
    13    7   12 ar
    14    7    8 ar
    15    8    9 ar
    16    8   41 1
    17    9   10 ar
    18    9   42 1
    19   10   11 ar
    20   10   43 1
    21   11   12 ar
    22   11   44 1
    23   12   13 1
    24   13   18 1
    25   13   14 1
    26   14   15 1
    27   14   45 1
    28   14   46 1
    29   15   16 1
    30   15   47 1
    31   15   48 1
    32   16   17 1
    33   16   19 1
    34   16   70 1
    35   17   18 1
    36   17   49 1
    37   17   50 1
    38   18   51 1
    39   18   52 1
    40   19   20 1
    41   19   53 1
    42   19   54 1
    43   20   21 1
    44   20   55 1
    45   20   56 1
    46   21   22 1
    47   21   57 1
    48   21   58 1
    49   22   23 1
    50   22   59 1
    51   22   60 1
    52   23   24 1
    53   23   61 1
    54   23   62 1
    55   24   25 2
    56   24   26 am
    57   26   27 1
    58   26   63 1
    59   27   28 1
    60   27   64 1
    61   27   65 1
    62   28   33 ar
    63   28   29 ar
    64   29   30 ar
    65   29   66 1
    66   30   31 ar
    67   30   67 1
    68   31   32 ar
    69   31   34 1
    70   32   33 ar
    71   32   68 1
    72   33   69 1
    73   34   35 3
@<TRIPOS>MOLECULE
ZINC40424136
   69    72     0     0     0
SMALL
USER_CHARGES

@<TRIPOS>ATOM
      1 C1          5.9126   -5.5883    3.5585 C.ar      1 <0>        -0.1192
      2 C2          6.0955   -5.7845    2.2014 C.ar      1 <0>        -0.1205
      3 C3          5.8532   -4.7557    1.3140 C.ar      1 <0>        -0.1099
      4 C4          5.4235   -3.5172    1.7875 C.ar      1 <0>        -0.0346
      5 C5          5.2410   -3.3253    3.1559 C.ar      1 <0>        -0.0922
      6 C6          5.4864   -4.3613    4.0340 C.ar      1 <0>        -0.1200
      7 C7          5.1620   -2.4077    0.8389 C.ar      1 <0>        -0.0602
      8 C8          6.1610   -1.9831   -0.0338 C.ar      1 <0>        -0.1006
      9 C9          5.9128   -0.9504   -0.9152 C.ar      1 <0>        -0.1235
     10 C10         4.6740   -0.3332   -0.9360 C.ar      1 <0>        -0.1114
     11 C11         3.6750   -0.7451   -0.0756 C.ar      1 <0>        -0.1265
     12 C12         3.9082   -1.7861    0.8122 C.ar      1 <0>         0.1868
     13 N1          2.8993   -2.2071    1.6782 N.pl3     1 <0>        -0.6736
     14 C13         2.0510   -3.3614    1.3445 C.3       1 <0>         0.1546
     15 C14         0.5835   -2.9473    1.4973 C.3       1 <0>         0.0421
     16 N2          0.3728   -2.3890    2.8396 N.3       1 <0>        -0.5341
     17 C15         1.1641   -1.1675    3.0390 C.3       1 <0>         0.0382
     18 C16         2.6593   -1.5124    2.9522 C.3       1 <0>         0.1482
     19 C17        -1.0533   -2.1389    3.0878 C.3       1 <0>         0.0561
     20 C18        -1.2618   -1.7981    4.5647 C.3       1 <0>        -0.1155
     21 C19        -2.7472   -1.5375    4.8232 C.3       1 <0>        -0.1184
     22 C20        -2.9557   -1.1967    6.3001 C.3       1 <0>        -0.1033
     23 C21        -4.4410   -0.9362    6.5586 C.3       1 <0>        -0.1405
     24 C22        -4.6464   -0.6005    8.0133 C.2       1 <0>         0.5123
     25 O1         -3.6982   -0.5725    8.7690 O.2       1 <0>        -0.5356
     26 N3         -5.8839   -0.3315    8.4746 N.am      1 <0>        -0.7314
     27 C23        -6.0835   -0.0052    9.8888 C.3       1 <0>         0.1555
     28 C24        -7.5465    0.2515   10.1434 C.ar      1 <0>        -0.0815
     29 C25        -8.0548    1.5313   10.0085 C.ar      1 <0>        -0.1006
     30 C26        -9.3930    1.7733   10.2400 C.ar      1 <0>        -0.0708
     31 C27       -10.2351    0.7231   10.6108 C.ar      1 <0>        -0.0183
     32 C28        -9.7156   -0.5661   10.7447 C.ar      1 <0>        -0.0707
     33 C29        -8.3764   -0.7948   10.5054 C.ar      1 <0>        -0.1004
     34 C30       -11.6252    0.9670   10.8532 C.1       1 <0>         0.2473
     35 N4        -12.7280    1.1606   11.0455 N.1       1 <0>        -0.4069
     36 H1          6.0992   -6.3976    4.2489 H         1 <0>         0.1200
     37 H2          6.4288   -6.7445    1.8357 H         1 <0>         0.1212
     38 H3          5.9966   -4.9099    0.2547 H         1 <0>         0.1194
     39 H4          4.9086   -2.3676    3.5283 H         1 <0>         0.1197
     40 H5          5.3453   -4.2137    5.0946 H         1 <0>         0.1211
     41 H6          7.1293   -2.4613   -0.0206 H         1 <0>         0.1231
     42 H7          6.6884   -0.6223   -1.5912 H         1 <0>         0.1235
     43 H8          4.4877    0.4747   -1.6281 H         1 <0>         0.1219
     44 H9          2.7107   -0.2593   -0.0964 H         1 <0>         0.1198
     45 H10         2.2394   -3.6691    0.3160 H         1 <0>         0.0687
     46 H11         2.2713   -4.1859    2.0225 H         1 <0>         0.0572
     47 H12         0.3379   -2.1950    0.7478 H         1 <0>         0.0337
     48 H13        -0.0564   -3.8192    1.3614 H         1 <0>         0.0786
     49 H14         0.9104   -0.4400    2.2680 H         1 <0>         0.0338
     50 H15         0.9452   -0.7486    4.0211 H         1 <0>         0.0825
     51 H16         2.9370   -2.1626    3.7818 H         1 <0>         0.0611
     52 H17         3.2502   -0.5970    2.9870 H         1 <0>         0.0698
     53 H18        -1.3884   -1.3045    2.4716 H         1 <0>         0.0307
     54 H19        -1.6278   -3.0303    2.8360 H         1 <0>         0.0733
     55 H20        -0.9267   -2.6324    5.1809 H         1 <0>         0.0724
     56 H21        -0.6874   -0.9067    4.8166 H         1 <0>         0.0628
     57 H22        -3.0823   -0.7032    4.2070 H         1 <0>         0.0607
     58 H23        -3.3216   -2.4289    4.5714 H         1 <0>         0.0635
     59 H24        -2.6206   -2.0310    6.9163 H         1 <0>         0.0712
     60 H25        -2.3812   -0.3053    6.5520 H         1 <0>         0.0696
     61 H26        -4.7761   -0.1019    5.9424 H         1 <0>         0.0936
     62 H27        -5.0155   -1.8276    6.3068 H         1 <0>         0.0943
     63 H28        -6.6423   -0.3539    7.8703 H         1 <0>         0.4029
     64 H29        -5.7484   -0.8395   10.5050 H         1 <0>         0.0811
     65 H30        -5.5091    0.8862   10.1406 H         1 <0>         0.0810
     66 H31        -7.4023    2.3426    9.7216 H         1 <0>         0.1367
     67 H32        -9.7883    2.7729   10.1351 H         1 <0>         0.1365
     68 H33       -10.3615   -1.3829   11.0312 H         1 <0>         0.1366
     69 H34        -7.9740   -1.7921   10.6046 H         1 <0>         0.1369
@<TRIPOS>BOND
     1    1    6 ar
     2    1    2 ar
     3    1   36 1
     4    2    3 ar
     5    2   37 1
     6    3    4 ar
     7    3   38 1
     8    4    5 ar
     9    4    7 1
    10    5    6 ar
    11    5   39 1
    12    6   40 1
    13    7   12 ar
    14    7    8 ar
    15    8    9 ar
    16    8   41 1
    17    9   10 ar
    18    9   42 1
    19   10   11 ar
    20   10   43 1
    21   11   12 ar
    22   11   44 1
    23   12   13 1
    24   13   18 1
    25   13   14 1
    26   14   15 1
    27   14   45 1
    28   14   46 1
    29   15   16 1
    30   15   47 1
    31   15   48 1
    32   16   17 1
    33   16   19 1
    34   17   18 1
    35   17   49 1
    36   17   50 1
    37   18   51 1
    38   18   52 1
    39   19   20 1
    40   19   53 1
    41   19   54 1
    42   20   21 1
    43   20   55 1
    44   20   56 1
    45   21   22 1
    46   21   57 1
    47   21   58 1
    48   22   23 1
    49   22   59 1
    50   22   60 1
    51   23   24 1
    52   23   61 1
    53   23   62 1
    54   24   25 2
    55   24   26 am
    56   26   27 1
    57   26   63 1
    58   27   28 1
    59   27   64 1
    60   27   65 1
    61   28   33 ar
    62   28   29 ar
    63   29   30 ar
    64   29   66 1
    65   30   31 ar
    66   30   67 1
    67   31   32 ar
    68   31   34 1
    69   32   33 ar
    70   32   68 1
    71   33   69 1
    72   34   35 3
@<TRIPOS>MOLECULE
ZINC00009073
   38    41     0     0     0
SMALL
USER_CHARGES

@<TRIPOS>ATOM
      1 C1         -0.0178    1.4648    0.0101 C.3       1 <0>        -0.0530
      2 N1          0.0021   -0.0041    0.0020 N.4       1 <0>        -0.3818
      3 C2         -1.3707   -0.5099    0.0093 C.3       1 <0>        -0.0045
      4 C3         -1.3945   -2.0165   -0.1908 C.3       1 <0>        -0.1054
      5 C4         -0.2778   -2.7021    0.5444 C.ar      1 <0>        -0.0840
      6 C5         -0.2629   -4.0910    0.5709 C.ar      1 <0>        -0.1053
      7 C6          0.7244   -4.7743    1.2518 C.ar      1 <0>        -0.0885
      8 C7          1.7146   -4.0754    1.9128 C.ar      1 <0>        -0.0992
      9 C8          1.7194   -2.6860    1.8733 C.ar      1 <0>        -0.0068
     10 C9          0.7130   -1.9965    1.1919 C.ar      1 <0>        -0.1248
     11 C10         0.7133   -0.4906    1.1934 C.3       1 <0>         0.0895
     12 H1          0.2077   -0.1297    2.0890 H         1 <0>         0.1464
     13 C11         2.1391    0.0560    1.1696 C.3       1 <0>        -0.0929
     14 C12         2.9742   -0.5785    2.2479 C.ar      1 <0>        -0.0798
     15 C13         2.7759   -1.9188    2.5745 C.ar      1 <0>        -0.0653
     16 C14         3.5639   -2.5230    3.5530 C.ar      1 <0>         0.1042
     17 C15         4.5367   -1.7751    4.2088 C.ar      1 <0>         0.0998
     18 C16         4.7147   -0.4388    3.8881 C.ar      1 <0>        -0.1167
     19 C17         3.9357    0.1560    2.9107 C.ar      1 <0>        -0.0938
     20 O1          5.3124   -2.3551    5.1634 O.3       1 <0>        -0.4826
     21 O2          3.3828   -3.8338    3.8646 O.3       1 <0>        -0.4754
     22 H2          1.0047    1.8421    0.0024 H         1 <0>         0.1274
     23 H3         -0.5450    1.8259   -0.8730 H         1 <0>         0.1292
     24 H4         -0.5280    1.8163    0.9069 H         1 <0>         0.1253
     25 H5         -1.8367   -0.2679    0.9645 H         1 <0>         0.1303
     26 H6         -1.9326   -0.0329   -0.7937 H         1 <0>         0.1395
     27 H7         -2.3469   -2.4064    0.1685 H         1 <0>         0.1232
     28 H8         -1.3037   -2.2338   -1.2551 H         1 <0>         0.1049
     29 H9         -1.0333   -4.6427    0.0527 H         1 <0>         0.1363
     30 H10         0.7220   -5.8542    1.2677 H         1 <0>         0.1404
     31 H11         2.4813   -4.6056    2.4582 H         1 <0>         0.1525
     32 H12         2.5874   -0.1542    0.1986 H         1 <0>         0.1009
     33 H13         2.1121    1.1345    1.3252 H         1 <0>         0.1081
     34 H14         5.4652    0.1418    4.4038 H         1 <0>         0.1453
     35 H15         4.0810    1.1979    2.6663 H         1 <0>         0.1401
     36 H16         6.1269   -2.7493    4.8224 H         1 <0>         0.3972
     37 H17         3.9208   -4.4411    3.3384 H         1 <0>         0.3936
     38 H18         0.4752   -0.3291   -0.8278 H         1 <0>         0.4258
@<TRIPOS>BOND
     1    1    2 1
     2    1   22 1
     3    1   23 1
     4    1   24 1
     5    2   11 1
     6    2    3 1
     7    2   38 1
     8    3    4 1
     9    3   25 1
    10    3   26 1
    11    4    5 1
    12    4   27 1
    13    4   28 1
    14    5   10 ar
    15    5    6 ar
    16    6    7 ar
    17    6   29 1
    18    7    8 ar
    19    7   30 1
    20    8    9 ar
    21    8   31 1
    22    9   15 1
    23    9   10 ar
    24   10   11 1
    25   11   12 1
    26   11   13 1
    27   13   14 1
    28   13   32 1
    29   13   33 1
    30   14   19 ar
    31   14   15 ar
    32   15   16 ar
    33   16   17 ar
    34   16   21 1
    35   17   18 ar
    36   17   20 1
    37   18   19 ar
    38   18   34 1
    39   19   35 1
    40   20   36 1
    41   21   37 1
@<TRIPOS>MOLECULE
ZINC00009073
   37    40     0     0     0
SMALL
USER_CHARGES

@<TRIPOS>ATOM
      1 C1         -0.0178    1.4648    0.0101 C.3       1 <0>         0.0190
      2 N1          0.0021   -0.0041    0.0020 N.3       1 <0>        -0.5347
      3 C2         -1.3554   -0.5468   -0.0771 C.3       1 <0>         0.0548
      4 C3         -1.3255   -2.0437   -0.3363 C.3       1 <0>        -0.0776
      5 C4         -0.2136   -2.7298    0.4050 C.ar      1 <0>        -0.0660
      6 C5         -0.1676   -4.1185    0.3764 C.ar      1 <0>        -0.1168
      7 C6          0.8160   -4.8083    1.0555 C.ar      1 <0>        -0.1183
      8 C7          1.7732   -4.1167    1.7707 C.ar      1 <0>        -0.1100
      9 C8          1.7473   -2.7271    1.7884 C.ar      1 <0>        -0.0402
     10 C9          0.7422   -2.0318    1.1101 C.ar      1 <0>        -0.0602
     11 C10         0.7070   -0.5281    1.1816 C.3       1 <0>         0.1292
     12 H1          0.1788   -0.2212    2.0843 H         1 <0>         0.0565
     13 C11         2.1199    0.0508    1.2084 C.3       1 <0>        -0.0723
     14 C12         2.9454   -0.6100    2.2786 C.ar      1 <0>        -0.0656
     15 C13         2.7694   -1.9666    2.5450 C.ar      1 <0>        -0.0523
     16 C14         3.5484   -2.5938    3.5165 C.ar      1 <0>         0.0945
     17 C15         4.4897   -1.8532    4.2246 C.ar      1 <0>         0.0806
     18 C16         4.6455   -0.5013    3.9627 C.ar      1 <0>        -0.1259
     19 C17         3.8757    0.1166    2.9923 C.ar      1 <0>        -0.1047
     20 O1          5.2558   -2.4554    5.1733 O.3       1 <0>        -0.4864
     21 O2          3.3897   -3.9199    3.7698 O.3       1 <0>        -0.4768
     22 H2          1.0047    1.8421    0.0024 H         1 <0>         0.0749
     23 H3         -0.5450    1.8259   -0.8730 H         1 <0>         0.0732
     24 H4         -0.5280    1.8163    0.9069 H         1 <0>         0.0286
     25 H5         -1.8730   -0.3560    0.8630 H         1 <0>         0.0357
     26 H6         -1.8920   -0.0533   -0.8874 H         1 <0>         0.0839
     27 H7         -2.2767   -2.4752   -0.0246 H         1 <0>         0.0807
     28 H8         -1.1956   -2.2145   -1.4050 H         1 <0>         0.0833
     29 H9         -0.9115   -4.6650   -0.1844 H         1 <0>         0.1227
     30 H10         0.8367   -5.8878    1.0279 H         1 <0>         0.1259
     31 H11         2.5378   -4.6525    2.3137 H         1 <0>         0.1407
     32 H12         2.5925   -0.1106    0.2395 H         1 <0>         0.0936
     33 H13         2.0656    1.1213    1.4066 H         1 <0>         0.0843
     34 H14         5.3712    0.0734    4.5190 H         1 <0>         0.1363
     35 H15         4.0042    1.1703    2.7931 H         1 <0>         0.1343
     36 H16         6.0862   -2.8185    4.8360 H         1 <0>         0.3882
     37 H17         3.9530   -4.4932    3.2322 H         1 <0>         0.3868
@<TRIPOS>BOND
     1    1    2 1
     2    1   22 1
     3    1   23 1
     4    1   24 1
     5    2   11 1
     6    2    3 1
     7    3    4 1
     8    3   25 1
     9    3   26 1
    10    4    5 1
    11    4   27 1
    12    4   28 1
    13    5   10 ar
    14    5    6 ar
    15    6    7 ar
    16    6   29 1
    17    7    8 ar
    18    7   30 1
    19    8    9 ar
    20    8   31 1
    21    9   15 1
    22    9   10 ar
    23   10   11 1
    24   11   12 1
    25   11   13 1
    26   13   14 1
    27   13   32 1
    28   13   33 1
    29   14   19 ar
    30   14   15 ar
    31   15   16 ar
    32   16   17 ar
    33   16   21 1
    34   17   18 ar
    35   17   20 1
    36   18   19 ar
    37   18   34 1
    38   19   35 1
    39   20   36 1
    40   21   37 1
@<TRIPOS>MOLECULE
ZINC00537822
   50    52     0     0     0
SMALL
USER_CHARGES

@<TRIPOS>ATOM
      1 C1         -0.0169    1.3952    0.0097 C.ar      1 <0>        -0.0260
      2 C2          1.1683    2.0970    0.0022 C.ar      1 <0>        -0.1650
      3 C3          2.3789    1.4198   -0.0130 C.ar      1 <0>         0.1439
      4 C4          2.4047    0.0329   -0.0212 C.ar      1 <0>        -0.1670
      5 C5          1.2267   -0.6810   -0.0142 C.ar      1 <0>        -0.0432
      6 C6          0.0021   -0.0041    0.0020 C.ar      1 <0>        -0.1967
      7 C7         -1.2591   -0.7596    0.0105 C.2       1 <0>         0.4038
      8 O1         -2.3189   -0.1702    0.0242 O.2       1 <0>        -0.4483
      9 C8         -1.2348   -2.2664    0.0022 C.3       1 <0>        -0.1653
     10 C9         -2.6689   -2.7996    0.0135 C.3       1 <0>        -0.1429
     11 C10        -2.6443   -4.3293    0.0051 C.3       1 <0>        -0.0092
     12 N1         -4.0211   -4.8413    0.0160 N.4       1 <0>        -0.3830
     13 C11        -4.6726   -4.4620    1.2755 C.3       1 <0>        -0.0093
     14 C12        -6.1318   -4.9225    1.2582 C.3       1 <0>        -0.1330
     15 C13        -6.1791   -6.4445    1.0954 C.3       1 <0>         0.1746
     16 C14        -5.4322   -6.8346   -0.1834 C.3       1 <0>        -0.1706
     17 C15        -3.9990   -6.3033   -0.1127 C.3       1 <0>        -0.0017
     18 C16        -7.6135   -6.8966    0.9991 C.ar      1 <0>        -0.1262
     19 C17        -8.5661   -6.0599    0.4482 C.ar      1 <0>        -0.1006
     20 C18        -9.8818   -6.4740    0.3596 C.ar      1 <0>        -0.1039
     21 C19       -10.2453   -7.7262    0.8224 C.ar      1 <0>        -0.0247
     22 C20        -9.2914   -8.5631    1.3735 C.ar      1 <0>        -0.1016
     23 C21        -7.9750   -8.1501    1.4564 C.ar      1 <0>        -0.0934
     24 Cl1       -11.8977   -8.2468    0.7119 Cl        1 <0>        -0.0500
     25 O2         -5.5554   -7.0652    2.2213 O.3       1 <0>        -0.5474
     26 F1          3.5378    2.1141   -0.0204 F         1 <0>        -0.1258
     27 H1         -0.9587    1.9236    0.0260 H         1 <0>         0.1459
     28 H2          1.1551    3.1769    0.0077 H         1 <0>         0.1477
     29 H3          3.3506   -0.4883   -0.0334 H         1 <0>         0.1469
     30 H4          1.2482   -1.7608   -0.0213 H         1 <0>         0.1412
     31 H5         -0.7241   -2.6166   -0.8948 H         1 <0>         0.1127
     32 H6         -0.7064   -2.6261    0.8850 H         1 <0>         0.1127
     33 H7         -3.1796   -2.4493    0.9105 H         1 <0>         0.0952
     34 H8         -3.1973   -2.4398   -0.8693 H         1 <0>         0.0947
     35 H9         -2.1335   -4.6796   -0.8919 H         1 <0>         0.1333
     36 H10        -2.1158   -4.6891    0.8880 H         1 <0>         0.1327
     37 H11        -4.1530   -4.9339    2.1093 H         1 <0>         0.1388
     38 H12        -4.6353   -3.3788    1.3915 H         1 <0>         0.1356
     39 H13        -6.6132   -4.6415    2.1949 H         1 <0>         0.1238
     40 H14        -6.6524   -4.4509    0.4248 H         1 <0>         0.1045
     41 H15        -5.4137   -7.9204   -0.2771 H         1 <0>         0.1175
     42 H16        -5.9384   -6.4027   -1.0467 H         1 <0>         0.1009
     43 H17        -3.4644   -6.5795   -1.0215 H         1 <0>         0.1329
     44 H18        -3.4937   -6.7360    0.7507 H         1 <0>         0.1354
     45 H19        -8.2824   -5.0823    0.0874 H         1 <0>         0.1334
     46 H20       -10.6260   -5.8201   -0.0704 H         1 <0>         0.1408
     47 H21        -9.5746   -9.5405    1.7352 H         1 <0>         0.1414
     48 H22        -7.2294   -8.8051    1.8823 H         1 <0>         0.1323
     49 H23        -5.5495   -8.0314    2.1846 H         1 <0>         0.3907
     50 H24        -4.5327   -4.4442   -0.7578 H         1 <0>         0.4215
@<TRIPOS>BOND
     1    1    6 ar
     2    1    2 ar
     3    1   27 1
     4    2    3 ar
     5    2   28 1
     6    3    4 ar
     7    3   26 1
     8    4    5 ar
     9    4   29 1
    10    5    6 ar
    11    5   30 1
    12    6    7 1
    13    7    8 2
    14    7    9 1
    15    9   10 1
    16    9   31 1
    17    9   32 1
    18   10   11 1
    19   10   33 1
    20   10   34 1
    21   11   12 1
    22   11   35 1
    23   11   36 1
    24   12   17 1
    25   12   13 1
    26   12   50 1
    27   13   14 1
    28   13   37 1
    29   13   38 1
    30   14   15 1
    31   14   39 1
    32   14   40 1
    33   15   16 1
    34   15   18 1
    35   15   25 1
    36   16   17 1
    37   16   41 1
    38   16   42 1
    39   17   43 1
    40   17   44 1
    41   18   23 ar
    42   18   19 ar
    43   19   20 ar
    44   19   45 1
    45   20   21 ar
    46   20   46 1
    47   21   22 ar
    48   21   24 1
    49   22   23 ar
    50   22   47 1
    51   23   48 1
    52   25   49 1
@<TRIPOS>MOLECULE
ZINC03870312
   44    45     0     0     0
SMALL
USER_CHARGES

@<TRIPOS>ATOM
      1 C1          2.0344   -2.4614   -1.6117 C.3       1 <0>        -0.1564
      2 C2          1.0053   -1.9689   -0.5924 C.3       1 <0>        -0.1483
      3 C3         -0.3778   -2.5081   -0.9628 C.3       1 <0>        -0.0221
      4 N1         -1.3660   -2.0352    0.0160 N.4       1 <0>        -0.3808
      5 C4         -1.4822   -0.5735   -0.0727 C.3       1 <0>        -0.0216
      6 C5         -2.3990   -0.0662    1.0422 C.3       1 <0>        -0.1495
      7 C6         -2.5852    1.4458    0.9011 C.3       1 <0>        -0.1554
      8 C7         -2.6701   -2.6483   -0.2695 C.3       1 <0>         0.0206
      9 H1         -3.4102   -2.2854    0.4437 H         1 <0>         0.1433
     10 C8         -2.5573   -4.1738   -0.1653 C.3       1 <0>        -0.1378
     11 C9         -3.9635   -4.7663   -0.2291 C.3       1 <0>        -0.0773
     12 C10        -4.7118   -4.2271   -1.4202 C.ar      1 <0>        -0.0686
     13 C11        -5.8362   -4.9235   -1.8466 C.ar      1 <0>        -0.1219
     14 C12        -6.5697   -4.4809   -2.9279 C.ar      1 <0>        -0.0880
     15 C13        -6.1863   -3.3333   -3.5952 C.ar      1 <0>        -0.1382
     16 C14        -5.0658   -2.6373   -3.1752 C.ar      1 <0>         0.1143
     17 C15        -4.3230   -3.0871   -2.0847 C.ar      1 <0>        -0.1167
     18 C16        -3.1061   -2.2922   -1.6893 C.3       1 <0>        -0.0851
     19 O1         -4.6876   -1.5082   -3.8302 O.3       1 <0>        -0.4961
     20 H2          3.0198   -2.0773   -1.3478 H         1 <0>         0.0776
     21 H3          2.0564   -3.5512   -1.6083 H         1 <0>         0.0671
     22 H4          1.7603   -2.1066   -2.6052 H         1 <0>         0.0669
     23 H5          1.2794   -2.3236    0.4012 H         1 <0>         0.0858
     24 H6          0.9833   -0.8791   -0.5958 H         1 <0>         0.0856
     25 H7         -0.6520   -2.1533   -1.9563 H         1 <0>         0.1318
     26 H8         -0.3558   -3.5978   -0.9594 H         1 <0>         0.1333
     27 H9         -0.4954   -0.1233    0.0354 H         1 <0>         0.1342
     28 H10        -1.9020   -0.3004   -1.0408 H         1 <0>         0.1308
     29 H11        -3.3680   -0.5600    0.9687 H         1 <0>         0.0835
     30 H12        -1.9507   -0.2883    2.0106 H         1 <0>         0.0869
     31 H13        -3.0336    1.6679   -0.0673 H         1 <0>         0.0659
     32 H14        -3.2384    1.8072    1.6954 H         1 <0>         0.0773
     33 H15        -1.6163    1.9396    0.9746 H         1 <0>         0.0677
     34 H16        -1.9603   -4.5552   -0.9937 H         1 <0>         0.0927
     35 H17        -2.0879   -4.4434    0.7807 H         1 <0>         0.0935
     36 H18        -3.8932   -5.8510   -0.3098 H         1 <0>         0.0995
     37 H19        -4.5039   -4.5084    0.6817 H         1 <0>         0.0910
     38 H20        -6.1386   -5.8204   -1.3266 H         1 <0>         0.1319
     39 H21        -7.4413   -5.0301   -3.2522 H         1 <0>         0.1360
     40 H22        -6.7582   -2.9810   -4.4410 H         1 <0>         0.1369
     41 H23        -3.3398   -1.2287   -1.7374 H         1 <0>         0.0954
     42 H24        -2.2928   -2.5125   -2.3808 H         1 <0>         0.0981
     43 H25        -5.0813   -0.6984   -3.4777 H         1 <0>         0.3928
     44 H26        -1.0692   -2.2933    0.9451 H         1 <0>         0.4233
@<TRIPOS>BOND
     1    1    2 1
     2    1   20 1
     3    1   21 1
     4    1   22 1
     5    2    3 1
     6    2   23 1
     7    2   24 1
     8    3    4 1
     9    3   25 1
    10    3   26 1
    11    4    5 1
    12    4    8 1
    13    4   44 1
    14    5    6 1
    15    5   27 1
    16    5   28 1
    17    6    7 1
    18    6   29 1
    19    6   30 1
    20    7   31 1
    21    7   32 1
    22    7   33 1
    23    8    9 1
    24    8   18 1
    25    8   10 1
    26   10   11 1
    27   10   34 1
    28   10   35 1
    29   11   12 1
    30   11   36 1
    31   11   37 1
    32   12   17 ar
    33   12   13 ar
    34   13   14 ar
    35   13   38 1
    36   14   15 ar
    37   14   39 1
    38   15   16 ar
    39   15   40 1
    40   16   17 ar
    41   16   19 1
    42   17   18 1
    43   18   41 1
    44   18   42 1
    45   19   43 1
@<TRIPOS>MOLECULE
ZINC00968257
   45    47     0     0     0
SMALL
USER_CHARGES

@<TRIPOS>ATOM
      1 C1         -0.0178    1.4648    0.0101 C.3       1 <0>        -0.0532
      2 N1          0.0021   -0.0041    0.0020 N.4       1 <0>        -0.3871
      3 C2         -1.3761   -0.5125    0.0124 C.3       1 <0>        -0.0473
      4 C3          0.6897   -0.4778   -1.2066 C.3       1 <0>        -0.0075
      5 C4          2.1588   -0.0534   -1.1571 C.3       1 <0>        -0.1202
      6 C5          2.8641   -0.5394   -2.3970 C.2       1 <0>        -0.1679
      7 C6          3.5250    0.3270   -3.1738 C.2       1 <0>         0.0063
      8 C7          3.5927    1.7771   -2.8453 C.ar      1 <0>        -0.0588
      9 C8          4.0673    2.1470   -1.5880 C.ar      1 <0>        -0.1130
     10 C9          4.1752    3.4781   -1.2462 C.ar      1 <0>        -0.1230
     11 C10         3.8096    4.4415   -2.1695 C.ar      1 <0>        -0.1074
     12 C11         3.3311    4.0773   -3.4068 C.ar      1 <0>        -0.1261
     13 C12         3.1954    2.7364   -3.7740 C.ar      1 <0>        -0.0534
     14 C13         2.5869    2.5170   -5.1377 C.3       1 <0>        -0.0764
     15 C14         2.3799    1.0595   -5.4939 C.3       1 <0>        -0.0807
     16 C15         3.6776    0.3005   -5.5991 C.ar      1 <0>        -0.0737
     17 C16         4.2334   -0.1117   -4.4047 C.ar      1 <0>        -0.0690
     18 C17         5.3905   -0.8775   -4.3777 C.ar      1 <0>        -0.0956
     19 C18         6.0025   -1.1900   -5.5806 C.ar      1 <0>        -0.1191
     20 C19         5.4694   -0.7426   -6.7762 C.ar      1 <0>        -0.1081
     21 C20         4.2868    0.0121   -6.7962 C.ar      1 <0>        -0.1083
     22 H1          1.0047    1.8421    0.0024 H         1 <0>         0.1238
     23 H2         -0.5450    1.8259   -0.8730 H         1 <0>         0.1221
     24 H3         -0.5280    1.8163    0.9069 H         1 <0>         0.1250
     25 H4         -1.9033   -0.1515   -0.8706 H         1 <0>         0.1216
     26 H5         -1.3613   -1.6024    0.0065 H         1 <0>         0.1236
     27 H6         -1.8863   -0.1610    0.9092 H         1 <0>         0.1246
     28 H7          0.6270   -1.5648   -1.2578 H         1 <0>         0.1321
     29 H8          0.2158   -0.0447   -2.0875 H         1 <0>         0.1294
     30 H9          2.2214    1.0336   -1.1059 H         1 <0>         0.0996
     31 H10         2.6326   -0.4865   -0.2761 H         1 <0>         0.0954
     32 H11         2.8363   -1.5868   -2.6585 H         1 <0>         0.1308
     33 H12         4.3519    1.3857   -0.8767 H         1 <0>         0.1233
     34 H13         4.5405    3.7651   -0.2712 H         1 <0>         0.1290
     35 H14         3.9003    5.4876   -1.9168 H         1 <0>         0.1264
     36 H15         3.0534    4.8470   -4.1116 H         1 <0>         0.1247
     37 H16         1.6223    3.0233   -5.1729 H         1 <0>         0.0854
     38 H17         3.2393    2.9678   -5.8855 H         1 <0>         0.0834
     39 H18         1.7604    0.5939   -4.7274 H         1 <0>         0.0703
     40 H19         1.8587    1.0007   -6.4494 H         1 <0>         0.0792
     41 H20         5.8038   -1.2219   -3.4413 H         1 <0>         0.1267
     42 H21         6.9025   -1.7870   -5.5850 H         1 <0>         0.1278
     43 H22         5.9677   -0.9772   -7.7052 H         1 <0>         0.1274
     44 H23         3.8663    0.3630   -7.7270 H         1 <0>         0.1314
     45 H24         0.4901   -0.3383    0.8195 H         1 <0>         0.4266
@<TRIPOS>BOND
     1    1    2 1
     2    1   22 1
     3    1   23 1
     4    1   24 1
     5    2    3 1
     6    2    4 1
     7    2   45 1
     8    3   25 1
     9    3   26 1
    10    3   27 1
    11    4    5 1
    12    4   28 1
    13    4   29 1
    14    5    6 1
    15    5   30 1
    16    5   31 1
    17    6    7 2
    18    6   32 1
    19    7   17 1
    20    7    8 1
    21    8   13 ar
    22    8    9 ar
    23    9   10 ar
    24    9   33 1
    25   10   11 ar
    26   10   34 1
    27   11   12 ar
    28   11   35 1
    29   12   13 ar
    30   12   36 1
    31   13   14 1
    32   14   15 1
    33   14   37 1
    34   14   38 1
    35   15   16 1
    36   15   39 1
    37   15   40 1
    38   16   21 ar
    39   16   17 ar
    40   17   18 ar
    41   18   19 ar
    42   18   41 1
    43   19   20 ar
    44   19   42 1
    45   20   21 ar
    46   20   43 1
    47   21   44 1
@<TRIPOS>MOLECULE
ZINC00000504
   41    44     0     0     0
SMALL
USER_CHARGES

@<TRIPOS>ATOM
      1 C1         -0.0178    1.4648    0.0101 C.3       1 <0>        -0.0457
      2 N1          0.0021   -0.0041    0.0020 N.4       1 <0>        -0.3851
      3 C2         -1.3782   -0.5248    0.0610 C.3       1 <0>        -0.0107
      4 C3         -1.3147   -2.0017   -0.3247 C.3       1 <0>         0.1097
      5 N2         -0.2536   -2.6823    0.4304 N.pl3     1 <0>        -0.6570
      6 C4         -0.1632   -4.0681    0.2474 C.ar      1 <0>         0.1515
      7 C5          0.1651   -4.5655   -1.0110 C.ar      1 <0>        -0.1283
      8 C6          0.3219   -5.9257   -1.1894 C.ar      1 <0>        -0.1053
      9 C7          0.1595   -6.7897   -0.1216 C.ar      1 <0>        -0.1122
     10 C8         -0.1903   -6.2968    1.1226 C.ar      1 <0>        -0.0978
     11 C9         -0.3794   -4.9379    1.2936 C.ar      1 <0>        -0.0863
     12 C10        -0.9055   -4.4020    2.5876 C.3       1 <0>        -0.0401
     13 C11         0.0255   -3.4607    3.2849 C.ar      1 <0>        -0.0434
     14 C12         0.2033   -3.7275    4.6483 C.ar      1 <0>        -0.1164
     15 C13         1.0009   -2.9352    5.4386 C.ar      1 <0>        -0.1037
     16 C14         1.6407   -1.8450    4.8776 C.ar      1 <0>        -0.1092
     17 C15         1.4792   -1.5873    3.5373 C.ar      1 <0>        -0.1345
     18 C16         0.6836   -2.4040    2.7249 C.ar      1 <0>        -0.1120
     19 C17         0.6957   -2.0166    1.2712 C.3       1 <0>         0.2145
     20 H1          1.6762   -2.3177    0.9022 H         1 <0>         0.0814
     21 C18         0.7079   -0.4980    1.1840 C.3       1 <0>        -0.0096
     22 H2          1.0047    1.8421    0.0024 H         1 <0>         0.1256
     23 H3         -0.5450    1.8259   -0.8730 H         1 <0>         0.1278
     24 H4         -0.5280    1.8163    0.9069 H         1 <0>         0.1233
     25 H5         -1.7720   -0.4210    1.0720 H         1 <0>         0.1359
     26 H6         -2.0104    0.0166   -0.6429 H         1 <0>         0.1459
     27 H7         -2.2727   -2.4732   -0.1054 H         1 <0>         0.1007
     28 H8         -1.1096   -2.0872   -1.3918 H         1 <0>         0.0828
     29 H9          0.2970   -3.8905   -1.8436 H         1 <0>         0.1222
     30 H10         0.5722   -6.3158   -2.1649 H         1 <0>         0.1292
     31 H11         0.3058   -7.8509   -0.2596 H         1 <0>         0.1304
     32 H12        -0.3156   -6.9709    1.9570 H         1 <0>         0.1304
     33 H13        -1.8427   -3.8810    2.3915 H         1 <0>         0.0851
     34 H14        -1.1118   -5.2412    3.2519 H         1 <0>         0.0847
     35 H15        -0.2988   -4.5760    5.0892 H         1 <0>         0.1275
     36 H16         1.1270   -3.1618    6.4870 H         1 <0>         0.1317
     37 H17         2.2602   -1.2030    5.4861 H         1 <0>         0.1308
     38 H18         1.9776   -0.7345    3.1006 H         1 <0>         0.1191
     39 H19         1.7417   -0.1544    1.1475 H         1 <0>         0.1407
     40 H20         0.2329   -0.0891    2.0758 H         1 <0>         0.1370
     41 H21         0.4593   -0.3360   -0.8339 H         1 <0>         0.4294
@<TRIPOS>BOND
     1    1    2 1
     2    1   22 1
     3    1   23 1
     4    1   24 1
     5    2   21 1
     6    2    3 1
     7    2   41 1
     8    3    4 1
     9    3   25 1
    10    3   26 1
    11    4    5 1
    12    4   27 1
    13    4   28 1
    14    5   19 1
    15    5    6 1
    16    6   11 ar
    17    6    7 ar
    18    7    8 ar
    19    7   29 1
    20    8    9 ar
    21    8   30 1
    22    9   10 ar
    23    9   31 1
    24   10   11 ar
    25   10   32 1
    26   11   12 1
    27   12   13 1
    28   12   33 1
    29   12   34 1
    30   13   18 ar
    31   13   14 ar
    32   14   15 ar
    33   14   35 1
    34   15   16 ar
    35   15   36 1
    36   16   17 ar
    37   16   37 1
    38   17   18 ar
    39   17   38 1
    40   18   19 1
    41   19   20 1
    42   19   21 1
    43   21   39 1
    44   21   40 1
@<TRIPOS>MOLECULE
ZINC00044027
   41    43     0     0     0
SMALL
USER_CHARGES

@<TRIPOS>ATOM
      1 C1         -4.8538   -4.0638    0.9108 C.3       1 <0>        -0.0548
      2 N1         -4.6244   -2.8061    1.6344 N.4       1 <0>        -0.3863
      3 C2         -4.0000   -3.0949    2.9324 C.3       1 <0>        -0.0478
      4 C3         -3.7364   -1.9420    0.8453 C.3       1 <0>        -0.0093
      5 C4         -4.4383   -1.5396   -0.4533 C.3       1 <0>        -0.1865
      6 C5         -3.5134   -0.6397   -1.2752 C.3       1 <0>         0.1190
      7 N2         -4.1855   -0.2544   -2.5186 N.pl3     1 <0>        -0.5621
      8 C6         -4.9466    0.9115   -2.5039 C.ar      1 <0>         0.1833
      9 C7         -5.4466    1.3707   -1.2896 C.ar      1 <0>        -0.1632
     10 C8         -6.2007    2.5274   -1.2376 C.ar      1 <0>        -0.0789
     11 C9         -6.4648    3.2382   -2.3930 C.ar      1 <0>        -0.1269
     12 C10        -5.9746    2.7903   -3.6059 C.ar      1 <0>        -0.0533
     13 C11        -5.2180    1.6285   -3.6658 C.ar      1 <0>        -0.1513
     14 S1         -4.6102    1.0681   -5.2211 S.3       1 <0>         0.0418
     15 C12        -4.1728   -0.6126   -4.9268 C.ar      1 <0>        -0.1476
     16 C13        -4.0101   -1.0788   -3.6268 C.ar      1 <0>         0.2001
     17 C14        -3.6645   -2.4105   -3.4235 C.ar      1 <0>        -0.1605
     18 C15        -3.4778   -3.2563   -4.5018 C.ar      1 <0>         0.0017
     19 C16        -3.6338   -2.7836   -5.7916 C.ar      1 <0>        -0.1199
     20 C17        -3.9865   -1.4684   -6.0025 C.ar      1 <0>        -0.0415
     21 Cl1        -3.0468   -4.9167   -4.2348 Cl        1 <0>        -0.0547
     22 H1         -5.5127   -4.7049    1.4964 H         1 <0>         0.1270
     23 H2         -5.3171   -3.8495   -0.0523 H         1 <0>         0.1230
     24 H3         -3.9018   -4.5701    0.7514 H         1 <0>         0.1245
     25 H4         -3.0479   -3.6012    2.7730 H         1 <0>         0.1232
     26 H5         -3.8297   -2.1617    3.4693 H         1 <0>         0.1245
     27 H6         -4.6589   -3.7360    3.5180 H         1 <0>         0.1260
     28 H7         -3.4947   -1.0479    1.4199 H         1 <0>         0.1356
     29 H8         -2.8190   -2.4818    0.6102 H         1 <0>         0.1342
     30 H9         -4.6799   -2.4338   -1.0279 H         1 <0>         0.0966
     31 H10        -5.3556   -0.9999   -0.2183 H         1 <0>         0.0979
     32 H11        -3.2718    0.2545   -0.7007 H         1 <0>         0.0984
     33 H12        -2.5960   -1.1794   -1.5103 H         1 <0>         0.0962
     34 H13        -5.2447    0.8199   -0.3828 H         1 <0>         0.1245
     35 H14        -6.5853    2.8770   -0.2909 H         1 <0>         0.1332
     36 H15        -7.0538    4.1423   -2.3487 H         1 <0>         0.1374
     37 H16        -6.1810    3.3459   -4.5088 H         1 <0>         0.1390
     38 H17        -3.5416   -2.7862   -2.4184 H         1 <0>         0.1339
     39 H18        -3.4863   -3.4459   -6.6318 H         1 <0>         0.1476
     40 H19        -4.1082   -1.1006   -7.0106 H         1 <0>         0.1483
     41 H20        -5.5056   -2.3374    1.7820 H         1 <0>         0.4275
@<TRIPOS>BOND
     1    1    2 1
     2    1   22 1
     3    1   23 1
     4    1   24 1
     5    2    3 1
     6    2    4 1
     7    2   41 1
     8    3   25 1
     9    3   26 1
    10    3   27 1
    11    4    5 1
    12    4   28 1
    13    4   29 1
    14    5    6 1
    15    5   30 1
    16    5   31 1
    17    6    7 1
    18    6   32 1
    19    6   33 1
    20    7   16 1
    21    7    8 1
    22    8   13 ar
    23    8    9 ar
    24    9   10 ar
    25    9   34 1
    26   10   11 ar
    27   10   35 1
    28   11   12 ar
    29   11   36 1
    30   12   13 ar
    31   12   37 1
    32   13   14 1
    33   14   15 1
    34   15   20 ar
    35   15   16 ar
    36   16   17 ar
    37   17   18 ar
    38   17   38 1
    39   18   19 ar
    40   18   21 1
    41   19   20 ar
    42   19   39 1
    43   20   40 1
@<TRIPOS>MOLECULE
ZINC01530611
   43    45     0     0     0
SMALL
USER_CHARGES

@<TRIPOS>ATOM
      1 C1         -5.6811    1.3607   -0.3895 C.3       1 <0>        -0.0475
      2 N1         -5.6577   -0.0983   -0.2206 N.4       1 <0>        -0.5096
      3 C2         -4.2653   -0.5656   -0.1914 C.3       1 <0>        -0.0084
      4 C3         -4.2409   -2.0853   -0.0155 C.3       1 <0>        -0.1794
      5 C4         -2.7907   -2.5720    0.0149 C.3       1 <0>         0.1487
      6 N2         -2.7680   -4.0325    0.1272 N.pl3     1 <0>        -0.6107
      7 C5         -2.6913   -4.8424   -1.0108 C.ar      1 <0>         0.1751
      8 C6         -1.6220   -4.6466   -1.8788 C.ar      1 <0>        -0.1410
      9 C7         -1.4736   -5.4397   -2.9971 C.ar      1 <0>        -0.1023
     10 C8         -2.4002   -6.4363   -3.2444 C.ar      1 <0>        -0.1264
     11 C9         -3.4660   -6.6200   -2.3938 C.ar      1 <0>        -0.1102
     12 C10        -3.6460   -5.8156   -1.2664 C.ar      1 <0>        -0.0994
     13 C11        -4.9119   -6.0915   -0.4880 C.3       1 <0>        -0.0689
     14 C12        -5.1138   -5.1475    0.6844 C.3       1 <0>        -0.0774
     15 C13        -4.0023   -5.2798    1.6948 C.ar      1 <0>        -0.0996
     16 C14        -2.8165   -4.6605    1.3756 C.ar      1 <0>         0.1518
     17 C15        -1.7436   -4.6795    2.2507 C.ar      1 <0>        -0.1184
     18 C16        -1.8773   -5.3599    3.4502 C.ar      1 <0>        -0.1095
     19 C17        -3.0600   -6.0057    3.7614 C.ar      1 <0>        -0.1164
     20 C18        -4.1454   -5.9689    2.8764 C.ar      1 <0>        -0.1028
     21 H1         -6.7143    1.7075   -0.4111 H         1 <0>         0.1266
     22 H2         -5.1573    1.8313    0.4426 H         1 <0>         0.1238
     23 H3         -5.1891    1.6261   -1.3252 H         1 <0>         0.1238
     24 H4         -6.1131   -0.3440    0.6456 H         1 <0>         0.4303
     25 H5         -3.7733   -0.3002   -1.1272 H         1 <0>         0.1329
     26 H6         -3.7415   -0.0951    0.6406 H         1 <0>         0.1330
     27 H7         -4.7329   -2.3506    0.9203 H         1 <0>         0.0915
     28 H8         -4.7647   -2.5558   -0.8475 H         1 <0>         0.0913
     29 H9         -2.2869   -2.2703   -0.9034 H         1 <0>         0.0828
     30 H10        -2.2782   -2.1337    0.8713 H         1 <0>         0.0803
     31 H11        -0.9026   -3.8672   -1.6754 H         1 <0>         0.1215
     32 H12        -0.6444   -5.2844   -3.6715 H         1 <0>         0.1277
     33 H13        -2.2869   -7.0730   -4.1093 H         1 <0>         0.1251
     34 H14        -4.1790   -7.4039   -2.6024 H         1 <0>         0.1223
     35 H15        -5.7638   -5.9997   -1.1617 H         1 <0>         0.0796
     36 H16        -4.8754   -7.1138   -0.1117 H         1 <0>         0.0764
     37 H17        -5.1407   -4.1220    0.3160 H         1 <0>         0.0728
     38 H18        -6.0638   -5.3767    1.1673 H         1 <0>         0.0709
     39 H19        -0.8216   -4.1746    2.0032 H         1 <0>         0.1257
     40 H20        -1.0526   -5.3858    4.1470 H         1 <0>         0.1276
     41 H21        -3.1485   -6.5434    4.6939 H         1 <0>         0.1270
     42 H22        -5.0720   -6.4709    3.1123 H         1 <0>         0.1291
     43 H23        -6.1426   -0.5339   -0.9908 H         1 <0>         0.4303
@<TRIPOS>BOND
     1    1    2 1
     2    1   21 1
     3    1   22 1
     4    1   23 1
     5    2    3 1
     6    2   24 1
     7    2   43 1
     8    3    4 1
     9    3   25 1
    10    3   26 1
    11    4    5 1
    12    4   27 1
    13    4   28 1
    14    5    6 1
    15    5   29 1
    16    5   30 1
    17    6   16 1
    18    6    7 1
    19    7   12 ar
    20    7    8 ar
    21    8    9 ar
    22    8   31 1
    23    9   10 ar
    24    9   32 1
    25   10   11 ar
    26   10   33 1
    27   11   12 ar
    28   11   34 1
    29   12   13 1
    30   13   14 1
    31   13   35 1
    32   13   36 1
    33   14   15 1
    34   14   37 1
    35   14   38 1
    36   15   20 ar
    37   15   16 ar
    38   16   17 ar
    39   17   18 ar
    40   17   39 1
    41   18   19 ar
    42   18   40 1
    43   19   20 ar
    44   19   41 1
    45   20   42 1
@<TRIPOS>MOLECULE
ZINC19796158
   41    44     0     0     0
SMALL
USER_CHARGES

@<TRIPOS>ATOM
      1 C1         -0.0667    1.4397   -0.3841 C.3       1 <0>         0.0243
      2 N1         -0.0227   -0.0168   -0.1983 N.3       1 <0>        -0.5427
      3 C2          0.3818   -0.6937   -1.4376 C.3       1 <0>         0.0389
      4 C3          0.2409   -2.2089   -1.2575 C.3       1 <0>         0.1267
      5 N2          0.9912   -2.6085   -0.0572 N.pl3     1 <0>        -0.5921
      6 C4          0.7385   -1.8808    1.1957 C.3       1 <0>         0.1107
      7 C5          0.8598   -0.3785    0.9190 C.3       1 <0>         0.0392
      8 C6          1.9059   -3.6360   -0.1053 C.2       1 <0>         0.4981
      9 N3          2.1755   -4.1354   -1.2623 N.2       1 <0>        -0.5918
     10 C7          3.0301   -5.1602   -1.5359 C.ar      1 <0>         0.1373
     11 C8          2.6657   -6.1062   -2.4992 C.ar      1 <0>        -0.1073
     12 C9          3.5267   -7.1354   -2.8220 C.ar      1 <0>        -0.1012
     13 C10         4.7554   -7.2359   -2.1967 C.ar      1 <0>        -0.1249
     14 C11         5.1216   -6.3134   -1.2321 C.ar      1 <0>        -0.1033
     15 C12         4.2608   -5.2852   -0.8865 C.ar      1 <0>         0.0311
     16 O1          4.6124   -4.4416    0.1179 O.3       1 <0>        -0.2611
     17 C13         3.8464   -4.4364    1.2357 C.ar      1 <0>         0.1434
     18 C14         2.5017   -4.0718    1.1683 C.ar      1 <0>        -0.1396
     19 C15         1.7196   -4.1192    2.3233 C.ar      1 <0>        -0.0636
     20 C16         2.2870   -4.4952    3.5253 C.ar      1 <0>        -0.0510
     21 C17         3.6305   -4.8229    3.5886 C.ar      1 <0>        -0.0663
     22 C18         4.4017   -4.8004    2.4517 C.ar      1 <0>        -0.1189
     23 Cl1         1.3127   -4.5565    4.9608 Cl        1 <0>        -0.0513
     24 H1          0.9364    1.8093   -0.5973 H         1 <0>         0.0264
     25 H2         -0.7271    1.6799   -1.2174 H         1 <0>         0.0716
     26 H3         -0.4420    1.9108    0.5243 H         1 <0>         0.0713
     27 H4         -0.2566   -0.3639   -2.2573 H         1 <0>         0.0894
     28 H5          1.4198   -0.4492   -1.6635 H         1 <0>         0.0395
     29 H6         -0.8110   -2.4668   -1.1346 H         1 <0>         0.0744
     30 H7          0.6467   -2.7207   -2.1302 H         1 <0>         0.1067
     31 H8         -0.2656   -2.1072    1.5545 H         1 <0>         0.0826
     32 H9          1.4732   -2.1756    1.9449 H         1 <0>         0.0944
     33 H10         1.8911   -0.1384    0.6603 H         1 <0>         0.0401
     34 H11         0.5680    0.1799    1.8085 H         1 <0>         0.0911
     35 H12         1.7075   -6.0314   -2.9917 H         1 <0>         0.1327
     36 H13         3.2394   -7.8646   -3.5652 H         1 <0>         0.1315
     37 H14         5.4308   -8.0362   -2.4610 H         1 <0>         0.1321
     38 H15         6.0829   -6.3957   -0.7469 H         1 <0>         0.1320
     39 H16         0.6717   -3.8618    2.2774 H         1 <0>         0.1496
     40 H17         4.0715   -5.1034    4.5337 H         1 <0>         0.1495
     41 H18         5.4488   -5.0585    2.5103 H         1 <0>         0.1505
@<TRIPOS>BOND
     1    1    2 1
     2    1   24 1
     3    1   25 1
     4    1   26 1
     5    2    7 1
     6    2    3 1
     7    3    4 1
     8    3   27 1
     9    3   28 1
    10    4    5 1
    11    4   29 1
    12    4   30 1
    13    5    6 1
    14    5    8 1
    15    6    7 1
    16    6   31 1
    17    6   32 1
    18    7   33 1
    19    7   34 1
    20    8   18 1
    21    8    9 2
    22    9   10 1
    23   10   15 ar
    24   10   11 ar
    25   11   12 ar
    26   11   35 1
    27   12   13 ar
    28   12   36 1
    29   13   14 ar
    30   13   37 1
    31   14   15 ar
    32   14   38 1
    33   15   16 1
    34   16   17 1
    35   17   22 ar
    36   17   18 ar
    37   18   19 ar
    38   19   20 ar
    39   19   39 1
    40   20   21 ar
    41   20   23 1
    42   21   22 ar
    43   21   40 1
    44   22   41 1
@<TRIPOS>MOLECULE
ZINC00538312
   58    62     0     0     0
SMALL
USER_CHARGES

@<TRIPOS>ATOM
      1 C1         -0.0184    1.5028    0.0103 C.3       1 <0>        -0.1195
      2 C2          0.0021   -0.0041    0.0020 C.2       1 <0>         0.2267
      3 C3         -1.1658   -0.7051    0.0037 C.2       1 <0>        -0.3134
      4 C4         -1.0976   -2.1102    0.0026 C.2       1 <0>         0.5229
      5 O1         -2.1195   -2.7763   -0.0037 O.2       1 <0>        -0.5388
      6 N1          0.1170   -2.7181    0.0083 N.am      1 <0>        -0.5055
      7 C5          1.2324   -1.9722   -0.0125 C.2       1 <0>         0.4317
      8 N2          1.1610   -0.6576   -0.0126 N.2       1 <0>        -0.5532
      9 C6          2.6152   -2.5746   -0.0542 C.3       1 <0>        -0.0794
     10 C7          2.5757   -4.0399    0.3747 C.3       1 <0>        -0.1325
     11 C8          1.4654   -4.7382   -0.4208 C.3       1 <0>        -0.1400
     12 C9          0.1227   -4.1811    0.0440 C.3       1 <0>         0.0852
     13 C10        -2.4949    0.0052    0.0071 C.3       1 <0>        -0.0659
     14 C11        -3.0069    0.1361   -1.4287 C.3       1 <0>        -0.0060
     15 N3         -4.3025    0.8286   -1.4254 N.4       1 <0>        -0.3843
     16 C12        -5.2942    0.0044   -0.7242 C.3       1 <0>        -0.0080
     17 C13        -6.6248    0.7562   -0.6469 C.3       1 <0>        -0.1417
     18 C14        -7.1187    1.0558   -2.0652 C.3       1 <0>        -0.0246
     19 C15        -6.0446    1.8523   -2.8116 C.3       1 <0>        -0.1421
     20 C16        -4.7355    1.0599   -2.8086 C.3       1 <0>        -0.0031
     21 C17        -8.3887    1.8641   -1.9963 C.2       1 <0>         0.1325
     22 C18        -9.6953    1.4738   -2.5327 C.ar      1 <0>        -0.2134
     23 C19       -10.1611    0.3470   -3.2152 C.ar      1 <0>        -0.0098
     24 C20       -11.4711    0.2760   -3.5942 C.ar      1 <0>        -0.1750
     25 C21       -12.3461    1.3174   -3.3066 C.ar      1 <0>         0.1749
     26 C22       -11.9048    2.4388   -2.6332 C.ar      1 <0>        -0.1638
     27 C23       -10.5757    2.5285   -2.2393 C.ar      1 <0>         0.1187
     28 O2         -9.8642    3.4688   -1.5855 O.3       1 <0>        -0.0749
     29 N4         -8.5274    3.0311   -1.4462 N.2       1 <0>        -0.2751
     30 F1        -13.6388    1.2314   -3.6896 F         1 <0>        -0.1154
     31 H1          1.0042    1.8801    0.0026 H         1 <0>         0.0924
     32 H2         -0.5455    1.8639   -0.8728 H         1 <0>         0.0828
     33 H3         -0.5286    1.8543    0.9071 H         1 <0>         0.0913
     34 H4          3.0059   -2.5077   -1.0696 H         1 <0>         0.1148
     35 H5          3.2691   -2.0204    0.6191 H         1 <0>         0.1189
     36 H6          3.5346   -4.5121    0.1611 H         1 <0>         0.0978
     37 H7          2.3615   -4.1056    1.4415 H         1 <0>         0.0782
     38 H8          1.5965   -4.5420   -1.4849 H         1 <0>         0.0801
     39 H9          1.5014   -5.8120   -0.2372 H         1 <0>         0.1025
     40 H10        -0.0688   -4.5145    1.0639 H         1 <0>         0.0935
     41 H11        -0.6654   -4.5576   -0.6081 H         1 <0>         0.1043
     42 H12        -3.2109   -0.5666    0.5975 H         1 <0>         0.0984
     43 H13        -2.3754    0.9974    0.4422 H         1 <0>         0.0964
     44 H14        -2.2909    0.7079   -2.0190 H         1 <0>         0.1297
     45 H15        -3.1264   -0.8561   -1.8638 H         1 <0>         0.1316
     46 H16        -5.4368   -0.9309   -1.2655 H         1 <0>         0.1347
     47 H17        -4.9399   -0.2107    0.2839 H         1 <0>         0.1394
     48 H18        -7.3603    0.1418   -0.1276 H         1 <0>         0.1195
     49 H19        -6.4834    1.6916   -0.1055 H         1 <0>         0.0988
     50 H20        -7.3090    0.1197   -2.5902 H         1 <0>         0.1177
     51 H21        -6.3653    2.0214   -3.8395 H         1 <0>         0.1196
     52 H22        -5.8912    2.8104   -2.3151 H         1 <0>         0.0992
     53 H23        -3.9686    1.6240   -3.3394 H         1 <0>         0.1371
     54 H24        -4.8899    0.1021   -3.3055 H         1 <0>         0.1330
     55 H25        -9.4868   -0.4654   -3.4426 H         1 <0>         0.1453
     56 H26       -11.8300   -0.5955   -4.1217 H         1 <0>         0.1542
     57 H27       -12.5906    3.2435   -2.4131 H         1 <0>         0.1583
     58 H28        -4.2082    1.7141   -0.9510 H         1 <0>         0.4233
@<TRIPOS>BOND
     1    1    2 1
     2    1   31 1
     3    1   32 1
     4    1   33 1
     5    2    8 1
     6    2    3 2
     7    3    4 1
     8    3   13 1
     9    4    5 2
    10    4    6 am
    11    6   12 1
    12    6    7 1
    13    7    8 2
    14    7    9 1
    15    9   10 1
    16    9   34 1
    17    9   35 1
    18   10   11 1
    19   10   36 1
    20   10   37 1
    21   11   12 1
    22   11   38 1
    23   11   39 1
    24   12   40 1
    25   12   41 1
    26   13   14 1
    27   13   42 1
    28   13   43 1
    29   14   15 1
    30   14   44 1
    31   14   45 1
    32   15   20 1
    33   15   16 1
    34   15   58 1
    35   16   17 1
    36   16   46 1
    37   16   47 1
    38   17   18 1
    39   17   48 1
    40   17   49 1
    41   18   19 1
    42   18   21 1
    43   18   50 1
    44   19   20 1
    45   19   51 1
    46   19   52 1
    47   20   53 1
    48   20   54 1
    49   21   29 2
    50   21   22 1
    51   22   27 ar
    52   22   23 ar
    53   23   24 ar
    54   23   55 1
    55   24   25 ar
    56   24   56 1
    57   25   26 ar
    58   25   30 1
    59   26   27 ar
    60   26   57 1
    61   27   28 1
    62   28   29 1
@<TRIPOS>MOLECULE
ZINC01537496
   57    60     0     0     0
SMALL
USER_CHARGES

@<TRIPOS>ATOM
      1 C1         -0.0173    1.4248    0.0099 C.3       1 <0>         0.0229
      2 O1          0.0021   -0.0041    0.0020 O.3       1 <0>        -0.3111
      3 C2          0.6063   -0.6076   -1.0566 C.ar      1 <0>         0.1290
      4 C3          1.1727    0.1584   -2.0619 C.ar      1 <0>        -0.2023
      5 C4          1.7862   -0.4565   -3.1379 C.ar      1 <0>        -0.0670
      6 C5          1.8369   -1.8361   -3.2138 C.ar      1 <0>        -0.1490
      7 C6          1.2745   -2.6077   -2.2144 C.ar      1 <0>        -0.0821
      8 C7          0.6620   -1.9977   -1.1294 C.ar      1 <0>         0.1090
      9 N1          0.0968   -2.7768   -0.1132 N.pl3     1 <0>        -0.6637
     10 C8         -1.3057   -3.2146   -0.1871 C.3       1 <0>         0.1220
     11 C9         -1.3569   -4.7253    0.0636 C.3       1 <0>        -0.0223
     12 N2         -0.6925   -5.0320    1.3366 N.4       1 <0>        -0.3803
     13 C10         0.7338   -4.6939    1.2505 C.3       1 <0>        -0.0277
     14 C11         0.8902   -3.1864    1.0559 C.3       1 <0>         0.1222
     15 C12        -0.8376   -6.4641    1.6301 C.3       1 <0>        -0.0085
     16 C13        -0.2558   -6.7628    3.0132 C.3       1 <0>        -0.1448
     17 C14        -0.4069   -8.2543    3.3189 C.3       1 <0>        -0.1362
     18 C15         0.1750   -8.5530    4.7020 C.3       1 <0>         0.1116
     19 N3          0.0302   -9.9811    4.9947 N.am      1 <0>        -0.5803
     20 C16        -1.0384  -10.5296    5.6004 C.2       1 <0>         0.5775
     21 O2         -2.0207   -9.9284    5.9859 O.2       1 <0>        -0.4596
     22 C17        -0.8170  -11.9863    5.7182 C.ar      1 <0>        -0.1470
     23 C18        -1.5532  -13.0379    6.2398 C.ar      1 <0>        -0.0409
     24 C19        -1.0423  -14.3255    6.1903 C.ar      1 <0>        -0.0904
     25 C20         0.1956  -14.5669    5.6245 C.ar      1 <0>        -0.0905
     26 C21         0.9432  -13.5248    5.0988 C.ar      1 <0>        -0.0408
     27 C22         0.4452  -12.2324    5.1412 C.ar      1 <0>        -0.1471
     28 C23         0.9460  -10.9176    4.6879 C.2       1 <0>         0.5777
     29 O3          2.0074  -10.7163    4.1330 O.2       1 <0>        -0.4601
     30 H1          1.0053    1.8021    0.0021 H         1 <0>         0.0588
     31 H2         -0.5445    1.7859   -0.8732 H         1 <0>         0.0588
     32 H3         -0.5275    1.7763    0.9067 H         1 <0>         0.1035
     33 H4          1.1348    1.2363   -2.0057 H         1 <0>         0.1341
     34 H5          2.2267    0.1425   -3.9212 H         1 <0>         0.1319
     35 H6          2.3168   -2.3119   -4.0562 H         1 <0>         0.1306
     36 H7          1.3151   -3.6852   -2.2764 H         1 <0>         0.1265
     37 H8         -1.8914   -2.6971    0.5728 H         1 <0>         0.0779
     38 H9         -1.7068   -2.9936   -1.1762 H         1 <0>         0.1139
     39 H10        -2.3961   -5.0513    0.1082 H         1 <0>         0.1358
     40 H11        -0.8470   -5.2457   -0.7471 H         1 <0>         0.1296
     41 H12         1.2353   -4.9969    2.1697 H         1 <0>         0.1373
     42 H13         1.1804   -5.2153    0.4039 H         1 <0>         0.1300
     43 H14         1.9402   -2.9468    0.8881 H         1 <0>         0.1137
     44 H15         0.5300   -2.6661    1.9434 H         1 <0>         0.0772
     45 H16        -1.8938   -6.7330    1.6144 H         1 <0>         0.1322
     46 H17        -0.3036   -7.0450    0.8781 H         1 <0>         0.1298
     47 H18         0.8004   -6.4939    3.0289 H         1 <0>         0.0923
     48 H19        -0.7898   -6.1819    3.7652 H         1 <0>         0.0931
     49 H20        -1.4631   -8.5232    3.3032 H         1 <0>         0.0826
     50 H21         0.1271   -8.8352    2.5669 H         1 <0>         0.0821
     51 H22         1.2312   -8.2841    4.7177 H         1 <0>         0.1009
     52 H23        -0.3590   -7.9721    5.4540 H         1 <0>         0.1012
     53 H24        -2.5208  -12.8551    6.6834 H         1 <0>         0.1447
     54 H25        -1.6152  -15.1457    6.5970 H         1 <0>         0.1471
     55 H26         0.5831  -15.5745    5.5922 H         1 <0>         0.1471
     56 H27         1.9099  -13.7192    4.6583 H         1 <0>         0.1446
     57 H28        -1.1202   -4.4947    2.0759 H         1 <0>         0.4225
@<TRIPOS>BOND
     1    1    2 1
     2    1   30 1
     3    1   31 1
     4    1   32 1
     5    2    3 1
     6    3    8 ar
     7    3    4 ar
     8    4    5 ar
     9    4   33 1
    10    5    6 ar
    11    5   34 1
    12    6    7 ar
    13    6   35 1
    14    7    8 ar
    15    7   36 1
    16    8    9 1
    17    9   14 1
    18    9   10 1
    19   10   11 1
    20   10   37 1
    21   10   38 1
    22   11   12 1
    23   11   39 1
    24   11   40 1
    25   12   13 1
    26   12   15 1
    27   12   57 1
    28   13   14 1
    29   13   41 1
    30   13   42 1
    31   14   43 1
    32   14   44 1
    33   15   16 1
    34   15   45 1
    35   15   46 1
    36   16   17 1
    37   16   47 1
    38   16   48 1
    39   17   18 1
    40   17   49 1
    41   17   50 1
    42   18   19 1
    43   18   51 1
    44   18   52 1
    45   19   28 am
    46   19   20 am
    47   20   21 2
    48   20   22 1
    49   22   27 ar
    50   22   23 ar
    51   23   24 ar
    52   23   53 1
    53   24   25 ar
    54   24   54 1
    55   25   26 ar
    56   25   55 1
    57   26   27 ar
    58   26   56 1
    59   27   28 1
    60   28   29 2
@<TRIPOS>MOLECULE
ZINC01537496
   56    59     0     0     0
SMALL
USER_CHARGES

@<TRIPOS>ATOM
      1 C1         -0.0173    1.4248    0.0099 C.3       1 <0>         0.0252
      2 O1          0.0021   -0.0041    0.0020 O.3       1 <0>        -0.3039
      3 C2          0.6063   -0.6076   -1.0566 C.ar      1 <0>         0.1197
      4 C3          1.1727    0.1584   -2.0619 C.ar      1 <0>        -0.2066
      5 C4          1.7862   -0.4565   -3.1379 C.ar      1 <0>        -0.0837
      6 C5          1.8369   -1.8361   -3.2138 C.ar      1 <0>        -0.1522
      7 C6          1.2745   -2.6077   -2.2144 C.ar      1 <0>        -0.0882
      8 C7          0.6620   -1.9977   -1.1294 C.ar      1 <0>         0.1392
      9 N1          0.0968   -2.7768   -0.1132 N.pl3     1 <0>        -0.6684
     10 C8         -1.3056   -3.2137   -0.1884 C.3       1 <0>         0.1536
     11 C9         -1.3570   -4.7276    0.0431 C.3       1 <0>         0.0413
     12 N2         -0.6724   -5.0507    1.3020 N.3       1 <0>        -0.5343
     13 C10         0.7517   -4.6956    1.2405 C.3       1 <0>         0.0376
     14 C11         0.8913   -3.1855    1.0551 C.3       1 <0>         0.1533
     15 C12        -0.8472   -6.4678    1.6476 C.3       1 <0>         0.0572
     16 C13        -0.3417   -6.7116    3.0710 C.3       1 <0>        -0.1116
     17 C14        -0.5237   -8.1875    3.4309 C.3       1 <0>        -0.1352
     18 C15        -0.0183   -8.4314    4.8543 C.3       1 <0>         0.1117
     19 N3         -0.1926   -9.8446    5.1990 N.am      1 <0>        -0.5766
     20 C16        -1.2970  -10.3582    5.7700 C.2       1 <0>         0.5742
     21 O2         -2.2921   -9.7334    6.0773 O.2       1 <0>        -0.4586
     22 C17        -1.0969  -11.8102    5.9608 C.ar      1 <0>        -0.1418
     23 C18        -1.8700  -12.8328    6.4868 C.ar      1 <0>        -0.0442
     24 C19        -1.3702  -14.1253    6.5188 C.ar      1 <0>        -0.0946
     25 C20        -0.1069  -14.4004    6.0299 C.ar      1 <0>        -0.0948
     26 C21         0.6778  -13.3876    5.5008 C.ar      1 <0>        -0.0443
     27 C22         0.1913  -12.0907    5.4623 C.ar      1 <0>        -0.1422
     28 C23         0.7285  -10.8005    4.9808 C.2       1 <0>         0.5745
     29 O3          1.8195  -10.6314    4.4748 O.2       1 <0>        -0.4601
     30 H1          1.0053    1.8021    0.0021 H         1 <0>         0.0536
     31 H2         -0.5445    1.7859   -0.8732 H         1 <0>         0.0536
     32 H3         -0.5275    1.7763    0.9067 H         1 <0>         0.0992
     33 H4          1.1348    1.2363   -2.0057 H         1 <0>         0.1276
     34 H5          2.2267    0.1425   -3.9212 H         1 <0>         0.1245
     35 H6          2.3168   -2.3119   -4.0562 H         1 <0>         0.1238
     36 H7          1.3151   -3.6852   -2.2764 H         1 <0>         0.1250
     37 H8         -1.8890   -2.7058    0.5796 H         1 <0>         0.0582
     38 H9         -1.7097   -2.9800   -1.1734 H         1 <0>         0.0690
     39 H10        -2.3961   -5.0517    0.1006 H         1 <0>         0.0794
     40 H11        -0.8612   -5.2388   -0.7821 H         1 <0>         0.0341
     41 H12         1.2419   -4.9966    2.1663 H         1 <0>         0.0828
     42 H13         1.2181   -5.2073    0.3986 H         1 <0>         0.0336
     43 H14         1.9390   -2.9332    0.8918 H         1 <0>         0.0686
     44 H15         0.5231   -2.6749    1.9450 H         1 <0>         0.0576
     45 H16        -1.9037   -6.7288    1.5875 H         1 <0>         0.0751
     46 H17        -0.2804   -7.0845    0.9501 H         1 <0>         0.0326
     47 H18         0.7149   -6.4507    3.1310 H         1 <0>         0.0675
     48 H19        -0.9085   -6.0950    3.7685 H         1 <0>         0.0776
     49 H20        -1.5803   -8.4485    3.3709 H         1 <0>         0.0712
     50 H21         0.0431   -8.8042    2.7334 H         1 <0>         0.0685
     51 H22         1.0383   -8.1704    4.9144 H         1 <0>         0.0977
     52 H23        -0.5851   -7.8147    5.5518 H         1 <0>         0.0992
     53 H24        -2.8576  -12.6236    6.8705 H         1 <0>         0.1433
     54 H25        -1.9719  -14.9229    6.9289 H         1 <0>         0.1439
     55 H26         0.2716  -15.4114    6.0607 H         1 <0>         0.1438
     56 H27         1.6642  -13.6083    5.1206 H         1 <0>         0.1430
@<TRIPOS>BOND
     1    1    2 1
     2    1   30 1
     3    1   31 1
     4    1   32 1
     5    2    3 1
     6    3    8 ar
     7    3    4 ar
     8    4    5 ar
     9    4   33 1
    10    5    6 ar
    11    5   34 1
    12    6    7 ar
    13    6   35 1
    14    7    8 ar
    15    7   36 1
    16    8    9 1
    17    9   14 1
    18    9   10 1
    19   10   11 1
    20   10   37 1
    21   10   38 1
    22   11   12 1
    23   11   39 1
    24   11   40 1
    25   12   13 1
    26   12   15 1
    27   13   14 1
    28   13   41 1
    29   13   42 1
    30   14   43 1
    31   14   44 1
    32   15   16 1
    33   15   45 1
    34   15   46 1
    35   16   17 1
    36   16   47 1
    37   16   48 1
    38   17   18 1
    39   17   49 1
    40   17   50 1
    41   18   19 1
    42   18   51 1
    43   18   52 1
    44   19   28 am
    45   19   20 am
    46   20   21 2
    47   20   22 1
    48   22   27 ar
    49   22   23 ar
    50   23   24 ar
    51   23   53 1
    52   24   25 ar
    53   24   54 1
    54   25   26 ar
    55   25   55 1
    56   26   27 ar
    57   26   56 1
    58   27   28 1
    59   28   29 2
@<TRIPOS>MOLECULE
ZINC00001137
   40    42     0     0     0
SMALL
USER_CHARGES

@<TRIPOS>ATOM
      1 C1         -0.6748    1.1418   -0.7339 C.3       1 <0>        -0.0546
      2 N1         -0.3316   -0.2500   -0.4129 N.4       1 <0>        -0.3867
      3 C2         -1.5537   -1.0650   -0.3990 C.3       1 <0>        -0.0471
      4 C3          0.5939   -0.7725   -1.4270 C.3       1 <0>        -0.0083
      5 C4          1.9147   -0.0034   -1.3566 C.3       1 <0>        -0.1286
      6 C5          2.8641   -0.5394   -2.3970 C.2       1 <0>        -0.1644
      7 C6          3.4662    0.3009   -3.2521 C.2       1 <0>        -0.0110
      8 C7          4.0375   -0.2409   -4.4991 C.ar      1 <0>        -0.0560
      9 C8          4.3686   -1.5979   -4.5583 C.ar      1 <0>        -0.0950
     10 C9          4.9050   -2.1310   -5.7101 C.ar      1 <0>        -0.1079
     11 C10         5.1196   -1.3249   -6.8157 C.ar      1 <0>        -0.0902
     12 C11         4.7973    0.0148   -6.7712 C.ar      1 <0>        -0.0869
     13 C12         4.2518    0.5698   -5.6149 C.ar      1 <0>        -0.1057
     14 S1          3.8473    2.2804   -5.5967 S.3       1 <0>         0.0693
     15 C13         3.7053    2.7093   -3.8978 C.ar      1 <0>        -0.0928
     16 C14         3.5286    1.7354   -2.9154 C.ar      1 <0>        -0.0481
     17 C15         3.4127    2.1219   -1.5773 C.ar      1 <0>        -0.1036
     18 C16         3.4679    3.4565   -1.2333 C.ar      1 <0>        -0.0395
     19 C17         3.6389    4.4208   -2.2134 C.ar      1 <0>        -0.0802
     20 C18         3.7644    4.0522   -3.5311 C.ar      1 <0>        -0.0766
     21 Cl1         3.3224    3.9289    0.4308 Cl        1 <0>        -0.0537
     22 H1          0.2320    1.7465   -0.7442 H         1 <0>         0.1222
     23 H2         -1.1495    1.1821   -1.7142 H         1 <0>         0.1237
     24 H3         -1.3615    1.5295    0.0186 H         1 <0>         0.1270
     25 H4         -2.0284   -1.0247   -1.3794 H         1 <0>         0.1223
     26 H5         -1.2990   -2.0977   -0.1609 H         1 <0>         0.1241
     27 H6         -2.2404   -0.6773    0.3534 H         1 <0>         0.1255
     28 H7          0.7790   -1.8302   -1.2395 H         1 <0>         0.1340
     29 H8          0.1547   -0.6504   -2.4171 H         1 <0>         0.1323
     30 H9          1.7296    1.0543   -1.5441 H         1 <0>         0.1045
     31 H10         2.3539   -0.1254   -0.3665 H         1 <0>         0.0992
     32 H11         3.0599   -1.5999   -2.4541 H         1 <0>         0.1393
     33 H12         4.2037   -2.2302   -3.6984 H         1 <0>         0.1311
     34 H13         5.1590   -3.1799   -5.7507 H         1 <0>         0.1356
     35 H14         5.5413   -1.7472   -7.7158 H         1 <0>         0.1388
     36 H15         4.9682    0.6374   -7.6370 H         1 <0>         0.1381
     37 H16         3.2791    1.3734   -0.8103 H         1 <0>         0.1465
     38 H17         3.6816    5.4647   -1.9397 H         1 <0>         0.1486
     39 H18         3.8971    4.8104   -4.2888 H         1 <0>         0.1481
     40 H19         0.1079   -0.2873    0.4946 H         1 <0>         0.4269
@<TRIPOS>BOND
     1    1    2 1
     2    1   22 1
     3    1   23 1
     4    1   24 1
     5    2    3 1
     6    2    4 1
     7    2   40 1
     8    3   25 1
     9    3   26 1
    10    3   27 1
    11    4    5 1
    12    4   28 1
    13    4   29 1
    14    5    6 1
    15    5   30 1
    16    5   31 1
    17    6    7 2
    18    6   32 1
    19    7   16 1
    20    7    8 1
    21    8   13 ar
    22    8    9 ar
    23    9   10 ar
    24    9   33 1
    25   10   11 ar
    26   10   34 1
    27   11   12 ar
    28   11   35 1
    29   12   13 ar
    30   12   36 1
    31   13   14 1
    32   14   15 1
    33   15   20 ar
    34   15   16 ar
    35   16   17 ar
    36   17   18 ar
    37   17   37 1
    38   18   19 ar
    39   18   21 1
    40   19   20 ar
    41   19   38 1
    42   20   39 1
@<TRIPOS>MOLECULE
ZINC19362651
   49    52     0     0     0
SMALL
USER_CHARGES

@<TRIPOS>ATOM
      1 C1          1.7167    1.5474    1.0576 C.3       1 <0>        -0.0456
      2 N1          1.8170    0.0824    1.0980 N.4       1 <0>        -0.3883
      3 C2          0.4703   -0.5019    1.0458 C.3       1 <0>        -0.0010
      4 C3          0.5733   -2.0275    1.1069 C.3       1 <0>         0.0175
      5 N2          1.3783   -2.5070   -0.0254 N.3       1 <0>        -0.5281
      6 C4          2.7215   -1.9110   -0.0004 C.3       1 <0>         0.0177
      7 C5          2.6009   -0.3864   -0.0524 C.3       1 <0>        -0.0017
      8 C6          1.4533   -3.9741   -0.0341 C.3       1 <0>         0.1437
      9 H1          0.4366   -4.3615    0.0312 H         1 <0>         0.1037
     10 C7          2.1925   -4.4065    1.1907 C.3       1 <0>        -0.1250
     11 C8          2.0390   -5.8652    1.4726 C.ar      1 <0>        -0.0552
     12 C9          1.1651   -6.2776    2.4716 C.ar      1 <0>        -0.1196
     13 C10         0.9919   -7.6273    2.7145 C.ar      1 <0>        -0.0925
     14 C11         1.6774   -8.5689    1.9681 C.ar      1 <0>        -0.1150
     15 C12         2.5565   -8.1584    0.9829 C.ar      1 <0>        -0.0637
     16 C13         2.7367   -6.7971    0.7623 C.ar      1 <0>        -0.1262
     17 S1          3.9137   -6.2336   -0.4155 S.3       1 <0>        -0.0082
     18 C14         3.0117   -5.3259   -1.6187 C.ar      1 <0>        -0.1042
     19 C15         2.0305   -4.4025   -1.3543 C.ar      1 <0>        -0.0476
     20 C16         1.4369   -3.7364   -2.4367 C.ar      1 <0>        -0.0825
     21 C17         1.7920   -3.9963   -3.7437 C.ar      1 <0>        -0.0750
     22 C18         2.7684   -4.9501   -4.0059 C.ar      1 <0>        -0.1188
     23 C19         3.3623   -5.5964   -2.9536 C.ar      1 <0>        -0.0674
     24 S2          1.0161   -3.1291   -5.0668 S.3       1 <0>        -0.1090
     25 C20         1.8022   -3.8051   -6.5553 C.3       1 <0>        -0.1464
     26 H2          1.2249    1.8525    0.1340 H         1 <0>         0.1235
     27 H3          1.1350    1.8954    1.9111 H         1 <0>         0.1242
     28 H4          2.7159    1.9812    1.0976 H         1 <0>         0.1243
     29 H5         -0.1145   -0.1430    1.8928 H         1 <0>         0.1369
     30 H6         -0.0176   -0.2076    0.1167 H         1 <0>         0.1388
     31 H7          1.0489   -2.3227    2.0421 H         1 <0>         0.0670
     32 H8         -0.4250   -2.4618    1.0532 H         1 <0>         0.1258
     33 H9          3.2325   -2.2044    0.9166 H         1 <0>         0.0671
     34 H10         3.2905   -2.2604   -0.8620 H         1 <0>         0.1255
     35 H11         2.1020   -0.0927   -0.9759 H         1 <0>         0.1387
     36 H12         3.5956    0.0581   -0.0196 H         1 <0>         0.1364
     37 H13         3.2513   -4.1829    1.0599 H         1 <0>         0.0945
     38 H14         1.8188   -3.8418    2.0448 H         1 <0>         0.0842
     39 H15         0.6244   -5.5473    3.0553 H         1 <0>         0.1260
     40 H16         0.3160   -7.9492    3.4928 H         1 <0>         0.1310
     41 H17         1.5265   -9.6219    2.1546 H         1 <0>         0.1353
     42 H18         3.0957   -8.8848    0.3929 H         1 <0>         0.1393
     43 H19         0.6761   -2.9955   -2.2400 H         1 <0>         0.1382
     44 H20         3.0536   -5.1787   -5.0221 H         1 <0>         0.1341
     45 H21         4.1239   -6.3350   -3.1557 H         1 <0>         0.1365
     46 H22         2.8755   -3.6189   -6.5158 H         1 <0>         0.0869
     47 H23         1.6213   -4.8787   -6.6061 H         1 <0>         0.0879
     48 H24         1.3822   -3.3237   -7.4385 H         1 <0>         0.1146
     49 H25         2.2727   -0.1999    1.9528 H         1 <0>         0.4222
@<TRIPOS>BOND
     1    1    2 1
     2    1   26 1
     3    1   27 1
     4    1   28 1
     5    2    7 1
     6    2    3 1
     7    2   49 1
     8    3    4 1
     9    3   29 1
    10    3   30 1
    11    4    5 1
    12    4   31 1
    13    4   32 1
    14    5    6 1
    15    5    8 1
    16    6    7 1
    17    6   33 1
    18    6   34 1
    19    7   35 1
    20    7   36 1
    21    8    9 1
    22    8   19 1
    23    8   10 1
    24   10   11 1
    25   10   37 1
    26   10   38 1
    27   11   16 ar
    28   11   12 ar
    29   12   13 ar
    30   12   39 1
    31   13   14 ar
    32   13   40 1
    33   14   15 ar
    34   14   41 1
    35   15   16 ar
    36   15   42 1
    37   16   17 1
    38   17   18 1
    39   18   23 ar
    40   18   19 ar
    41   19   20 ar
    42   20   21 ar
    43   20   43 1
    44   21   22 ar
    45   21   24 1
    46   22   23 ar
    47   22   44 1
    48   23   45 1
    49   24   25 1
    50   25   46 1
    51   25   47 1
    52   25   48 1
@<TRIPOS>MOLECULE
ZINC19362651
   48    51     0     0     0
SMALL
USER_CHARGES

@<TRIPOS>ATOM
      1 C1          1.7678    1.4835    1.0080 C.3       1 <0>         0.0249
      2 N1          1.7877    0.0147    0.9999 N.3       1 <0>        -0.5452
      3 C2          0.4233   -0.5307    1.0224 C.3       1 <0>         0.0573
      4 C3          0.4883   -2.0581    1.0935 C.3       1 <0>         0.0510
      5 N2          1.2373   -2.5683   -0.0634 N.3       1 <0>        -0.5276
      6 C4          2.6017   -2.0230   -0.0859 C.3       1 <0>         0.0532
      7 C5          2.5366   -0.4955   -0.1570 C.3       1 <0>         0.0574
      8 C6          1.2572   -4.0372   -0.0715 C.3       1 <0>         0.1374
      9 H1          0.2293   -4.3862    0.0269 H         1 <0>         0.0920
     10 C7          2.0183   -4.4959    1.1300 C.3       1 <0>        -0.1282
     11 C8          1.8194   -5.9476    1.4196 C.ar      1 <0>        -0.0436
     12 C9          0.9630   -6.3263    2.4467 C.ar      1 <0>        -0.1189
     13 C10         0.7474   -7.6683    2.6977 C.ar      1 <0>        -0.0964
     14 C11         1.3731   -8.6356    1.9317 C.ar      1 <0>        -0.1235
     15 C12         2.2351   -8.2590    0.9183 C.ar      1 <0>        -0.0672
     16 C13         2.4589   -6.9055    0.6894 C.ar      1 <0>        -0.1264
     17 S1          3.6180   -6.3874   -0.5264 S.3       1 <0>        -0.0147
     18 C14         2.7128   -5.4476   -1.7021 C.ar      1 <0>        -0.1066
     19 C15         1.7756   -4.4880   -1.4085 C.ar      1 <0>        -0.0308
     20 C16         1.1732   -3.8010   -2.4728 C.ar      1 <0>        -0.0744
     21 C17         1.4765   -4.0751   -3.7900 C.ar      1 <0>        -0.0779
     22 C18         2.4077   -5.0649   -4.0811 C.ar      1 <0>        -0.1253
     23 C19         3.0103   -5.7321   -3.0469 C.ar      1 <0>        -0.0718
     24 S2          0.6918   -3.1805   -5.0894 S.3       1 <0>        -0.1116
     25 C20         1.4043   -3.8866   -6.6008 C.3       1 <0>        -0.1460
     26 H2          1.2921    1.8454    0.0965 H         1 <0>         0.0270
     27 H3          1.2072    1.8345    1.8744 H         1 <0>         0.0688
     28 H4          2.7893    1.8604    1.0590 H         1 <0>         0.0692
     29 H5         -0.1068   -0.1483    1.8947 H         1 <0>         0.0809
     30 H6         -0.1032   -0.2309    0.1163 H         1 <0>         0.0439
     31 H7          0.9908   -2.3583    2.0131 H         1 <0>         0.0506
     32 H8         -0.5223   -2.4662    1.0812 H         1 <0>         0.0818
     33 H9          3.1282   -2.3228    0.8202 H         1 <0>         0.0496
     34 H10         3.1318   -2.4054   -0.9582 H         1 <0>         0.0812
     35 H11         2.0342   -0.1954   -1.0766 H         1 <0>         0.0437
     36 H12         3.5473   -0.0875   -0.1446 H         1 <0>         0.0799
     37 H13         3.0800   -4.3122    0.9652 H         1 <0>         0.0936
     38 H14         1.6933   -3.9170    1.9945 H         1 <0>         0.0901
     39 H15         0.4689   -5.5758    3.0458 H         1 <0>         0.1275
     40 H16         0.0850   -7.9641    3.4978 H         1 <0>         0.1273
     41 H17         1.1891   -9.6821    2.1250 H         1 <0>         0.1304
     42 H18         2.7278   -9.0055    0.3129 H         1 <0>         0.1355
     43 H19         0.4472   -3.0320   -2.2535 H         1 <0>         0.1402
     44 H20         2.6518   -5.3048   -5.1055 H         1 <0>         0.1300
     45 H21         3.7370   -6.4988   -3.2717 H         1 <0>         0.1324
     46 H22         1.1819   -4.9528   -6.6436 H         1 <0>         0.0844
     47 H23         0.9747   -3.3906   -7.4712 H         1 <0>         0.1104
     48 H24         2.4845   -3.7407   -6.5958 H         1 <0>         0.0846
@<TRIPOS>BOND
     1    1    2 1
     2    1   26 1
     3    1   27 1
     4    1   28 1
     5    2    7 1
     6    2    3 1
     7    3    4 1
     8    3   29 1
     9    3   30 1
    10    4    5 1
    11    4   31 1
    12    4   32 1
    13    5    6 1
    14    5    8 1
    15    6    7 1
    16    6   33 1
    17    6   34 1
    18    7   35 1
    19    7   36 1
    20    8    9 1
    21    8   19 1
    22    8   10 1
    23   10   11 1
    24   10   37 1
    25   10   38 1
    26   11   16 ar
    27   11   12 ar
    28   12   13 ar
    29   12   39 1
    30   13   14 ar
    31   13   40 1
    32   14   15 ar
    33   14   41 1
    34   15   16 ar
    35   15   42 1
    36   16   17 1
    37   17   18 1
    38   18   23 ar
    39   18   19 ar
    40   19   20 ar
    41   20   21 ar
    42   20   43 1
    43   21   22 ar
    44   21   24 1
    45   22   23 ar
    46   22   44 1
    47   23   45 1
    48   24   25 1
    49   25   46 1
    50   25   47 1
    51   25   48 1
@<TRIPOS>MOLECULE
ZINC19362651
   49    52     0     0     0
SMALL
USER_CHARGES

@<TRIPOS>ATOM
      1 C1          2.1658    1.4081    1.1053 C.3       1 <0>         0.0196
      2 N1          2.0995   -0.0585    1.0540 N.3       1 <0>        -0.5417
      3 C2          0.7129   -0.5279    1.1840 C.3       1 <0>         0.0269
      4 C3          0.6935   -2.0581    1.1857 C.3       1 <0>        -0.0137
      5 N2          1.2823   -2.5567   -0.0641 N.4       1 <0>        -0.3874
      6 C4          2.6745   -2.1002   -0.1679 C.3       1 <0>        -0.0103
      7 C5          2.7103   -0.5705   -0.1809 C.3       1 <0>         0.0280
      8 C6          1.2470   -4.0253   -0.0699 C.3       1 <0>         0.0987
      9 H1          0.2105   -4.3356    0.0618 H         1 <0>         0.1422
     10 C7          2.0284   -4.5112    1.1077 C.3       1 <0>        -0.1195
     11 C8          1.7848   -5.9542    1.4063 C.ar      1 <0>        -0.0629
     12 C9          0.9480   -6.2998    2.4609 C.ar      1 <0>        -0.1122
     13 C10         0.6905   -7.6326    2.7213 C.ar      1 <0>        -0.0884
     14 C11         1.2549   -8.6232    1.9378 C.ar      1 <0>        -0.1057
     15 C12         2.0977   -8.2799    0.8967 C.ar      1 <0>        -0.0611
     16 C13         2.3645   -6.9360    0.6581 C.ar      1 <0>        -0.1283
     17 S1          3.5028   -6.4626   -0.5950 S.3       1 <0>         0.0183
     18 C14         2.5963   -5.4905   -1.7432 C.ar      1 <0>        -0.0843
     19 C15         1.7054   -4.4963   -1.4219 C.ar      1 <0>        -0.0871
     20 C16         1.0955   -3.7881   -2.4679 C.ar      1 <0>        -0.1290
     21 C17         1.3463   -4.0744   -3.7934 C.ar      1 <0>        -0.0551
     22 C18         2.2302   -5.0986   -4.1120 C.ar      1 <0>        -0.1046
     23 C19         2.8401   -5.7870   -3.0962 C.ar      1 <0>        -0.0528
     24 S2          0.5545   -3.1522   -5.0691 S.3       1 <0>        -0.0919
     25 C20         1.1917   -3.8856   -6.6010 C.3       1 <0>        -0.1488
     26 H2          1.6318    1.8260    0.2520 H         1 <0>         0.0396
     27 H3          1.7070    1.7605    2.0291 H         1 <0>         0.0841
     28 H4          3.2079    1.7261    1.0729 H         1 <0>         0.0847
     29 H5          0.2897   -0.1578    2.1178 H         1 <0>         0.1262
     30 H6          0.1234   -0.1577    0.3452 H         1 <0>         0.0608
     31 H7          1.2718   -2.4277    2.0326 H         1 <0>         0.1442
     32 H8         -0.3354   -2.4083    1.2678 H         1 <0>         0.1379
     33 H9          3.2426   -2.4697    0.6858 H         1 <0>         0.1417
     34 H10         3.1142   -2.4818   -1.0895 H         1 <0>         0.1356
     35 H11         2.1537   -0.2009   -1.0422 H         1 <0>         0.0606
     36 H12         3.7443   -0.2314   -0.2429 H         1 <0>         0.1251
     37 H13         3.0904   -4.3675    0.9088 H         1 <0>         0.1137
     38 H14         1.7529   -3.9198    1.9809 H         1 <0>         0.1105
     39 H15         0.5015   -5.5308    3.0739 H         1 <0>         0.1329
     40 H16         0.0433   -7.9028    3.5426 H         1 <0>         0.1360
     41 H17         1.0381   -9.6619    2.1389 H         1 <0>         0.1395
     42 H18         2.5426   -9.0448    0.2774 H         1 <0>         0.1431
     43 H19         0.4061   -2.9923   -2.2271 H         1 <0>         0.1187
     44 H20         2.4323   -5.3483   -5.1432 H         1 <0>         0.1449
     45 H21         3.5300   -6.5806   -3.3424 H         1 <0>         0.1481
     46 H22         0.7534   -3.3746   -7.4582 H         1 <0>         0.1205
     47 H23         2.2762   -3.7802   -6.6306 H         1 <0>         0.0918
     48 H24         0.9284   -4.9428   -6.6346 H         1 <0>         0.0922
     49 H25         0.7538   -2.2050   -0.8484 H         1 <0>         0.4184
@<TRIPOS>BOND
     1    1    2 1
     2    1   26 1
     3    1   27 1
     4    1   28 1
     5    2    7 1
     6    2    3 1
     7    3    4 1
     8    3   29 1
     9    3   30 1
    10    4    5 1
    11    4   31 1
    12    4   32 1
    13    5    6 1
    14    5    8 1
    15    5   49 1
    16    6    7 1
    17    6   33 1
    18    6   34 1
    19    7   35 1
    20    7   36 1
    21    8    9 1
    22    8   19 1
    23    8   10 1
    24   10   11 1
    25   10   37 1
    26   10   38 1
    27   11   16 ar
    28   11   12 ar
    29   12   13 ar
    30   12   39 1
    31   13   14 ar
    32   13   40 1
    33   14   15 ar
    34   14   41 1
    35   15   16 ar
    36   15   42 1
    37   16   17 1
    38   17   18 1
    39   18   23 ar
    40   18   19 ar
    41   19   20 ar
    42   20   21 ar
    43   20   43 1
    44   21   22 ar
    45   21   24 1
    46   22   23 ar
    47   22   44 1
    48   23   45 1
    49   24   25 1
    50   25   46 1
    51   25   47 1
    52   25   48 1
