@<TRIPOS>MOLECULE
ZINC04097225
   37    38     0     0     0
SMALL
USER_CHARGES

@<TRIPOS>ATOM
      1 C1         -0.2505    1.5436    0.1589 C.3       1 <0>        -0.1893
      2 C2         -0.2774    0.0139    0.1663 C.3       1 <0>         0.1182
      3 H1         -1.2998   -0.3308    0.3212 H         1 <0>         0.0666
      4 C3          0.6129   -0.5064    1.2966 C.3       1 <0>        -0.1568
      5 H2          1.6063   -0.0578    1.2875 H         1 <0>         0.1232
      6 C4          0.6398   -2.0319    1.3910 C.3       1 <0>         0.0828
      7 H3          0.0161   -2.5701    0.6773 H         1 <0>         0.1413
      8 C5          2.0322   -2.6362    1.6288 C.3       1 <0>        -0.0734
      9 C6          2.1182   -2.8140    3.1274 C.2       1 <0>        -0.2254
     10 C7          0.9859   -2.3369    3.6871 C.2       1 <0>         0.1626
     11 N1          0.0784   -1.8083    2.7329 N.am      1 <0>        -0.4934
     12 C8         -0.0517   -0.4562    2.6504 C.2       1 <0>         0.5298
     13 O1         -0.5063    0.4170    3.3593 O.2       1 <0>        -0.4168
     14 C9          0.7268   -2.3666    5.0727 C.2       1 <0>         0.4419
     15 O2          1.6673   -2.7889    5.9176 O.co2     1 <0>        -0.6531
     16 O3         -0.4585   -1.9724    5.5377 O.co2     1 <0>        -0.6620
     17 S1          3.4727   -3.5270    4.0001 S.3       1 <0>         0.0075
     18 C10         4.8431   -2.3774    3.6983 C.3       1 <0>        -0.1645
     19 C11         6.1279   -2.9449    4.3051 C.3       1 <0>         0.1134
     20 N2          7.2346   -2.0165    4.0614 N.pl3     1 <0>        -0.6601
     21 C12         8.4920   -2.3150    4.5164 C.cat     1 <0>         0.5130
     22 N3          9.4690   -1.4954    4.3012 N.pl3     1 <0>        -0.7419
     23 O4          0.2063   -0.4771   -1.0855 O.3       1 <0>        -0.5633
     24 H4          0.7719    1.8883    0.0040 H         1 <0>         0.0640
     25 H5         -0.8848    1.9142   -0.6464 H         1 <0>         0.0647
     26 H6         -0.6195    1.9181    1.1137 H         1 <0>         0.0748
     27 H7          2.1197   -3.5993    1.1259 H         1 <0>         0.0969
     28 H8          2.8075   -1.9532    1.2818 H         1 <0>         0.0778
     29 H9          4.9762   -2.2446    2.6246 H         1 <0>         0.0861
     30 H10         4.6182   -1.4152    4.1582 H         1 <0>         0.0934
     31 H11         5.9948   -3.0777    5.3788 H         1 <0>         0.1156
     32 H12         6.3528   -3.9071    3.8451 H         1 <0>         0.1111
     33 H13         7.0772   -1.1905    3.5779 H         1 <0>         0.4221
     34 H14         8.6672   -3.2347    5.0547 H         1 <0>         0.2340
     35 H15         9.3115   -0.6694    3.8177 H         1 <0>         0.4263
     36 H16        -0.3115   -0.1864   -1.8486 H         1 <0>         0.3828
     37 H17        10.3592   -1.7067    4.6233 H         1 <0>         0.4500
@<TRIPOS>BOND
     1    1    2 1
     2    1   24 1
     3    1   25 1
     4    1   26 1
     5    2    3 1
     6    2    4 1
     7    2   23 1
     8    4    5 1
     9    4   12 1
    10    4    6 1
    11    6    7 1
    12    6   11 1
    13    6    8 1
    14    8    9 1
    15    8   27 1
    16    8   28 1
    17    9   10 2
    18    9   17 1
    19   10   11 1
    20   10   14 1
    21   11   12 am
    22   12   13 2
    23   14   15 2
    24   14   16 1
    25   17   18 1
    26   18   19 1
    27   18   29 1
    28   18   30 1
    29   19   20 1
    30   19   31 1
    31   19   32 1
    32   20   21 1
    33   20   33 1
    34   21   22 2
    35   21   34 1
    36   22   35 1
    37   22   37 1
    38   23   36 1
@<TRIPOS>MOLECULE
ZINC19795769
   43    44     0     0     0
SMALL
USER_CHARGES

@<TRIPOS>ATOM
      1 C1          4.4591    0.1549   -3.3236 C.3       1 <0>        -0.1568
      2 C2          3.2486    0.1012   -4.2577 C.3       1 <0>         0.1305
      3 H1          3.4015   -0.5762   -5.0978 H         1 <0>         0.0999
      4 C3          1.9333   -0.1482   -3.5194 C.3       1 <0>         0.0923
      5 H2          2.0316   -0.2175   -2.4360 H         1 <0>         0.1466
      6 C4          1.6159    1.2331   -4.0275 C.2       1 <0>         0.5315
      7 O1          0.6363    1.9368   -3.9004 O.2       1 <0>        -0.4777
      8 N1          2.7819    1.4264   -4.6678 N.am      1 <0>        -0.9581
      9 S1          3.4277    2.6636   -5.5593 S.o2      1 <0>         2.7691
     10 O2          2.8595    3.8986   -5.0416 O.2       1 <0>        -1.0576
     11 O3          4.8696    2.6095   -5.3746 O.2       1 <0>        -1.0646
     12 O4          3.0481    2.4294   -6.9439 O.3       1 <0>        -1.0718
     13 N2          1.1072   -1.2108   -4.0978 N.am      1 <0>        -0.6919
     14 C5          0.2230   -1.8728   -3.3256 C.2       1 <0>         0.5285
     15 O5          0.1785   -1.6565   -2.1307 O.2       1 <0>        -0.4829
     16 C6         -0.6950   -2.8645   -3.9337 C.2       1 <0>         0.1367
     17 N3         -1.6197   -3.4268   -3.2084 N.2       1 <0>        -0.2739
     18 O6         -1.8204   -3.0106   -1.8699 O.3       1 <0>        -0.1219
     19 C7         -2.8658   -3.7118   -1.1937 C.3       1 <0>         0.0352
     20 C8         -4.1865   -3.4978   -1.9358 C.3       1 <0>        -0.1453
     21 C9         -2.5374   -5.2057   -1.1575 C.3       1 <0>        -0.1436
     22 C10        -2.9909   -3.1907    0.2148 C.2       1 <0>         0.5173
     23 O7         -2.2532   -2.3012    0.6035 O.co2     1 <0>        -0.6597
     24 O8         -3.8299   -3.6586    0.9657 O.co2     1 <0>        -0.6885
     25 C11        -0.5615   -3.2159   -5.3639 C.2       1 <0>         0.1513
     26 C12        -1.3333   -4.2069   -5.9092 C.2       1 <0>        -0.1868
     27 S2         -0.7568   -4.1857   -7.6014 S.3       1 <0>        -0.0089
     28 C13         0.4418   -2.8731   -7.4161 C.2       1 <0>         0.3983
     29 N4          0.3072   -2.5685   -6.1393 N.2       1 <0>        -0.5762
     30 N5          1.2857   -2.3187   -8.3637 N.pl3     1 <0>        -0.7918
     31 H3          4.3279    0.9640   -2.6050 H         1 <0>         0.0668
     32 H4          4.5500   -0.7922   -2.7917 H         1 <0>         0.0740
     33 H5          5.3618    0.3313   -3.9084 H         1 <0>         0.0780
     34 H6          1.1966   -1.4379   -5.0366 H         1 <0>         0.4183
     35 H7         -4.0960   -3.8747   -2.9546 H         1 <0>         0.0509
     36 H8         -4.9840   -4.0327   -1.4200 H         1 <0>         0.0655
     37 H9         -4.4205   -2.4335   -1.9616 H         1 <0>         0.0511
     38 H10        -1.5965   -5.3582   -0.6287 H         1 <0>         0.0505
     39 H11        -3.3349   -5.7406   -0.6416 H         1 <0>         0.0656
     40 H12        -2.4469   -5.5826   -2.1762 H         1 <0>         0.0501
     41 H13        -2.0834   -4.8300   -5.4449 H         1 <0>         0.2049
     42 H14         1.2715   -2.6460   -9.2767 H         1 <0>         0.4212
     43 H15         1.8911   -1.6029   -8.1145 H         1 <0>         0.4242
@<TRIPOS>BOND
     1    1    2 1
     2    1   31 1
     3    1   32 1
     4    1   33 1
     5    2    3 1
     6    2    8 1
     7    2    4 1
     8    4    5 1
     9    4    6 1
    10    4   13 1
    11    6    7 2
    12    6    8 am
    13    8    9 1
    14    9   10 2
    15    9   11 2
    16    9   12 1
    17   13   14 am
    18   13   34 1
    19   14   15 2
    20   14   16 1
    21   16   17 2
    22   16   25 1
    23   17   18 1
    24   18   19 1
    25   19   20 1
    26   19   21 1
    27   19   22 1
    28   20   35 1
    29   20   36 1
    30   20   37 1
    31   21   38 1
    32   21   39 1
    33   21   40 1
    34   22   23 2
    35   22   24 1
    36   25   29 1
    37   25   26 2
    38   26   27 1
    39   26   41 1
    40   27   28 1
    41   28   29 2
    42   28   30 1
    43   30   42 1
    44   30   43 1
@<TRIPOS>MOLECULE
ZINC03787060
   31    33     0     0     0
SMALL
USER_CHARGES

@<TRIPOS>ATOM
      1 C1         -0.0187    1.5258    0.0104 C.3       1 <0>        -0.1186
      2 C2          0.0021   -0.0041    0.0020 C.3       1 <0>        -0.4655
      3 C3         -1.4146   -0.5970    0.2500 C.3       1 <0>         0.0201
      4 H1         -1.4407   -1.6244   -0.1133 H         1 <0>         0.0879
      5 N1         -1.7530   -0.5827    1.6766 N.am      1 <0>        -0.4910
      6 C4         -0.6219   -0.6803    2.6091 C.3       1 <0>        -0.3851
      7 H2         -0.5972    0.0495    3.4183 H         1 <0>         0.1818
      8 S1          0.8474   -0.6813    1.5011 S.o2      1 <0>         2.3298
      9 O1          1.7963    0.2643    1.9751 O.2       1 <0>        -0.9090
     10 O2          1.2489   -2.0213    1.2512 O.2       1 <0>        -0.9212
     11 C5         -1.1211   -2.0644    2.9842 C.3       1 <0>        -0.1786
     12 C6         -2.3389   -1.6771    2.1994 C.2       1 <0>         0.5126
     13 O3         -3.4416   -2.1674    2.0796 O.2       1 <0>        -0.4399
     14 C7         -2.4313    0.2197   -0.5052 C.2       1 <0>         0.5224
     15 O4         -2.7256   -0.0801   -1.6498 O.co2     1 <0>        -0.6803
     16 O5         -2.9595    1.1804    0.0283 O.co2     1 <0>        -0.6470
     17 C8          0.6227   -0.5460   -1.2872 C.3       1 <0>         0.1439
     18 N2          1.9493    0.0459   -1.4769 N.pl3     1 <0>        -0.3012
     19 C9          3.1037   -0.6368   -1.6565 C.2       1 <0>        -0.0548
     20 C10         4.0762    0.2952   -1.7894 C.2       1 <0>        -0.0512
     21 N3          3.4770    1.4867   -1.6860 N.2       1 <0>        -0.2713
     22 N4          2.2163    1.3047   -1.5068 N.2       1 <0>        -0.0636
     23 H3          1.0039    1.9031    0.0027 H         1 <0>         0.0884
     24 H4         -0.5459    1.8868   -0.8726 H         1 <0>         0.0922
     25 H5         -0.5289    1.8773    0.9072 H         1 <0>         0.0792
     26 H6         -0.5476   -2.8786    2.5411 H         1 <0>         0.1407
     27 H7         -1.3036   -2.1968    4.0507 H         1 <0>         0.1268
     28 H8          0.7149   -1.6299   -1.2184 H         1 <0>         0.1253
     29 H9         -0.0144   -0.2885   -2.1333 H         1 <0>         0.1421
     30 H10         3.2248   -1.7096   -1.6872 H         1 <0>         0.1939
     31 H11         5.1289    0.1127   -1.9476 H         1 <0>         0.1909
@<TRIPOS>BOND
     1    1    2 1
     2    1   23 1
     3    1   24 1
     4    1   25 1
     5    2    8 1
     6    2    3 1
     7    2   17 1
     8    3    4 1
     9    3    5 1
    10    3   14 1
    11    5   12 am
    12    5    6 1
    13    6    7 1
    14    6    8 1
    15    6   11 1
    16    8    9 2
    17    8   10 2
    18   11   12 1
    19   11   26 1
    20   11   27 1
    21   12   13 2
    22   14   15 2
    23   14   16 1
    24   17   18 1
    25   17   28 1
    26   17   29 1
    27   18   22 1
    28   18   19 1
    29   19   20 2
    30   19   30 1
    31   20   21 1
    32   20   31 1
    33   21   22 2
@<TRIPOS>MOLECULE
ZINC03913937
   62    65     0     0     0
SMALL
USER_CHARGES

@<TRIPOS>ATOM
      1 C1         -0.7416   -0.3449   -0.2728 C.3       1 <0>        -0.1701
      2 C2         -0.2308    0.8626    0.5159 C.3       1 <0>         0.1055
      3 N1          0.6080    0.4021    1.6252 N.am      1 <0>        -0.6016
      4 C3          0.0031    0.1099    2.9250 C.3       1 <0>         0.0954
      5 C4          0.6711   -1.1032    3.5660 C.3       1 <0>         0.0719
      6 N2          2.1249   -0.9389    3.5840 N.am      1 <0>        -0.5718
      7 C5          2.7532   -0.3513    2.5461 C.2       1 <0>         0.5150
      8 O1          3.9648   -0.3090    2.5047 O.2       1 <0>        -0.4092
      9 C6          1.9343    0.2431    1.4442 C.2       1 <0>         0.5195
     10 O2          2.4580    0.5810    0.4029 O.2       1 <0>        -0.4773
     11 C7          2.8377   -1.3757    4.6412 C.2       1 <0>         0.7026
     12 O3          4.0517   -1.3209    4.6200 O.2       1 <0>        -0.5133
     13 N3          2.2043   -1.8732    5.7218 N.am      1 <0>        -0.7136
     14 C8          2.9707   -2.2433    6.9142 C.3       1 <0>         0.1898
     15 H1          3.8053   -1.5533    7.0384 H         1 <0>         0.1277
     16 C9          3.4981   -3.6463    6.7569 C.ar      1 <0>        -0.1034
     17 C10         2.7067   -4.6215    6.1794 C.ar      1 <0>        -0.0968
     18 C11         3.1904   -5.9083    6.0351 C.ar      1 <0>        -0.1203
     19 C12         4.4658   -6.2199    6.4679 C.ar      1 <0>        -0.1100
     20 C13         5.2576   -5.2445    7.0446 C.ar      1 <0>        -0.1100
     21 C14         4.7754   -3.9566    7.1849 C.ar      1 <0>        -0.0909
     22 C15         2.0779   -2.1753    8.1263 C.2       1 <0>         0.5242
     23 O4          0.9159   -1.8496    8.0061 O.2       1 <0>        -0.5278
     24 N4          2.5709   -2.4763    9.3441 N.am      1 <0>        -0.6865
     25 C16         1.7029   -2.4101   10.5225 C.3       1 <0>         0.0769
     26 H2          0.6497   -2.5452   10.2765 H         1 <0>         0.1312
     27 C17         2.1741   -3.2951   11.6711 C.3       1 <0>         0.1188
     28 H3          1.4086   -3.8764   12.1851 H         1 <0>         0.1577
     29 N5          2.5914   -2.0188   12.2890 N.am      1 <0>        -0.5146
     30 C18         1.9648   -1.2051   11.3917 C.2       1 <0>         0.5107
     31 O5          1.7215   -0.0190   11.3217 O.2       1 <0>        -0.4255
     32 C19         4.0376   -1.8241   12.4389 C.3       1 <0>         0.0229
     33 H4          4.4136   -1.2742   11.5761 H         1 <0>         0.0681
     34 C20         4.7927   -3.1779   12.5453 C.3       1 <0>         0.0475
     35 S1          3.7560   -4.1752   11.3517 S.3       1 <0>        -0.3109
     36 C21         6.2406   -3.0536   12.0667 C.3       1 <0>        -0.1264
     37 C22         4.7202   -3.7527   13.9613 C.3       1 <0>        -0.1298
     38 C23         4.2986   -1.0191   13.6859 C.2       1 <0>         0.5128
     39 O6          3.3868   -0.7802   14.4592 O.co2     1 <0>        -0.6572
     40 O7          5.4215   -0.6068   13.9214 O.co2     1 <0>        -0.6847
     41 H5         -1.3286   -0.9863    0.3846 H         1 <0>         0.0595
     42 H6         -1.3657   -0.0022   -1.0981 H         1 <0>         0.0720
     43 H7          0.1056   -0.9064   -0.6666 H         1 <0>         0.0595
     44 H8          0.3562    1.5040   -0.1415 H         1 <0>         0.0911
     45 H9         -1.0780    1.4241    0.9097 H         1 <0>         0.0873
     46 H10         0.1221    0.9735    3.5793 H         1 <0>         0.0863
     47 H11        -1.0591   -0.0942    2.7896 H         1 <0>         0.1153
     48 H12         0.3092   -1.2149    4.5880 H         1 <0>         0.1147
     49 H13         0.4173   -1.9967    2.9956 H         1 <0>         0.0954
     50 H14         1.2410   -1.9862    5.7100 H         1 <0>         0.4078
     51 H15         1.7103   -4.3780    5.8412 H         1 <0>         0.1169
     52 H16         2.5719   -6.6704    5.5845 H         1 <0>         0.1217
     53 H17         4.8435   -7.2255    6.3558 H         1 <0>         0.1222
     54 H18         6.2538   -5.4880    7.3830 H         1 <0>         0.1263
     55 H19         5.3953   -3.1936    7.6321 H         1 <0>         0.1262
     56 H20         3.5003   -2.7367    9.4403 H         1 <0>         0.4172
     57 H21         6.7637   -2.3187   12.6786 H         1 <0>         0.0985
     58 H22         6.7369   -4.0200   12.1558 H         1 <0>         0.0649
     59 H23         6.2527   -2.7337   11.0248 H         1 <0>         0.0610
     60 H24         3.6777   -3.9176   14.2336 H         1 <0>         0.0639
     61 H25         5.2592   -4.6994   13.9972 H         1 <0>         0.0606
     62 H26         5.1720   -3.0506   14.6620 H         1 <0>         0.0851
@<TRIPOS>BOND
     1    1    2 1
     2    1   41 1
     3    1   42 1
     4    1   43 1
     5    2    3 1
     6    2   44 1
     7    2   45 1
     8    3    9 am
     9    3    4 1
    10    4    5 1
    11    4   46 1
    12    4   47 1
    13    5    6 1
    14    5   48 1
    15    5   49 1
    16    6    7 am
    17    6   11 am
    18    7    8 2
    19    7    9 1
    20    9   10 2
    21   11   12 2
    22   11   13 am
    23   13   14 1
    24   13   50 1
    25   14   15 1
    26   14   16 1
    27   14   22 1
    28   16   21 ar
    29   16   17 ar
    30   17   18 ar
    31   17   51 1
    32   18   19 ar
    33   18   52 1
    34   19   20 ar
    35   19   53 1
    36   20   21 ar
    37   20   54 1
    38   21   55 1
    39   22   23 2
    40   22   24 am
    41   24   25 1
    42   24   56 1
    43   25   26 1
    44   25   30 1
    45   25   27 1
    46   27   28 1
    47   27   35 1
    48   27   29 1
    49   29   30 am
    50   29   32 1
    51   30   31 2
    52   32   33 1
    53   32   34 1
    54   32   38 1
    55   34   35 1
    56   34   36 1
    57   34   37 1
    58   36   57 1
    59   36   58 1
    60   36   59 1
    61   37   60 1
    62   37   61 1
    63   37   62 1
    64   38   39 2
    65   38   40 1
@<TRIPOS>MOLECULE
ZINC03830449
   44    46     0     0     0
SMALL
USER_CHARGES

@<TRIPOS>ATOM
      1 C1          0.0251    1.4314   -0.1412 C.3       1 <0>         0.0237
      2 O1          0.0348    0.0027   -0.1111 O.3       1 <0>        -0.3558
      3 C2         -1.2665   -0.5866   -0.0716 C.3       1 <0>         0.3139
      4 C3         -1.2359   -2.1003    0.0595 C.3       1 <0>         0.1426
      5 H1         -0.2567   -2.5687   -0.0398 H         1 <0>         0.1424
      6 N1         -2.0805   -2.0429   -1.1711 N.am      1 <0>        -0.5270
      7 C4         -1.8939   -0.7411   -1.4390 C.2       1 <0>         0.5461
      8 O2         -2.1282   -0.0053   -2.3744 O.2       1 <0>        -0.4347
      9 C5         -2.8939   -3.0824   -1.6690 C.2       1 <0>         0.1128
     10 C6         -3.2747   -4.0735   -0.8778 C.2       1 <0>        -0.1826
     11 C7         -2.9169   -4.3113    0.5532 C.3       1 <0>         0.0033
     12 S1         -2.2899   -2.7964    1.3764 S.3       1 <0>        -0.2355
     13 C8         -4.1893   -5.0955   -1.5025 C.3       1 <0>         0.1615
     14 O3         -4.6054   -6.0334   -0.5079 O.3       1 <0>        -0.3839
     15 C9         -5.3477   -7.0767   -0.9241 C.2       1 <0>         0.6472
     16 O4         -5.6343   -7.1878   -2.0997 O.2       1 <0>        -0.5638
     17 N2         -5.7728   -7.9979   -0.0369 N.am      1 <0>        -0.8355
     18 C10        -3.3225   -3.0649   -3.0770 C.2       1 <0>         0.5172
     19 O5         -3.9378   -4.0152   -3.5410 O.co2     1 <0>        -0.6607
     20 O6         -3.0634   -2.1001   -3.7834 O.co2     1 <0>        -0.6508
     21 N3         -2.1493    0.0639    0.8999 N.am      1 <0>        -0.7292
     22 C11        -3.4624   -0.2386    0.9253 C.2       1 <0>         0.5103
     23 O7         -3.9132   -1.0494    0.1441 O.2       1 <0>        -0.4579
     24 C12        -4.3706    0.4305    1.9246 C.3       1 <0>        -0.0442
     25 C13        -5.7774   -0.0789    1.7448 C.2       1 <0>        -0.1240
     26 C14        -6.3848   -1.1358    2.3375 C.2       1 <0>        -0.1397
     27 C15        -7.6990   -1.4200    2.0169 C.2       1 <0>        -0.1543
     28 C16        -8.3416   -0.6333    1.1193 C.2       1 <0>        -0.1765
     29 S2         -7.0789    0.5577    0.7017 S.3       1 <0>         0.0472
     30 H2          1.0500    1.8011   -0.1703 H         1 <0>         0.0983
     31 H3         -0.5096    1.7725   -1.0277 H         1 <0>         0.0594
     32 H4         -0.4726    1.8102    0.7515 H         1 <0>         0.0468
     33 H5         -3.7992   -4.6671    1.0852 H         1 <0>         0.1189
     34 H6         -2.1419   -5.0761    0.6028 H         1 <0>         0.0873
     35 H7         -5.0637   -4.5947   -1.9180 H         1 <0>         0.0924
     36 H8         -3.6590   -5.6200   -2.2973 H         1 <0>         0.0959
     37 H9         -5.5440   -7.9092    0.9016 H         1 <0>         0.4028
     38 H10        -6.3075   -8.7496   -0.3368 H         1 <0>         0.4200
     39 H11        -1.7888    0.7123    1.5247 H         1 <0>         0.4041
     40 H12        -4.0287    0.2046    2.9346 H         1 <0>         0.1155
     41 H13        -4.3518    1.5090    1.7674 H         1 <0>         0.1047
     42 H14        -5.8499   -1.7469    3.0493 H         1 <0>         0.1296
     43 H15        -8.2062   -2.2564    2.4746 H         1 <0>         0.1299
     44 H16        -9.3555   -0.7058    0.7545 H         1 <0>         0.1824
@<TRIPOS>BOND
     1    1    2 1
     2    1   30 1
     3    1   31 1
     4    1   32 1
     5    2    3 1
     6    3    7 1
     7    3    4 1
     8    3   21 1
     9    4    5 1
    10    4   12 1
    11    4    6 1
    12    6    7 am
    13    6    9 1
    14    7    8 2
    15    9   10 2
    16    9   18 1
    17   10   11 1
    18   10   13 1
    19   11   12 1
    20   11   33 1
    21   11   34 1
    22   13   14 1
    23   13   35 1
    24   13   36 1
    25   14   15 1
    26   15   16 2
    27   15   17 am
    28   17   37 1
    29   17   38 1
    30   18   19 2
    31   18   20 1
    32   21   22 am
    33   21   39 1
    34   22   23 2
    35   22   24 1
    36   24   25 1
    37   24   40 1
    38   24   41 1
    39   25   29 1
    40   25   26 2
    41   26   27 1
    42   26   42 1
    43   27   28 2
    44   27   43 1
    45   28   29 1
    46   28   44 1
