@<TRIPOS>MOLECULE
ZINC01920031
   43    46     0     0     0
SMALL
USER_CHARGES
3-bromo-5-chloro-N-[5-chloro-2-[(1-chloro-2-naphthyl)oxy]phenyl]-2-hydroxy-benzamide
@<TRIPOS>ATOM
      1 C1         -2.6534    5.9794   -4.8647 C.ar      1 <0>        -0.1256
      2 C2         -3.2392    5.4783   -3.7035 C.ar      1 <0>        -0.1025
      3 C3         -2.6317    5.6224   -2.4943 C.ar      1 <0>        -0.1120
      4 C4         -1.4005    6.2954   -2.4101 C.ar      1 <0>        -0.0101
      5 C5         -0.8071    6.8099   -3.5904 C.ar      1 <0>        -0.0691
      6 C6         -1.4624    6.6365   -4.8217 C.ar      1 <0>        -0.0904
      7 C7          0.4234    7.4838   -3.5101 C.ar      1 <0>        -0.0573
      8 C8          1.0350    7.6375   -2.3051 C.ar      1 <0>        -0.1638
      9 C9          0.4573    7.1333   -1.1361 C.ar      1 <0>         0.1444
     10 C10        -0.7475    6.4673   -1.1779 C.ar      1 <0>        -0.0714
     11 Cl1        -1.4545    5.8459    0.2808 Cl        1 <0>        -0.0506
     12 O1          1.0914    7.3018    0.0539 O.3       1 <0>        -0.2379
     13 C11         2.3269    7.8693    0.0442 C.ar      1 <0>         0.0323
     14 C12         3.4578    7.0700   -0.0045 C.ar      1 <0>        -0.0869
     15 C13         4.7134    7.6481   -0.0202 C.ar      1 <0>        -0.1310
     16 C14         4.8457    9.0250    0.0241 C.ar      1 <0>        -0.0056
     17 C15         3.7220    9.8293    0.0786 C.ar      1 <0>        -0.1142
     18 C16         2.4589    9.2557    0.0888 C.ar      1 <0>         0.1911
     19 N1          1.3195   10.0678    0.1444 N.am      1 <0>        -0.6944
     20 C17         1.3157   11.2665   -0.4718 C.2       1 <0>         0.5731
     21 O2          2.3243   11.6741   -1.0152 O.2       1 <0>        -0.4924
     22 C18         0.0880   12.0841   -0.4869 C.ar      1 <0>        -0.2826
     23 C19        -1.0732   11.6195    0.1364 C.ar      1 <0>        -0.0038
     24 C20        -2.2177   12.3884    0.1188 C.ar      1 <0>        -0.1699
     25 C21        -2.2219   13.6214   -0.5150 C.ar      1 <0>        -0.0081
     26 C22        -1.0808   14.0918   -1.1351 C.ar      1 <0>        -0.2086
     27 C23         0.0814   13.3333   -1.1213 C.ar      1 <0>         0.3290
     28 O3          1.2048   13.7969   -1.7249 O.3       1 <0>        -0.6238
     29 Br1        -1.0995   15.7753   -1.9961 Br        1 <0>        -0.0748
     30 Cl2        -3.6594   11.8101    0.8940 Cl        1 <0>        -0.1076
     31 Cl3         6.4257    9.7441    0.0119 Cl        1 <0>        -0.0631
     32 H1         -3.1544    5.8482   -5.8124 H         1 <0>         0.1241
     33 H2         -4.1873    4.9647   -3.7648 H         1 <0>         0.1249
     34 H3         -3.0951    5.2250   -1.6033 H         1 <0>         0.1318
     35 H4         -1.0226    7.0225   -5.7295 H         1 <0>         0.1303
     36 H5          0.8826    7.8795   -4.4040 H         1 <0>         0.1379
     37 H6          1.9808    8.1561   -2.2505 H         1 <0>         0.1382
     38 H7          3.3581    5.9950   -0.0347 H         1 <0>         0.1411
     39 H8          5.5934    7.0236   -0.0627 H         1 <0>         0.1388
     40 H9          3.8278   10.9036    0.1134 H         1 <0>         0.1621
     41 H10         0.4276    9.7274    0.6910 H         1 <0>         0.4314
     42 H11        -1.0742   10.6597    0.6315 H         1 <0>         0.1089
     43 H12        -3.1225   14.2174   -0.5242 H         1 <0>         0.1181
@<TRIPOS>BOND
     1    1    6 ar
     2    1    2 ar
     3    1   32 1
     4    2    3 ar
     5    2   33 1
     6    3    4 ar
     7    3   34 1
     8    4   10 ar
     9    4    5 ar
    10    5    6 ar
    11    5    7 ar
    12    6   35 1
    13    7    8 ar
    14    7   36 1
    15    8    9 ar
    16    8   37 1
    17    9   10 ar
    18    9   12 1
    19   10   11 1
    20   12   13 1
    21   13   18 ar
    22   13   14 ar
    23   14   15 ar
    24   14   38 1
    25   15   16 ar
    26   15   39 1
    27   16   17 ar
    28   16   31 1
    29   17   18 ar
    30   17   40 1
    31   18   19 1
    32   19   20 am
    33   19   41 1
    34   20   21 2
    35   20   22 1
    36   22   27 ar
    37   22   23 ar
    38   23   24 ar
    39   23   42 1
    40   24   25 ar
    41   24   30 1
    42   25   26 ar
    43   25   43 1
    44   26   27 ar
    45   26   29 1
    46   27   28 1
@<TRIPOS>MOLECULE
ZINC01920031
   44    47     0     0     0
SMALL
USER_CHARGES
3-bromo-5-chloro-N-[5-chloro-2-[(1-chloro-2-naphthyl)oxy]phenyl]-2-hydroxy-benzamide
@<TRIPOS>ATOM
      1 C1         -2.6534    5.9794   -4.8647 C.ar      1 <0>        -0.1193
      2 C2         -3.2392    5.4783   -3.7035 C.ar      1 <0>        -0.0978
      3 C3         -2.6317    5.6224   -2.4943 C.ar      1 <0>        -0.1126
      4 C4         -1.4005    6.2954   -2.4101 C.ar      1 <0>        -0.0119
      5 C5         -0.8071    6.8099   -3.5904 C.ar      1 <0>        -0.0685
      6 C6         -1.4624    6.6365   -4.8217 C.ar      1 <0>        -0.0938
      7 C7          0.4234    7.4838   -3.5101 C.ar      1 <0>        -0.0566
      8 C8          1.0350    7.6375   -2.3051 C.ar      1 <0>        -0.1705
      9 C9          0.4573    7.1333   -1.1361 C.ar      1 <0>         0.1343
     10 C10        -0.7475    6.4673   -1.1779 C.ar      1 <0>        -0.0666
     11 Cl1        -1.4545    5.8459    0.2808 Cl        1 <0>        -0.0447
     12 O1          1.0914    7.3018    0.0539 O.3       1 <0>        -0.2402
     13 C11         2.3269    7.8693    0.0442 C.ar      1 <0>         0.0506
     14 C12         3.4578    7.0700   -0.0045 C.ar      1 <0>        -0.0863
     15 C13         4.7134    7.6481   -0.0202 C.ar      1 <0>        -0.1138
     16 C14         4.8457    9.0250    0.0241 C.ar      1 <0>        -0.0094
     17 C15         3.7220    9.8293    0.0786 C.ar      1 <0>        -0.1084
     18 C16         2.4589    9.2557    0.0888 C.ar      1 <0>         0.1678
     19 N1          1.3195   10.0678    0.1444 N.am      1 <0>        -0.6806
     20 C17         1.3157   11.2665   -0.4718 C.2       1 <0>         0.5709
     21 O2          2.3243   11.6741   -1.0152 O.2       1 <0>        -0.4876
     22 C18         0.0880   12.0841   -0.4869 C.ar      1 <0>        -0.1679
     23 C19        -1.0732   11.6195    0.1364 C.ar      1 <0>        -0.0168
     24 C20        -2.2177   12.3884    0.1188 C.ar      1 <0>        -0.0836
     25 C21        -2.2219   13.6214   -0.5150 C.ar      1 <0>        -0.0065
     26 C22        -1.0808   14.0918   -1.1351 C.ar      1 <0>        -0.1956
     27 C23         0.0814   13.3333   -1.1213 C.ar      1 <0>         0.2582
     28 O3          1.2048   13.7969   -1.7249 O.3       1 <0>        -0.4575
     29 Br1        -1.0995   15.7753   -1.9961 Br        1 <0>        -0.0124
     30 Cl2        -3.6594   11.8101    0.8940 Cl        1 <0>        -0.0443
     31 Cl3         6.4257    9.7441    0.0119 Cl        1 <0>        -0.0521
     32 H1         -3.1544    5.8482   -5.8124 H         1 <0>         0.1274
     33 H2         -4.1873    4.9647   -3.7648 H         1 <0>         0.1285
     34 H3         -3.0951    5.2250   -1.6033 H         1 <0>         0.1340
     35 H4         -1.0226    7.0225   -5.7295 H         1 <0>         0.1317
     36 H5          0.8826    7.8795   -4.4040 H         1 <0>         0.1381
     37 H6          1.9808    8.1561   -2.2505 H         1 <0>         0.1364
     38 H7          3.3581    5.9950   -0.0347 H         1 <0>         0.1476
     39 H8          5.5934    7.0236   -0.0627 H         1 <0>         0.1454
     40 H9          3.8278   10.9036    0.1134 H         1 <0>         0.1601
     41 H10         0.4276    9.7274    0.6910 H         1 <0>         0.4390
     42 H11        -1.0742   10.6597    0.6315 H         1 <0>         0.1474
     43 H12        -3.1225   14.2174   -0.5242 H         1 <0>         0.1533
     44 H13         1.1970   14.7780   -2.2223 H         1 <0>         0.4345
@<TRIPOS>BOND
     1    1    6 ar
     2    1    2 ar
     3    1   32 1
     4    2    3 ar
     5    2   33 1
     6    3    4 ar
     7    3   34 1
     8    4   10 ar
     9    4    5 ar
    10    5    6 ar
    11    5    7 ar
    12    6   35 1
    13    7    8 ar
    14    7   36 1
    15    8    9 ar
    16    8   37 1
    17    9   10 ar
    18    9   12 1
    19   10   11 1
    20   12   13 1
    21   13   18 ar
    22   13   14 ar
    23   14   15 ar
    24   14   38 1
    25   15   16 ar
    26   15   39 1
    27   16   17 ar
    28   16   31 1
    29   17   18 ar
    30   17   40 1
    31   18   19 1
    32   19   20 am
    33   19   41 1
    34   20   21 2
    35   20   22 1
    36   22   27 ar
    37   22   23 ar
    38   23   24 ar
    39   23   42 1
    40   24   25 ar
    41   24   30 1
    42   25   26 ar
    43   25   43 1
    44   26   27 ar
    45   26   29 1
    46   27   28 1
    47   28   44 1
@<TRIPOS>MOLECULE
ZINC05049216
   69    73     0     0     0
SMALL
USER_CHARGES
10-(4-amino-5-hydroxy-6-methyl-tetrahydropyran-2-yl)oxy-6,8,11-trihydroxy-8-(2-hydroxyacetyl)-1-methoxy-9,10-dihydro-7H-tetracene-5,12-dione
@<TRIPOS>ATOM
      1 C1          9.3265    9.6417    1.5155 C.3       1 <0>        -0.1975
      2 C2          9.1660   10.1405    0.0780 C.3       1 <0>         0.0735
      3 H1          9.2826   11.2240    0.0540 H         1 <0>         0.1306
      4 C3         10.2321    9.4925   -0.8092 C.3       1 <0>         0.0560
      5 H2         10.1443    9.8781   -1.8250 H         1 <0>         0.0955
      6 C4         10.0244    7.9749   -0.8181 C.3       1 <0>         0.0385
      7 H3         10.1612    7.5822    0.1895 H         1 <0>         0.1533
      8 C5          8.6028    7.6680   -1.2991 C.3       1 <0>        -0.1671
      9 C6          7.5997    8.3865   -0.3929 C.3       1 <0>         0.2568
     10 H4          7.6932    8.0079    0.6249 H         1 <0>         0.0792
     11 O1          7.8680    9.7900   -0.4061 O.3       1 <0>        -0.3803
     12 O2          6.2732    8.1503   -0.8691 O.3       1 <0>        -0.3355
     13 C7          5.2483    8.5578    0.0396 C.3       1 <0>         0.1510
     14 H5          5.6331    8.5111    1.0583 H         1 <0>         0.0836
     15 C8          4.8367    9.9937   -0.2774 C.3       1 <0>        -0.1217
     16 C9          3.5971   10.3355    0.5580 C.3       1 <0>         0.1027
     17 C10         2.4169    9.5325    0.0159 C.3       1 <0>        -0.1002
     18 C11         2.7732    8.0721   -0.0940 C.ar      1 <0>        -0.0366
     19 C12         4.0708    7.6259   -0.0897 C.ar      1 <0>        -0.0844
     20 C13         4.3427    6.2560   -0.2035 C.ar      1 <0>         0.1772
     21 C14         3.3039    5.3349   -0.3200 C.ar      1 <0>        -0.1391
     22 C15         1.9710    5.7930   -0.3209 C.ar      1 <0>        -0.1251
     23 C16         1.7170    7.1587   -0.2074 C.ar      1 <0>         0.1592
     24 O3          0.4371    7.6070   -0.2071 O.3       1 <0>        -0.4695
     25 C17         0.8607    4.8327   -0.4415 C.2       1 <0>         0.4340
     26 O4         -0.2892    5.2277   -0.4414 O.2       1 <0>        -0.4024
     27 C18         1.1475    3.3881   -0.5623 C.ar      1 <0>        -0.0818
     28 C19         0.1055    2.4737   -0.6767 C.ar      1 <0>        -0.1036
     29 C20         0.3795    1.1209   -0.7940 C.ar      1 <0>        -0.0524
     30 C21         1.6825    0.6662   -0.7881 C.ar      1 <0>        -0.1901
     31 C22         2.7401    1.5634   -0.6749 C.ar      1 <0>         0.1797
     32 C23         2.4788    2.9323   -0.5613 C.ar      1 <0>        -0.1639
     33 C24         3.5893    3.8944   -0.4415 C.2       1 <0>         0.4385
     34 O5          4.7397    3.4995   -0.4418 O.2       1 <0>        -0.4070
     35 O6          4.0187    1.1119   -0.6744 O.3       1 <0>        -0.2857
     36 C25         4.2085   -0.2994   -0.7937 C.3       1 <0>         0.0183
     37 O7          5.6280    5.8231   -0.2006 O.3       1 <0>        -0.4692
     38 C26         3.8400    9.9708    1.9999 C.2       1 <0>         0.3171
     39 O8          3.4593    8.9070    2.4261 O.2       1 <0>        -0.3997
     40 C27         4.5581   10.9337    2.9100 C.3       1 <0>         0.0410
     41 O9          4.6652   10.3646    4.2164 O.3       1 <0>        -0.5563
     42 O10         3.3175   11.7331    0.4553 O.3       1 <0>        -0.5325
     43 O11        11.5308    9.7937   -0.2948 O.3       1 <0>        -0.5625
     44 H6         10.3170    9.9084    1.8842 H         1 <0>         0.0882
     45 H7          8.5674   10.1032    2.1471 H         1 <0>         0.0801
     46 H8          9.2095    8.5583    1.5394 H         1 <0>         0.0603
     47 H9          8.4278    6.5930   -1.2559 H         1 <0>         0.1202
     48 H10         8.4821    8.0168   -2.3247 H         1 <0>         0.1122
     49 H11         5.6499   10.6735   -0.0231 H         1 <0>         0.1023
     50 H12         4.6008   10.0826   -1.3378 H         1 <0>         0.1029
     51 H13         1.5666    9.6451    0.6885 H         1 <0>         0.0957
     52 H14         2.1475    9.9111   -0.9701 H         1 <0>         0.1148
     53 H15         0.0387    7.6588    0.6725 H         1 <0>         0.4015
     54 H16        -0.9178    2.8191   -0.6783 H         1 <0>         0.1478
     55 H17        -0.4334    0.4159   -0.8871 H         1 <0>         0.1446
     56 H18         1.8826   -0.3914   -0.8763 H         1 <0>         0.1448
     57 H19         3.7758   -0.6462   -1.7321 H         1 <0>         0.0610
     58 H20         5.2748   -0.5251   -0.7799 H         1 <0>         0.1068
     59 H21         3.7196   -0.8034    0.0400 H         1 <0>         0.0614
     60 H22         6.0023    5.6964   -1.0831 H         1 <0>         0.3928
     61 H23         5.4730   11.1142    2.5490 H         1 <0>         0.0724
     62 H24         3.9985   11.8675    2.9652 H         1 <0>         0.0874
     63 H25         5.1177   10.9310    4.8563 H         1 <0>         0.3898
     64 H26         2.5440   12.0177    0.9610 H         1 <0>         0.3901
     65 H27        10.8736    6.3501   -1.7547 H         1 <0>         0.4411
     66 H28        10.9333    7.7493   -2.6516 H         1 <0>         0.4362
     67 H29        11.7307   10.7392   -0.2605 H         1 <0>         0.4118
     68 N1         11.0175    7.3577   -1.7150 N.4       1 <0>        -0.6379
     69 H30        11.9605    7.5476   -1.3560 H         1 <0>         0.4502
@<TRIPOS>BOND
     1    1    2 1
     2    1   44 1
     3    1   45 1
     4    1   46 1
     5    2    3 1
     6    2   11 1
     7    2    4 1
     8    4    5 1
     9    4    6 1
    10    4   43 1
    11    6    7 1
    12    6    8 1
    13    6   68 1
    14    8    9 1
    15    8   47 1
    16    8   48 1
    17    9   10 1
    18    9   11 1
    19    9   12 1
    20   12   13 1
    21   13   14 1
    22   13   19 1
    23   13   15 1
    24   15   16 1
    25   15   49 1
    26   15   50 1
    27   16   17 1
    28   16   38 1
    29   16   42 1
    30   17   18 1
    31   17   51 1
    32   17   52 1
    33   18   23 ar
    34   18   19 ar
    35   19   20 ar
    36   20   21 ar
    37   20   37 1
    38   21   33 1
    39   21   22 ar
    40   22   23 ar
    41   22   25 1
    42   23   24 1
    43   24   53 1
    44   25   26 2
    45   25   27 1
    46   27   32 ar
    47   27   28 ar
    48   28   29 ar
    49   28   54 1
    50   29   30 ar
    51   29   55 1
    52   30   31 ar
    53   30   56 1
    54   31   32 ar
    55   31   35 1
    56   32   33 1
    57   33   34 2
    58   35   36 1
    59   36   57 1
    60   36   58 1
    61   36   59 1
    62   37   60 1
    63   38   39 2
    64   38   40 1
    65   40   41 1
    66   40   61 1
    67   40   62 1
    68   41   63 1
    69   42   64 1
    70   43   67 1
    71   65   68 1
    72   66   68 1
    73   68   69 1
@<TRIPOS>MOLECULE
ZINC14210455
   82    84     0     0     0
SMALL
USER_CHARGES
(1S,4S,5R)-N-[(1S)-3-amino-1-(cyclobutylmethyl)-2,3-dioxo-propyl]-3-[(2S)-2-(tert-butylcarbamoylamino)-3,3-dimethyl-butanoyl]-6,6-dimethyl-3-azabicyclo[3.1.0]hexane-4-carboxamide
@<TRIPOS>ATOM
      1 C1          7.5547    3.7597   -5.7148 C.3       1 <0>        -0.1152
      2 C2          6.7695    2.5173   -5.2894 C.3       1 <0>        -0.0741
      3 C3          7.5571    1.3671   -4.6589 C.3       1 <0>        -0.1632
      4 H1          8.6239    1.4864   -4.4697 H         1 <0>         0.1311
      5 C4          6.9948    1.2327   -6.0894 C.3       1 <0>        -0.1680
      6 H2          7.6217    1.2576   -6.9807 H         1 <0>         0.1330
      7 C5          5.9282    0.1204   -5.9955 C.3       1 <0>         0.1486
      8 H3          5.0773    0.3549   -6.6351 H         1 <0>         0.1160
      9 N1          5.5182    0.1148   -4.5719 N.am      1 <0>        -0.5957
     10 C6          6.7800    0.3307   -3.8263 C.3       1 <0>         0.1194
     11 C7          4.2779   -0.0447   -4.0693 C.2       1 <0>         0.5481
     12 O1          3.3273   -0.1336   -4.8173 O.2       1 <0>        -0.5286
     13 C8          4.0721   -0.1127   -2.5780 C.3       1 <0>         0.1656
     14 H4          4.8141    0.5115   -2.0800 H         1 <0>         0.1084
     15 C9          4.2251   -1.5604   -2.1075 C.3       1 <0>        -0.0694
     16 C10         3.2264   -2.4474   -2.8537 C.3       1 <0>        -0.1403
     17 C11         5.6487   -2.0422   -2.3943 C.3       1 <0>        -0.1574
     18 C12         3.9532   -1.6395   -0.6039 C.3       1 <0>        -0.1272
     19 N2          2.7284    0.3687   -2.2480 N.am      1 <0>        -0.7322
     20 C13         2.4755    0.8754   -1.0250 C.2       1 <0>         0.7121
     21 O2          3.3627    0.9332   -0.1956 O.2       1 <0>        -0.5780
     22 N3          1.2393    1.3182   -0.7214 N.am      1 <0>        -0.7387
     23 C14         0.9645    1.8691    0.6079 C.3       1 <0>         0.1880
     24 C15         1.8625    3.0835    0.8524 C.3       1 <0>        -0.1642
     25 C16         1.2467    0.8041    1.6696 C.3       1 <0>        -0.1648
     26 C17        -0.5028    2.2950    0.6902 C.3       1 <0>        -0.1564
     27 C18         6.5198   -1.2120   -6.3772 C.2       1 <0>         0.5210
     28 O3          6.9125   -1.9702   -5.5160 O.2       1 <0>        -0.5174
     29 N4          6.6125   -1.5609   -7.6757 N.am      1 <0>        -0.7115
     30 C19         7.1876   -2.8562   -8.0469 C.3       1 <0>         0.1363
     31 H5          6.9412   -3.5395   -7.3596 H         1 <0>         0.1154
     32 C20         6.6419   -3.2846   -9.4105 C.3       1 <0>        -0.1133
     33 C21         5.1350   -3.5266   -9.3037 C.3       1 <0>        -0.1096
     34 C22         4.7697   -4.9571   -8.8735 C.3       1 <0>        -0.1375
     35 C23         3.6238   -4.8880   -9.8967 C.3       1 <0>        -0.1435
     36 C24         4.4651   -3.8448  -10.6508 C.3       1 <0>        -0.1352
     37 C25         8.6881   -2.7368   -8.1212 C.2       1 <0>         0.3395
     38 O4          9.2060   -1.6464   -8.1588 O.2       1 <0>        -0.4045
     39 C26         9.5331   -3.9648   -8.1483 C.2       1 <0>         0.4836
     40 O5          9.0127   -5.0605   -8.1105 O.2       1 <0>        -0.5030
     41 N5         10.8750   -3.8580   -8.2147 N.am      1 <0>        -0.8271
     42 C27         5.3587    2.7791   -4.7585 C.3       1 <0>        -0.1303
     43 H6          7.3035    4.0133   -6.7447 H         1 <0>         0.0646
     44 H7          7.2968    4.5936   -5.0620 H         1 <0>         0.0667
     45 H8          8.6232    3.5572   -5.6407 H         1 <0>         0.0609
     46 H9          6.5711    0.7236   -2.8312 H         1 <0>         0.0874
     47 H10         7.3449   -0.5990   -3.7579 H         1 <0>         0.1045
     48 H11         3.4201   -2.3911   -3.9248 H         1 <0>         0.0553
     49 H12         3.3354   -3.4789   -2.5185 H         1 <0>         0.0577
     50 H13         2.2123   -2.1042   -2.6493 H         1 <0>         0.0557
     51 H14         6.3625   -1.3722   -1.9151 H         1 <0>         0.0571
     52 H15         5.7770   -3.0508   -2.0015 H         1 <0>         0.0613
     53 H16         5.8207   -2.0468   -3.4706 H         1 <0>         0.0773
     54 H17         2.9390   -1.2963   -0.3995 H         1 <0>         0.0552
     55 H18         4.0622   -2.6709   -0.2687 H         1 <0>         0.0494
     56 H19         4.6646   -1.0076   -0.0723 H         1 <0>         0.0674
     57 H20         2.0206    0.3226   -2.9097 H         1 <0>         0.4036
     58 H21         0.5316    1.2722   -1.3832 H         1 <0>         0.3948
     59 H22         2.9078    2.7801    0.7938 H         1 <0>         0.0809
     60 H23         1.6614    3.8422    0.0961 H         1 <0>         0.0514
     61 H24         1.6580    3.4933    1.8415 H         1 <0>         0.0616
     62 H25         1.0422    1.2140    2.6587 H         1 <0>         0.0615
     63 H26         0.6070   -0.0610    1.4954 H         1 <0>         0.0517
     64 H27         2.2920    0.5008    1.6110 H         1 <0>         0.0817
     65 H28        -0.7038    3.0536   -0.0662 H         1 <0>         0.0615
     66 H29        -1.1425    1.4298    0.5160 H         1 <0>         0.0617
     67 H30        -0.7072    2.7048    1.6793 H         1 <0>         0.0750
     68 H31         6.2984   -0.9545   -8.3646 H         1 <0>         0.4082
     69 H32         6.8328   -2.4988  -10.1414 H         1 <0>         0.0782
     70 H33         7.1359   -4.2032   -9.7272 H         1 <0>         0.0955
     71 H34         4.6215   -2.7530   -8.7327 H         1 <0>         0.0937
     72 H35         5.5322   -5.6956   -9.1211 H         1 <0>         0.0859
     73 H36         4.4291   -5.0289   -7.8406 H         1 <0>         0.0666
     74 H37         2.6963   -4.4876   -9.4872 H         1 <0>         0.0793
     75 H38         3.4761   -5.8141  -10.4521 H         1 <0>         0.0684
     76 H39         3.8786   -3.0186  -11.0528 H         1 <0>         0.0680
     77 H40         5.1443   -4.2792  -11.3844 H         1 <0>         0.0824
     78 H41        11.2910   -2.9823   -8.2450 H         1 <0>         0.4112
     79 H42        11.4248   -4.6570   -8.2324 H         1 <0>         0.4115
     80 H43         5.0653    1.9686   -4.0914 H         1 <0>         0.0673
     81 H44         5.3453    3.7222   -4.2122 H         1 <0>         0.0592
     82 H45         4.6604    2.8330   -5.5937 H         1 <0>         0.0591
@<TRIPOS>BOND
     1    1    2 1
     2    1   43 1
     3    1   44 1
     4    1   45 1
     5    2    5 1
     6    2    3 1
     7    2   42 1
     8    3    4 1
     9    3   10 1
    10    3    5 1
    11    5    6 1
    12    5    7 1
    13    7    8 1
    14    7    9 1
    15    7   27 1
    16    9   10 1
    17    9   11 am
    18   10   46 1
    19   10   47 1
    20   11   12 2
    21   11   13 1
    22   13   14 1
    23   13   15 1
    24   13   19 1
    25   15   16 1
    26   15   17 1
    27   15   18 1
    28   16   48 1
    29   16   49 1
    30   16   50 1
    31   17   51 1
    32   17   52 1
    33   17   53 1
    34   18   54 1
    35   18   55 1
    36   18   56 1
    37   19   20 am
    38   19   57 1
    39   20   21 2
    40   20   22 am
    41   22   23 1
    42   22   58 1
    43   23   24 1
    44   23   25 1
    45   23   26 1
    46   24   59 1
    47   24   60 1
    48   24   61 1
    49   25   62 1
    50   25   63 1
    51   25   64 1
    52   26   65 1
    53   26   66 1
    54   26   67 1
    55   27   28 2
    56   27   29 am
    57   29   30 1
    58   29   68 1
    59   30   31 1
    60   30   32 1
    61   30   37 1
    62   32   33 1
    63   32   69 1
    64   32   70 1
    65   33   36 1
    66   33   34 1
    67   33   71 1
    68   34   35 1
    69   34   72 1
    70   34   73 1
    71   35   36 1
    72   35   74 1
    73   35   75 1
    74   36   76 1
    75   36   77 1
    76   37   38 2
    77   37   39 1
    78   39   40 2
    79   39   41 am
    80   41   78 1
    81   41   79 1
    82   42   80 1
    83   42   81 1
    84   42   82 1
@<TRIPOS>MOLECULE
ZINC14210457
   82    84     0     0     0
SMALL
USER_CHARGES
(1S,4S,5R)-N-[(1R)-3-amino-1-(cyclobutylmethyl)-2,3-dioxo-propyl]-3-[(2S)-2-(tert-butylcarbamoylamino)-3,3-dimethyl-butanoyl]-6,6-dimethyl-3-azabicyclo[3.1.0]hexane-4-carboxamide
@<TRIPOS>ATOM
      1 C1         -5.0761   -0.5653    0.0539 C.3       1 <0>        -0.1271
      2 C2         -4.3227   -0.4623   -1.2738 C.3       1 <0>        -0.0702
      3 C3         -4.0050    0.9399   -1.7972 C.3       1 <0>        -0.1607
      4 H1         -4.1151    1.1544   -2.8603 H         1 <0>         0.1296
      5 C4         -2.8446    0.0732   -1.2569 C.3       1 <0>        -0.1739
      6 H2         -2.0905   -0.3569   -1.9161 H         1 <0>         0.1336
      7 C5         -2.3530    0.8142    0.0052 C.3       1 <0>         0.1486
      8 H3         -2.0697    0.1006    0.7788 H         1 <0>         0.1160
      9 N1         -3.5159    1.6193    0.4459 N.am      1 <0>        -0.5961
     10 C6         -4.1100    2.1250   -0.8134 C.3       1 <0>         0.1165
     11 C7         -3.9377    1.8412    1.7066 C.2       1 <0>         0.5468
     12 O1         -3.3808    1.2977    2.6369 O.2       1 <0>        -0.5274
     13 C8         -5.1013    2.7646    1.9603 C.3       1 <0>         0.1659
     14 H4         -5.8084    2.6936    1.1339 H         1 <0>         0.1087
     15 C9         -4.5946    4.2037    2.0757 C.3       1 <0>        -0.0695
     16 C10        -3.9376    4.6202    0.7583 C.3       1 <0>        -0.1606
     17 C11        -5.7701    5.1357    2.3765 C.3       1 <0>        -0.1269
     18 C12        -3.5695    4.2942    3.2079 C.3       1 <0>        -0.1402
     19 N2         -5.7672    2.3799    3.2072 N.am      1 <0>        -0.7321
     20 C13        -7.0659    2.6849    3.3995 C.2       1 <0>         0.7121
     21 O2         -7.6848    3.2793    2.5381 O.2       1 <0>        -0.5780
     22 N3         -7.6785    2.3309    4.5466 N.am      1 <0>        -0.7387
     23 C14        -9.0901    2.6624    4.7556 C.3       1 <0>         0.1881
     24 C15        -9.9361    2.0013    3.6656 C.3       1 <0>        -0.1642
     25 C16        -9.5362    2.1519    6.1272 C.3       1 <0>        -0.1564
     26 C17        -9.2724    4.1802    4.6923 C.3       1 <0>        -0.1647
     27 C18        -1.1901    1.7116   -0.3318 C.2       1 <0>         0.5196
     28 O3         -1.3728    2.8954   -0.5219 O.2       1 <0>        -0.5184
     29 N4          0.0529    1.1985   -0.4219 N.am      1 <0>        -0.7090
     30 C19         1.1825    2.0698   -0.7554 C.3       1 <0>         0.1367
     31 H5          0.8808    2.7764   -1.3954 H         1 <0>         0.1154
     32 C20         2.2944    1.2392   -1.3995 C.3       1 <0>        -0.1135
     33 C21         1.8045    0.6816   -2.7374 C.3       1 <0>        -0.1057
     34 C22         1.0386   -0.6457   -2.6082 C.3       1 <0>        -0.1394
     35 C23         1.7713   -1.0999   -3.8837 C.3       1 <0>        -0.1419
     36 C24         2.8796   -0.1018   -3.5090 C.3       1 <0>        -0.1367
     37 C25         1.7040    2.7191    0.5006 C.2       1 <0>         0.3364
     38 O4          1.4546    2.2354    1.5788 O.2       1 <0>        -0.4020
     39 C26         2.5277    3.9587    0.4121 C.2       1 <0>         0.4842
     40 O5          2.7782    4.4448   -0.6713 O.2       1 <0>        -0.5042
     41 N5          2.9940    4.5395    1.5354 N.am      1 <0>        -0.8271
     42 C27        -4.6554   -1.5416   -2.3059 C.3       1 <0>        -0.1159
     43 H6         -6.0794   -0.9511   -0.1267 H         1 <0>         0.0612
     44 H7         -4.5423   -1.2401    0.7231 H         1 <0>         0.0597
     45 H8         -5.1432    0.4219    0.5111 H         1 <0>         0.0648
     46 H9         -5.1536    2.3989   -0.6582 H         1 <0>         0.0871
     47 H10        -3.5445    2.9801   -1.1839 H         1 <0>         0.1057
     48 H11        -4.6771    4.5905   -0.0419 H         1 <0>         0.0579
     49 H12        -3.5447    5.6326    0.8524 H         1 <0>         0.0604
     50 H13        -3.1229    3.9344    0.5258 H         1 <0>         0.0800
     51 H14        -6.2382    4.8389    3.3150 H         1 <0>         0.0557
     52 H15        -5.4092    6.1609    2.4587 H         1 <0>         0.0491
     53 H16        -6.5005    5.0712    1.5699 H         1 <0>         0.0671
     54 H17        -2.7320    3.6302    2.9936 H         1 <0>         0.0546
     55 H18        -3.2085    5.3194    3.2901 H         1 <0>         0.0569
     56 H19        -4.0375    3.9974    4.1465 H         1 <0>         0.0560
     57 H20        -5.2735    1.9057    3.8944 H         1 <0>         0.4037
     58 H21        -7.1848    1.8567    5.2338 H         1 <0>         0.3948
     59 H22        -9.8062    0.9200    3.7106 H         1 <0>         0.0514
     60 H23       -10.9863    2.2479    3.8211 H         1 <0>         0.0616
     61 H24        -9.6183    2.3650    2.6884 H         1 <0>         0.0809
     62 H25        -8.9335    2.6229    6.9038 H         1 <0>         0.0616
     63 H26       -10.5865    2.3986    6.2828 H         1 <0>         0.0750
     64 H27        -9.4064    1.0706    6.1723 H         1 <0>         0.0616
     65 H28        -8.9546    4.5439    3.7152 H         1 <0>         0.0818
     66 H29       -10.3226    4.4268    4.8479 H         1 <0>         0.0615
     67 H30        -8.6697    4.6512    5.4689 H         1 <0>         0.0516
     68 H31         0.1991    0.2517   -0.2698 H         1 <0>         0.4078
     69 H32         3.1681    1.8691   -1.5665 H         1 <0>         0.0945
     70 H33         2.5617    0.4149   -0.7383 H         1 <0>         0.0784
     71 H34         1.2882    1.4265   -3.3429 H         1 <0>         0.0962
     72 H35         1.3075   -1.2205   -1.7220 H         1 <0>         0.0807
     73 H36        -0.0389   -0.5422   -2.7360 H         1 <0>         0.0673
     74 H37         1.2450   -0.8431   -4.8030 H         1 <0>         0.0802
     75 H38         2.0940   -2.1408   -3.8574 H         1 <0>         0.0682
     76 H39         3.2862    0.4400   -4.3629 H         1 <0>         0.0697
     77 H40         3.6528   -0.5277   -2.8695 H         1 <0>         0.0819
     78 H41         2.7938    4.1510    2.4013 H         1 <0>         0.4113
     79 H42         3.5299    5.3459    1.4779 H         1 <0>         0.4114
     80 H43        -4.4625   -1.1581   -3.3078 H         1 <0>         0.0610
     81 H44        -4.0343   -2.4192   -2.1269 H         1 <0>         0.0652
     82 H45        -5.7066   -1.8164   -2.2182 H         1 <0>         0.0669
@<TRIPOS>BOND
     1    1    2 1
     2    1   43 1
     3    1   44 1
     4    1   45 1
     5    2    5 1
     6    2    3 1
     7    2   42 1
     8    3    4 1
     9    3   10 1
    10    3    5 1
    11    5    6 1
    12    5    7 1
    13    7    8 1
    14    7    9 1
    15    7   27 1
    16    9   10 1
    17    9   11 am
    18   10   46 1
    19   10   47 1
    20   11   12 2
    21   11   13 1
    22   13   14 1
    23   13   15 1
    24   13   19 1
    25   15   16 1
    26   15   17 1
    27   15   18 1
    28   16   48 1
    29   16   49 1
    30   16   50 1
    31   17   51 1
    32   17   52 1
    33   17   53 1
    34   18   54 1
    35   18   55 1
    36   18   56 1
    37   19   20 am
    38   19   57 1
    39   20   21 2
    40   20   22 am
    41   22   23 1
    42   22   58 1
    43   23   24 1
    44   23   25 1
    45   23   26 1
    46   24   59 1
    47   24   60 1
    48   24   61 1
    49   25   62 1
    50   25   63 1
    51   25   64 1
    52   26   65 1
    53   26   66 1
    54   26   67 1
    55   27   28 2
    56   27   29 am
    57   29   30 1
    58   29   68 1
    59   30   31 1
    60   30   32 1
    61   30   37 1
    62   32   33 1
    63   32   69 1
    64   32   70 1
    65   33   36 1
    66   33   34 1
    67   33   71 1
    68   34   35 1
    69   34   72 1
    70   34   73 1
    71   35   36 1
    72   35   74 1
    73   35   75 1
    74   36   76 1
    75   36   77 1
    76   37   38 2
    77   37   39 1
    78   39   40 2
    79   39   41 am
    80   41   78 1
    81   41   79 1
    82   42   80 1
    83   42   81 1
    84   42   82 1
@<TRIPOS>MOLECULE
ZINC00402742
   18    19     0     0     0
SMALL
USER_CHARGES
5-bromo-1H-indole-2-carboxylic acid
@<TRIPOS>ATOM
      1 C1          1.1741    2.5917    0.0048 C.ar      1 <0>        -0.0901
      2 C2          1.1781    3.9687    0.0121 C.ar      1 <0>        -0.1160
      3 C3         -0.0274    4.6643    0.0274 C.ar      1 <0>         0.0944
      4 C4         -1.2406    3.9477    0.0351 C.ar      1 <0>        -0.1031
      5 C5         -1.2186    2.5470    0.0217 C.ar      1 <0>        -0.0374
      6 C6         -0.0236    1.8867    0.0124 C.ar      1 <0>        -0.1203
      7 Br1         0.0021   -0.0041    0.0020 Br        1 <0>        -0.0726
      8 C7         -2.2848    4.9033    0.0502 C.2       1 <0>        -0.1762
      9 C8         -1.7160    6.1381    0.0514 C.2       1 <0>         0.0730
     10 N1         -0.3407    6.0031    0.0376 N.pl3     1 <0>        -0.5587
     11 H1          0.2984    6.7328    0.0356 H         1 <0>         0.4236
     12 C9         -2.4466    7.4124    0.0653 C.2       1 <0>         0.5093
     13 O1         -3.6622    7.4159    0.0769 O.co2     1 <0>        -0.6075
     14 H2          2.1109    2.0543   -0.0067 H         1 <0>         0.1287
     15 H3          2.1140    4.5075    0.0064 H         1 <0>         0.1253
     16 H4         -2.1445    1.9910    0.0231 H         1 <0>         0.1287
     17 H5         -3.3434    4.6898    0.0589 H         1 <0>         0.1494
     18 O2         -1.7689    8.5782    0.0650 O.co2     1 <0>        -0.7508
@<TRIPOS>BOND
     1    1    6 ar
     2    1    2 ar
     3    1   14 1
     4    2    3 ar
     5    2   15 1
     6    3   10 1
     7    3    4 ar
     8    4    5 ar
     9    4    8 1
    10    5    6 ar
    11    5   16 1
    12    6    7 1
    13    8    9 2
    14    8   17 1
    15    9   10 1
    16    9   12 1
    17   10   11 1
    18   12   13 2
    19   12   18 1
@<TRIPOS>MOLECULE
ZINC02386971
   18    19     0     0     0
SMALL
USER_CHARGES
6-chloro-1H-indole-2-carboxylic acid
@<TRIPOS>ATOM
      1 C1          1.2285   -0.6812   -0.0134 C.ar      1 <0>        -0.0590
      2 C2          2.3949    0.0267   -0.0207 C.ar      1 <0>        -0.1471
      3 C3          2.3793    1.4169   -0.0126 C.ar      1 <0>        -0.0259
      4 C4          1.1853    2.1055    0.0020 C.ar      1 <0>        -0.1138
      5 C5         -0.0170    1.4049    0.0098 C.ar      1 <0>         0.0909
      6 C6          0.0021   -0.0041    0.0020 C.ar      1 <0>        -0.1017
      7 C7         -1.3458   -0.4357    0.0131 C.2       1 <0>        -0.1805
      8 C8         -2.1350    0.6714    0.0268 C.2       1 <0>         0.0761
      9 N1         -1.3343    1.7982    0.0300 N.pl3     1 <0>        -0.5588
     10 H1         -1.6499    2.7154    0.0397 H         1 <0>         0.4234
     11 C9         -3.6035    0.6702    0.0414 C.2       1 <0>         0.5090
     12 O1         -4.2106   -0.3831    0.0417 O.co2     1 <0>        -0.6078
     13 Cl1         3.8775    2.2937   -0.0217 Cl        1 <0>        -0.0850
     14 H2          1.2507   -1.7609   -0.0190 H         1 <0>         0.1286
     15 H3          3.3390   -0.4977   -0.0326 H         1 <0>         0.1266
     16 H4          1.1830    3.1855    0.0081 H         1 <0>         0.1266
     17 H5         -1.6864   -1.4606    0.0109 H         1 <0>         0.1491
     18 O2         -4.2786    1.8375    0.0543 O.co2     1 <0>        -0.7506
@<TRIPOS>BOND
     1    1    6 ar
     2    1    2 ar
     3    1   14 1
     4    2    3 ar
     5    2   15 1
     6    3    4 ar
     7    3   13 1
     8    4    5 ar
     9    4   16 1
    10    5    9 1
    11    5    6 ar
    12    6    7 1
    13    7    8 2
    14    7   17 1
    15    8    9 1
    16    8   11 1
    17    9   10 1
    18   11   12 2
    19   11   18 1
@<TRIPOS>MOLECULE
ZINC02508153
   21    22     0     0     0
SMALL
USER_CHARGES
5-methyl-1H-indole-2-carboxylic acid
@<TRIPOS>ATOM
      1 C1          3.7102   -0.7241   -0.0368 C.3       1 <0>        -0.1024
      2 C2          2.4051    0.0292   -0.0208 C.ar      1 <0>        -0.1281
      3 C3          1.2057   -0.6721   -0.0131 C.ar      1 <0>        -0.1110
      4 C4          0.0021   -0.0041    0.0020 C.ar      1 <0>        -0.1234
      5 C5         -0.0168    1.3881    0.0097 C.ar      1 <0>         0.0799
      6 C6          1.2006    2.0968    0.0019 C.ar      1 <0>        -0.1032
      7 C7          2.4124    1.3935   -0.0135 C.ar      1 <0>        -0.0727
      8 C8          0.8766    3.4747    0.0124 C.2       1 <0>        -0.1833
      9 C9         -0.4787    3.5811    0.0259 C.2       1 <0>         0.0683
     10 N1         -1.0321    2.3148    0.0188 N.pl3     1 <0>        -0.5634
     11 H1         -1.9809    2.1131    0.0216 H         1 <0>         0.4205
     12 C10        -1.2342    4.8408    0.0399 C.2       1 <0>         0.5098
     13 O1         -0.6439    5.9036    0.0400 O.co2     1 <0>        -0.6106
     14 H2          4.0153   -0.9006   -1.0683 H         1 <0>         0.0609
     15 H3          4.4746   -0.1375    0.4728 H         1 <0>         0.0596
     16 H4          3.5848   -1.6791    0.4734 H         1 <0>         0.0585
     17 H5          1.2178   -1.7521   -0.0186 H         1 <0>         0.1174
     18 H6         -0.9249   -0.5583    0.0083 H         1 <0>         0.1152
     19 H7          3.3497    1.9299   -0.0196 H         1 <0>         0.1167
     20 H8          1.5798    4.2944    0.0104 H         1 <0>         0.1449
     21 O2         -2.5824    4.8183    0.0527 O.co2     1 <0>        -0.7536
@<TRIPOS>BOND
     1    1    2 1
     2    1   14 1
     3    1   15 1
     4    1   16 1
     5    2    7 ar
     6    2    3 ar
     7    3    4 ar
     8    3   17 1
     9    4    5 ar
    10    4   18 1
    11    5   10 1
    12    5    6 ar
    13    6    7 ar
    14    6    8 1
    15    7   19 1
    16    8    9 2
    17    8   20 1
    18    9   10 1
    19    9   12 1
    20   10   11 1
    21   12   13 2
    22   12   21 1
@<TRIPOS>MOLECULE
ZINC00083028
   18    19     0     0     0
SMALL
USER_CHARGES

@<TRIPOS>ATOM
      1 C1         -0.0168    1.3869    0.0097 C.ar      1 <0>        -0.1487
      2 C2          1.1582    2.1046    0.0023 C.ar      1 <0>        -0.0942
      3 C3          2.3787    1.4353   -0.0130 C.ar      1 <0>         0.0696
      4 C4          2.3964    0.0263   -0.0207 C.ar      1 <0>        -0.0813
      5 C5          1.1876   -0.6828   -0.0134 C.ar      1 <0>        -0.1097
      6 C6          0.0021   -0.0041    0.0020 C.ar      1 <0>         0.0587
      7 F1         -1.1620   -0.6896    0.0095 F         1 <0>        -0.1518
      8 C7          3.7542   -0.3704   -0.0359 C.2       1 <0>        -0.1856
      9 C8          4.5157    0.7579   -0.0370 C.2       1 <0>         0.0579
     10 N1          3.6854    1.8636   -0.0231 N.pl3     1 <0>        -0.5627
     11 H1          3.9767    2.7888   -0.0209 H         1 <0>         0.4207
     12 C9          5.9812    0.7949   -0.0513 C.2       1 <0>         0.5411
     13 O1          6.5664    1.8703   -0.0511 O.co2     1 <0>        -0.6845
     14 O2          6.6198   -0.2495   -0.0635 O.co2     1 <0>        -0.6631
     15 H2         -0.9622    1.9088    0.0260 H         1 <0>         0.1305
     16 H3          1.1330    3.1843    0.0080 H         1 <0>         0.1255
     17 H4          1.1933   -1.7628   -0.0196 H         1 <0>         0.1301
     18 H5          4.1209   -1.3862   -0.0445 H         1 <0>         0.1478
@<TRIPOS>BOND
     1    1    6 ar
     2    1    2 ar
     3    1   15 1
     4    2    3 ar
     5    2   16 1
     6    3   10 1
     7    3    4 ar
     8    4    5 ar
     9    4    8 1
    10    5    6 ar
    11    5   17 1
    12    6    7 1
    13    8    9 2
    14    8   18 1
    15    9   10 1
    16    9   12 1
    17   10   11 1
    18   12   13 2
    19   12   14 1
@<TRIPOS>MOLECULE
ZINC00164954
   18    19     0     0     0
SMALL
USER_CHARGES

@<TRIPOS>ATOM
      1 C1         -0.0168    1.3860    0.0097 C.ar      1 <0>        -0.1090
      2 C2          1.1581    2.1040    0.0023 C.ar      1 <0>        -0.1108
      3 C3          2.3786    1.4346   -0.0129 C.ar      1 <0>         0.0820
      4 C4          2.3957    0.0255   -0.0206 C.ar      1 <0>        -0.0958
      5 C5          1.1866   -0.6830   -0.0124 C.ar      1 <0>        -0.0624
      6 C6          0.0021   -0.0041    0.0020 C.ar      1 <0>        -0.0649
      7 Cl1        -1.4940   -0.8847    0.0121 Cl        1 <0>        -0.0922
      8 C7          3.7534   -0.3717   -0.0361 C.2       1 <0>        -0.1815
      9 C8          4.5151    0.7564   -0.0376 C.2       1 <0>         0.0539
     10 N1          3.6850    1.8623   -0.0235 N.pl3     1 <0>        -0.5624
     11 H1          3.9765    2.7874   -0.0214 H         1 <0>         0.4207
     12 C9          5.9806    0.7931   -0.0519 C.2       1 <0>         0.5412
     13 O1          6.5660    1.8684   -0.0519 O.co2     1 <0>        -0.6847
     14 O2          6.6190   -0.2515   -0.0637 O.co2     1 <0>        -0.6633
     15 H2         -0.9622    1.9078    0.0260 H         1 <0>         0.1285
     16 H3          1.1328    3.1836    0.0079 H         1 <0>         0.1245
     17 H4          1.1917   -1.7629   -0.0186 H         1 <0>         0.1285
     18 H5          4.1198   -1.3876   -0.0451 H         1 <0>         0.1477
@<TRIPOS>BOND
     1    1    6 ar
     2    1    2 ar
     3    1   15 1
     4    2    3 ar
     5    2   16 1
     6    3   10 1
     7    3    4 ar
     8    4    5 ar
     9    4    8 1
    10    5    6 ar
    11    5   17 1
    12    6    7 1
    13    8    9 2
    14    8   18 1
    15    9   10 1
    16    9   12 1
    17   10   11 1
    18   12   13 2
    19   12   14 1
@<TRIPOS>MOLECULE
ZINC00135687
   22    23     0     0     0
SMALL
USER_CHARGES
5-methoxy-1H-indole-2-carboxylic acid
@<TRIPOS>ATOM
      1 C1         -0.0127    1.0858    0.0080 C.3       1 <0>         0.0316
      2 O1         -0.6816    1.5467    1.1837 O.3       1 <0>        -0.3234
      3 C2         -0.1485    1.1819    2.3804 C.ar      1 <0>         0.0844
      4 C3          0.9969    0.3882    2.4159 C.ar      1 <0>        -0.1886
      5 C4          1.5532    0.0145    3.6176 C.ar      1 <0>        -0.0882
      6 C5          0.9658    0.4193    4.8130 C.ar      1 <0>         0.0567
      7 C6         -0.1947    1.2165    4.7832 C.ar      1 <0>        -0.0681
      8 C7         -0.7468    1.5943    3.5516 C.ar      1 <0>        -0.1113
      9 C8         -0.5587    1.4681    6.1278 C.2       1 <0>        -0.1887
     10 C9          0.3489    0.8456    6.9262 C.2       1 <0>         0.0797
     11 N1          1.2823    0.2036    6.1353 N.pl3     1 <0>        -0.5637
     12 H1          2.0360   -0.3144    6.4585 H         1 <0>         0.4210
     13 C10         0.3393    0.8551    8.3950 C.2       1 <0>         0.5092
     14 O2         -0.5325    1.4551    8.9933 O.co2     1 <0>        -0.6088
     15 H2          0.0021   -0.0041    0.0020 H         1 <0>         0.0502
     16 H3          1.0099    1.4631    0.0003 H         1 <0>         0.0502
     17 H4         -0.5399    1.4469   -0.8751 H         1 <0>         0.0926
     18 H5          1.4542    0.0672    1.4917 H         1 <0>         0.1248
     19 H6          2.4435   -0.5966    3.6334 H         1 <0>         0.1194
     20 H7         -1.6365    2.2058    3.5204 H         1 <0>         0.1266
     21 H8         -1.4052    2.0507    6.4599 H         1 <0>         0.1471
     22 O3          1.2975    0.1984    9.0798 O.co2     1 <0>        -0.7525
@<TRIPOS>BOND
     1    1    2 1
     2    1   15 1
     3    1   16 1
     4    1   17 1
     5    2    3 1
     6    3    8 ar
     7    3    4 ar
     8    4    5 ar
     9    4   18 1
    10    5    6 ar
    11    5   19 1
    12    6   11 1
    13    6    7 ar
    14    7    8 ar
    15    7    9 1
    16    8   20 1
    17    9   10 2
    18    9   21 1
    19   10   11 1
    20   10   13 1
    21   11   12 1
    22   13   14 2
    23   13   22 1
@<TRIPOS>MOLECULE
ZINC03874615
   17    18     0     0     0
SMALL
USER_CHARGES

@<TRIPOS>ATOM
      1 C1         -0.0173    1.4212    0.0099 C.3       1 <0>         0.1103
      2 C2          1.3851    1.9901   -0.0005 C.2       1 <0>        -0.1329
      3 C3          2.3428    1.2749    0.6138 C.2       1 <0>         0.0402
      4 C4          2.0239   -0.0349    1.2219 C.2       1 <0>        -0.0967
      5 C5          3.1523   -0.4882    1.7770 C.2       1 <0>        -0.1898
      6 C6          4.1647    0.4755    1.5322 C.2       1 <0>         0.4998
      7 O1          5.3173    0.3967    1.9161 O.2       1 <0>        -0.4272
      8 O2          3.6527    1.4929    0.8070 O.3       1 <0>        -0.2548
      9 C7          0.6375   -0.6200    1.1349 C.3       1 <0>         0.3290
     10 H1          0.0796   -0.3949    2.0438 H         1 <0>         0.0958
     11 O3          0.0021   -0.0041    0.0020 O.3       1 <0>        -0.3992
     12 O4          0.7143   -2.0344    0.9462 O.3       1 <0>        -0.5287
     13 H2         -0.5358    1.7662    0.9044 H         1 <0>         0.0820
     14 H3         -0.5527    1.7757   -0.8709 H         1 <0>         0.1286
     15 H4          1.6069    2.9312   -0.4816 H         1 <0>         0.1579
     16 H5          3.2716   -1.4176    2.3140 H         1 <0>         0.1851
     17 H6         -0.1467   -2.4701    0.8825 H         1 <0>         0.4004
@<TRIPOS>BOND
     1    1   11 1
     2    1    2 1
     3    1   13 1
     4    1   14 1
     5    2    3 2
     6    2   15 1
     7    3    8 1
     8    3    4 1
     9    4    5 2
    10    4    9 1
    11    5    6 1
    12    5   16 1
    13    6    7 2
    14    6    8 1
    15    9   10 1
    16    9   11 1
    17    9   12 1
    18   12   17 1
@<TRIPOS>MOLECULE
ZINC03874616
   17    18     0     0     0
SMALL
USER_CHARGES

@<TRIPOS>ATOM
      1 C1         -0.0173    1.4212    0.0099 C.3       1 <0>         0.1103
      2 C2          1.3851    1.9901   -0.0005 C.2       1 <0>        -0.1330
      3 C3          2.3309    1.2816   -0.6406 C.2       1 <0>         0.0402
      4 C4          2.0002   -0.0216   -1.2565 C.2       1 <0>        -0.0967
      5 C5          3.1178   -0.4688   -1.8379 C.2       1 <0>        -0.1898
      6 C6          4.1348    0.4923   -1.6021 C.2       1 <0>         0.4998
      7 O1          5.2797    0.4181   -2.0093 O.2       1 <0>        -0.4272
      8 O2          3.6368    1.5018   -0.8564 O.3       1 <0>        -0.2547
      9 C7          0.6156   -0.6078   -1.1493 C.3       1 <0>         0.3290
     10 H1          0.0405   -0.3729   -2.0450 H         1 <0>         0.0958
     11 O3          0.0021   -0.0041    0.0020 O.3       1 <0>        -0.3993
     12 O4          0.6959   -2.0241   -0.9773 O.3       1 <0>        -0.5287
     13 H2         -0.5358    1.7662    0.9044 H         1 <0>         0.1286
     14 H3         -0.5527    1.7757   -0.8709 H         1 <0>         0.0820
     15 H4          1.6160    2.9264    0.4858 H         1 <0>         0.1579
     16 H5          3.2268   -1.3927   -2.3865 H         1 <0>         0.1851
     17 H6         -0.1638   -2.4605   -0.9019 H         1 <0>         0.4004
@<TRIPOS>BOND
     1    1   11 1
     2    1    2 1
     3    1   13 1
     4    1   14 1
     5    2    3 2
     6    2   15 1
     7    3    8 1
     8    3    4 1
     9    4    5 2
    10    4    9 1
    11    5    6 1
    12    5   16 1
    13    6    7 2
    14    6    8 1
    15    9   10 1
    16    9   11 1
    17    9   12 1
    18   12   17 1
@<TRIPOS>MOLECULE
ZINC13529975
   25    26     0     0     0
SMALL
USER_CHARGES
2-(4-chlorophenoxy)benzoic acid
@<TRIPOS>ATOM
      1 C1          0.1315    5.0158   -0.9078 C.ar      1 <0>        -0.1714
      2 C2          1.3549    5.6575   -1.0159 C.ar      1 <0>        -0.0874
      3 C3          2.5243    4.9870   -0.7183 C.ar      1 <0>        -0.2171
      4 C4          2.4809    3.6640   -0.3030 C.ar      1 <0>         0.1488
      5 C5          1.2453    3.0095   -0.1970 C.ar      1 <0>        -0.1393
      6 C6          0.0695    3.7009   -0.5015 C.ar      1 <0>        -0.0429
      7 C7          1.1865    1.6027    0.2388 C.2       1 <0>         0.4898
      8 O1          2.2110    1.0050    0.5026 O.co2     1 <0>        -0.6124
      9 O2          3.6285    3.0055   -0.0049 O.3       1 <0>        -0.2180
     10 C8          4.8007    3.6841   -0.1158 C.ar      1 <0>         0.1035
     11 C9          5.4982    3.6745   -1.3152 C.ar      1 <0>        -0.1177
     12 C10         6.6864    4.3700   -1.4277 C.ar      1 <0>        -0.0971
     13 C11         7.1873    5.0658   -0.3417 C.ar      1 <0>        -0.0441
     14 C12         6.4962    5.0720    0.8570 C.ar      1 <0>        -0.0970
     15 C13         5.3046    4.3829    0.9719 C.ar      1 <0>        -0.1176
     16 Cl1         8.6847    5.9327   -0.4834 Cl        1 <0>        -0.0747
     17 H1         -0.7778    5.5492   -1.1428 H         1 <0>         0.1193
     18 H2          1.3937    6.6887   -1.3345 H         1 <0>         0.1178
     19 H3          3.4738    5.4942   -0.8051 H         1 <0>         0.1205
     20 H4         -0.8864    3.2052   -0.4181 H         1 <0>         0.1386
     21 H5          5.1099    3.1275   -2.1617 H         1 <0>         0.1412
     22 H6          7.2270    4.3669   -2.3627 H         1 <0>         0.1380
     23 H7          6.8885    5.6163    1.7033 H         1 <0>         0.1380
     24 H8          4.7652    4.3882    1.9076 H         1 <0>         0.1411
     25 O3         -0.0035    0.9793    0.3446 O.co2     1 <0>        -0.7597
@<TRIPOS>BOND
     1    1    6 ar
     2    1    2 ar
     3    1   17 1
     4    2    3 ar
     5    2   18 1
     6    3    4 ar
     7    3   19 1
     8    4    5 ar
     9    4    9 1
    10    5    6 ar
    11    5    7 1
    12    6   20 1
    13    7    8 2
    14    7   25 1
    15    9   10 1
    16   10   15 ar
    17   10   11 ar
    18   11   12 ar
    19   11   21 1
    20   12   13 ar
    21   12   22 1
    22   13   14 ar
    23   13   16 1
    24   14   15 ar
    25   14   23 1
    26   15   24 1
@<TRIPOS>MOLECULE
ZINC00042511
   17    18     0     0     0
SMALL
USER_CHARGES
benzothiophene-2-carboxylic acid
@<TRIPOS>ATOM
      1 C1          1.1337    3.1762    0.0083 C.ar      1 <0>        -0.1300
      2 C2          1.1700    1.7868    0.0005 C.ar      1 <0>        -0.1145
      3 C3         -0.0126    1.0758    0.0080 C.ar      1 <0>        -0.0734
      4 C4         -1.2131    1.7539    0.0173 C.ar      1 <0>        -0.1406
      5 C5         -1.2803    3.1675    0.0314 C.ar      1 <0>        -0.0762
      6 C6         -0.0404    3.8577    0.0228 C.ar      1 <0>        -0.0819
      7 C7         -2.5779    3.7090    0.0472 C.2       1 <0>        -0.1524
      8 C8         -3.6581    2.8824    0.0540 C.2       1 <0>        -0.1069
      9 S1         -2.9177    1.2589    0.0384 S.3       1 <0>         0.0645
     10 C9         -5.0826    3.2383    0.0707 C.2       1 <0>         0.5231
     11 O1         -5.4171    4.4071    0.0804 O.co2     1 <0>        -0.6084
     12 H1          2.0625    3.7274    0.0024 H         1 <0>         0.1196
     13 H2          2.1169    1.2675   -0.0117 H         1 <0>         0.1267
     14 H3          0.0021   -0.0041    0.0020 H         1 <0>         0.1259
     15 H4         -0.0307    4.9377    0.0282 H         1 <0>         0.1205
     16 H5         -2.7167    4.7800    0.0537 H         1 <0>         0.1380
     17 O2         -6.0198    2.2688    0.0752 O.co2     1 <0>        -0.7342
@<TRIPOS>BOND
     1    1    6 ar
     2    1    2 ar
     3    1   12 1
     4    2    3 ar
     5    2   13 1
     6    3    4 ar
     7    3   14 1
     8    4    9 1
     9    4    5 ar
    10    5    6 ar
    11    5    7 1
    12    6   15 1
    13    7    8 2
    14    7   16 1
    15    8    9 1
    16    8   10 1
    17   10   11 2
    18   10   17 1
@<TRIPOS>MOLECULE
ZINC01683100
   18    19     0     0     0
SMALL
USER_CHARGES
4-chloro-1H-indole-2-carboxylic acid
@<TRIPOS>ATOM
      1 C1          1.1444    3.8214    0.0116 C.ar      1 <0>        -0.1058
      2 C2         -0.0436    4.5182    0.0262 C.ar      1 <0>        -0.1189
      3 C3         -1.2518    3.8271    0.0336 C.ar      1 <0>         0.0932
      4 C4         -1.2438    2.4183    0.0211 C.ar      1 <0>        -0.1008
      5 C5         -2.5948    1.9972    0.0251 C.2       1 <0>        -0.1735
      6 C6         -3.3755    3.1104    0.0343 C.2       1 <0>         0.0744
      7 N1         -2.5659    4.2308    0.0478 N.pl3     1 <0>        -0.5590
      8 H1         -2.8743    5.1504    0.0560 H         1 <0>         0.4241
      9 C7         -4.8440    3.1207    0.0410 C.2       1 <0>         0.5096
     10 O1         -5.4593    2.0721    0.0385 O.co2     1 <0>        -0.6069
     11 C8         -0.0215    1.7317    0.0116 C.ar      1 <0>         0.0132
     12 C9          1.1509    2.4328    0.0041 C.ar      1 <0>        -0.1449
     13 Cl1         0.0021   -0.0041    0.0020 Cl        1 <0>        -0.0797
     14 H2          2.0802    4.3604    0.0063 H         1 <0>         0.1286
     15 H3         -0.0376    5.5982    0.0323 H         1 <0>         0.1222
     16 H4         -2.9433    0.9750    0.0209 H         1 <0>         0.1492
     17 H5          2.0915    1.9023   -0.0073 H         1 <0>         0.1264
     18 O2         -5.5100    4.2932    0.0500 O.co2     1 <0>        -0.7514
@<TRIPOS>BOND
     1    1   12 ar
     2    1    2 ar
     3    1   14 1
     4    2    3 ar
     5    2   15 1
     6    3    7 1
     7    3    4 ar
     8    4    5 1
     9    4   11 ar
    10    5    6 2
    11    5   16 1
    12    6    7 1
    13    6    9 1
    14    7    8 1
    15    9   10 2
    16    9   18 1
    17   11   12 ar
    18   11   13 1
    19   12   17 1
@<TRIPOS>MOLECULE
ZINC27086305
   57    61     0     0     0
SMALL
USER_CHARGES

@<TRIPOS>ATOM
      1 C1         -0.0526   -2.0416   -4.0735 C.ar      1 <0>        -0.1068
      2 C2          0.9542   -1.2898   -4.6762 C.ar      1 <0>        -0.1009
      3 C3          1.9992   -0.8080   -3.9495 C.ar      1 <0>        -0.1098
      4 C4          2.0669   -1.0702   -2.5703 C.ar      1 <0>        -0.0353
      5 C5          1.0426   -1.8342   -1.9582 C.ar      1 <0>        -0.0556
      6 C6         -0.0197   -2.3151   -2.7403 C.ar      1 <0>        -0.0922
      7 C7          1.1101   -2.0975   -0.5747 C.ar      1 <0>         0.1096
      8 C8          2.1689   -1.6082    0.1567 C.ar      1 <0>        -0.1135
      9 C9          3.1705   -0.8585   -0.4536 C.ar      1 <0>        -0.0916
     10 C10         3.1313   -0.5880   -1.7885 C.ar      1 <0>        -0.0255
     11 Cl1         4.3940    0.3500   -2.5228 Cl        1 <0>        -0.0589
     12 O1          0.1385   -2.8274    0.0315 O.3       1 <0>        -0.2440
     13 C11         0.1957   -4.1815   -0.0771 C.ar      1 <0>         0.0967
     14 C12         1.2815   -4.7821   -0.6977 C.ar      1 <0>        -0.1591
     15 C13         1.3402   -6.1571   -0.8088 C.ar      1 <0>        -0.1128
     16 C14         0.3121   -6.9397   -0.2993 C.ar      1 <0>         0.1569
     17 C15        -0.7746   -6.3389    0.3222 C.ar      1 <0>        -0.0816
     18 C16        -0.8298   -4.9630    0.4380 C.ar      1 <0>        -0.0364
     19 Cl2        -2.1846   -4.2114    1.2212 Cl        1 <0>        -0.0540
     20 N1          0.3711   -8.3340   -0.4128 N.am      1 <0>        -0.6871
     21 C17        -0.7585   -9.0426   -0.6089 C.2       1 <0>         0.5657
     22 O2         -1.8370   -8.4805   -0.6066 O.2       1 <0>        -0.4714
     23 C18        -0.6867  -10.4988   -0.8263 C.ar      1 <0>        -0.2115
     24 C19         0.5499  -11.1498   -0.8240 C.ar      1 <0>        -0.0248
     25 C20         0.6101  -12.5118   -1.0279 C.ar      1 <0>        -0.1430
     26 C21        -0.5515  -13.2409   -1.2356 C.ar      1 <0>        -0.0257
     27 C22        -1.7793  -12.6118   -1.2409 C.ar      1 <0>        -0.2522
     28 C23        -1.8602  -11.2407   -1.0310 C.ar      1 <0>         0.3365
     29 N2         -3.0964  -10.6064   -1.0298 N.2       1 <0>        -1.0236
     30 S1         -4.4785  -11.4858   -1.2718 S.o2      1 <0>         2.5955
     31 O3         -4.4218  -11.9729   -2.6055 O.2       1 <0>        -1.0223
     32 O4         -4.6123  -12.3487   -0.1507 O.2       1 <0>        -1.0220
     33 C24        -5.8315  -10.3590   -1.2043 C.ar      1 <0>        -0.6095
     34 C25        -6.4500  -10.0935    0.0032 C.ar      1 <0>        -0.0083
     35 C26        -7.5113   -9.2098    0.0568 C.ar      1 <0>        -0.1359
     36 C27        -7.9546   -8.5907   -1.0984 C.ar      1 <0>         0.0048
     37 C28        -7.3352   -8.8568   -2.3066 C.ar      1 <0>        -0.1362
     38 C29        -6.2704   -9.7365   -2.3579 C.ar      1 <0>        -0.0085
     39 Cl3        -9.2879   -7.4810   -1.0320 Cl        1 <0>        -0.0735
     40 Cl4         2.1473  -13.3185   -1.0254 Cl        1 <0>        -0.1051
     41 H1         -0.8732   -2.4088   -4.6719 H         1 <0>         0.1302
     42 H2          0.9046   -1.0868   -5.7358 H         1 <0>         0.1289
     43 H3          2.7726   -0.2274   -4.4302 H         1 <0>         0.1345
     44 H4         -0.8070   -2.8987   -2.2864 H         1 <0>         0.1343
     45 H5          2.2229   -1.8080    1.2167 H         1 <0>         0.1444
     46 H6          3.9915   -0.4850    0.1404 H         1 <0>         0.1423
     47 H7          2.0810   -4.1739   -1.0943 H         1 <0>         0.1343
     48 H8          2.1855   -6.6242   -1.2922 H         1 <0>         0.1346
     49 H9         -1.5743   -6.9469    0.7186 H         1 <0>         0.1639
     50 H10         1.2249   -8.7900   -0.3502 H         1 <0>         0.4056
     51 H11         1.4573  -10.5866   -0.6631 H         1 <0>         0.1185
     52 H12        -0.4943  -14.3076   -1.3945 H         1 <0>         0.1203
     53 H13        -2.6790  -13.1865   -1.4041 H         1 <0>         0.1141
     54 H14        -6.1040  -10.5771    0.9048 H         1 <0>         0.1461
     55 H15        -7.9946   -9.0027    1.0001 H         1 <0>         0.1378
     56 H16        -7.6810   -8.3742   -3.2087 H         1 <0>         0.1376
     57 H17        -5.7837   -9.9407   -3.3002 H         1 <0>         0.1458
@<TRIPOS>BOND
     1    1    6 ar
     2    1    2 ar
     3    1   41 1
     4    2    3 ar
     5    2   42 1
     6    3    4 ar
     7    3   43 1
     8    4   10 ar
     9    4    5 ar
    10    5    6 ar
    11    5    7 ar
    12    6   44 1
    13    7    8 ar
    14    7   12 1
    15    8    9 ar
    16    8   45 1
    17    9   10 ar
    18    9   46 1
    19   10   11 1
    20   12   13 1
    21   13   18 ar
    22   13   14 ar
    23   14   15 ar
    24   14   47 1
    25   15   16 ar
    26   15   48 1
    27   16   17 ar
    28   16   20 1
    29   17   18 ar
    30   17   49 1
    31   18   19 1
    32   20   21 am
    33   20   50 1
    34   21   22 2
    35   21   23 1
    36   23   28 ar
    37   23   24 ar
    38   24   25 ar
    39   24   51 1
    40   25   26 ar
    41   25   40 1
    42   26   27 ar
    43   26   52 1
    44   27   28 ar
    45   27   53 1
    46   28   29 1
    47   29   30 1
    48   30   31 2
    49   30   32 2
    50   30   33 1
    51   33   38 ar
    52   33   34 ar
    53   34   35 ar
    54   34   54 1
    55   35   36 ar
    56   35   55 1
    57   36   37 ar
    58   36   39 1
    59   37   38 ar
    60   37   56 1
    61   38   57 1
@<TRIPOS>MOLECULE
ZINC02556234
   33    35     0     0     0
SMALL
USER_CHARGES
(5E)-5-[[2-(4-chlorophenyl)sulfanyl-5-nitro-phenyl]methylene]-2-thioxo-thiazolidin-4-one
@<TRIPOS>ATOM
      1 C1         -2.2840    2.4625    2.6691 C.ar      1 <0>        -0.1031
      2 C2         -2.5418    2.0843    3.9719 C.ar      1 <0>        -0.0862
      3 C3         -3.6324    2.6088    4.6433 C.ar      1 <0>        -0.0330
      4 C4         -4.4648    3.5177    4.0134 C.ar      1 <0>        -0.0945
      5 C5         -4.2094    3.9034    2.7124 C.ar      1 <0>        -0.0842
      6 C6         -3.1151    3.3784    2.0357 C.ar      1 <0>        -0.1003
      7 S1         -2.7863    3.8677    0.3752 S.3       1 <0>         0.0235
      8 C7         -1.2786    3.0461   -0.0206 C.ar      1 <0>        -0.0951
      9 C8         -0.0845    3.7548   -0.0528 C.ar      1 <0>        -0.0717
     10 C9          1.0953    3.1091   -0.3627 C.ar      1 <0>        -0.0646
     11 C10         1.1014    1.7512   -0.6437 C.ar      1 <0>        -0.0209
     12 C11        -0.0710    1.0292   -0.6179 C.ar      1 <0>         0.0066
     13 C12        -1.2780    1.6691   -0.3112 C.ar      1 <0>         0.0014
     14 C13        -2.5317    0.9089   -0.2876 C.2       1 <0>        -0.0386
     15 C14        -2.5612   -0.3360    0.2562 C.2       1 <0>        -0.1669
     16 C15        -1.5129   -1.0640    0.9964 C.2       1 <0>         0.5223
     17 O1         -0.4207   -0.5704    1.2091 O.3       1 <0>        -0.4966
     18 N1         -1.8194   -2.2796    1.4174 N.2       1 <0>        -0.6424
     19 C16        -3.0306   -2.8228    1.1796 C.2       1 <0>         0.3880
     20 S2         -3.6122   -4.3666    1.6374 S.2       1 <0>        -0.5348
     21 S3         -3.8835   -1.5387    0.2784 S.3       1 <0>        -0.1449
     22 N2          2.3763    1.0735   -0.9739 N.pl3     1 <0>         0.0276
     23 O2          2.3857   -0.1190   -1.2216 O.2       1 <0>        -0.1443
     24 O3          3.4153    1.7087   -0.9976 O.3       1 <0>        -0.1634
     25 Cl1        -3.9574    2.1255    6.2787 Cl        1 <0>        -0.0668
     26 H1         -1.4353    2.0494    2.1442 H         1 <0>         0.1321
     27 H2         -1.8938    1.3755    4.4661 H         1 <0>         0.1366
     28 H3         -5.3151    3.9253    4.5399 H         1 <0>         0.1398
     29 H4         -4.8592    4.6126    2.2214 H         1 <0>         0.1388
     30 H5         -0.0793    4.8127    0.1646 H         1 <0>         0.1575
     31 H6          2.0207    3.6655   -0.3861 H         1 <0>         0.1583
     32 H7         -0.0600   -0.0280   -0.8384 H         1 <0>         0.1611
     33 H8         -3.4483    1.3464   -0.7101 H         1 <0>         0.1589
@<TRIPOS>BOND
     1    1    6 ar
     2    1    2 ar
     3    1   26 1
     4    2    3 ar
     5    2   27 1
     6    3    4 ar
     7    3   25 1
     8    4    5 ar
     9    4   28 1
    10    5    6 ar
    11    5   29 1
    12    6    7 1
    13    7    8 1
    14    8   13 ar
    15    8    9 ar
    16    9   10 ar
    17    9   30 1
    18   10   11 ar
    19   10   31 1
    20   11   12 ar
    21   11   22 1
    22   12   13 ar
    23   12   32 1
    24   13   14 1
    25   14   15 2
    26   14   33 1
    27   15   21 1
    28   15   16 1
    29   16   17 1
    30   16   18 2
    31   18   19 1
    32   19   20 2
    33   19   21 1
    34   22   23 2
    35   22   24 1
@<TRIPOS>MOLECULE
ZINC00142380
   21    22     0     0     0
SMALL
USER_CHARGES
1-methylindole-2-carboxylic acid
@<TRIPOS>ATOM
      1 C1          3.5795    0.7995   -0.0286 C.3       1 <0>         0.0798
      2 N1          2.1155    0.7481   -0.0141 N.pl3     1 <0>        -0.4544
      3 C2          1.3548   -0.3969   -0.0130 C.ar      1 <0>         0.0811
      4 C3          1.6734   -1.7523   -0.0229 C.ar      1 <0>        -0.1247
      5 C4          0.6673   -2.6919   -0.0184 C.ar      1 <0>        -0.1155
      6 C5         -0.6662   -2.3019   -0.0040 C.ar      1 <0>        -0.1592
      7 C6         -1.0034   -0.9800    0.0064 C.ar      1 <0>        -0.0725
      8 C7          0.0021   -0.0041    0.0020 C.ar      1 <0>        -0.1084
      9 C8         -0.0171    1.4113    0.0098 C.2       1 <0>        -0.1840
     10 C9          1.2721    1.8427   -0.0002 C.2       1 <0>         0.0637
     11 C10         1.7002    3.2479    0.0025 C.2       1 <0>         0.5118
     12 O1          0.8702    4.1361    0.0150 O.co2     1 <0>        -0.6114
     13 H1          3.9323    0.8181   -1.0597 H         1 <0>         0.0612
     14 H2          3.9166    1.6987    0.4871 H         1 <0>         0.1154
     15 H3          3.9790   -0.0801    0.4763 H         1 <0>         0.0616
     16 H4          2.7069   -2.0655   -0.0345 H         1 <0>         0.1126
     17 H5          0.9170   -3.7426   -0.0264 H         1 <0>         0.1165
     18 H6         -1.4430   -3.0522   -0.0006 H         1 <0>         0.1138
     19 H7         -2.0427   -0.6864    0.0176 H         1 <0>         0.1164
     20 H8         -0.8979    2.0363    0.0176 H         1 <0>         0.1448
     21 O2          3.0137    3.5526   -0.0088 O.co2     1 <0>        -0.7485
@<TRIPOS>BOND
     1    1    2 1
     2    1   13 1
     3    1   14 1
     4    1   15 1
     5    2   10 1
     6    2    3 1
     7    3    8 ar
     8    3    4 ar
     9    4    5 ar
    10    4   16 1
    11    5    6 ar
    12    5   17 1
    13    6    7 ar
    14    6   18 1
    15    7    8 ar
    16    7   19 1
    17    8    9 1
    18    9   10 2
    19    9   20 1
    20   10   11 1
    21   11   12 2
    22   11   21 1
@<TRIPOS>MOLECULE
ZINC10743196
   82    84     0     0     0
SMALL
USER_CHARGES
N-[2-carbamoyl-1-(cyclobutylmethyl)-2-oxo-ethyl]-3-[3,3-dimethyl-2-(tert-butylcarbamoylamino)butanoyl]-6,6-dimethyl-3-azabicyclo[3.1.0]hexane-4-carboxamide
@<TRIPOS>ATOM
      1 C1         -0.5729   -1.5214    0.8974 C.3       1 <0>        -0.1650
      2 C2          0.0758   -1.7289   -0.4727 C.3       1 <0>        -0.0726
      3 C3         -0.1584   -0.6522   -1.5341 C.3       1 <0>        -0.1602
      4 H1         -0.3204   -0.9328   -2.5749 H         1 <0>         0.1290
      5 C4          1.2220   -0.7922   -0.8594 C.3       1 <0>        -0.1699
      6 H2          2.0848   -1.1906   -1.3932 H         1 <0>         0.1336
      7 C5          1.4134    0.5192   -0.0674 C.3       1 <0>         0.1450
      8 H3          2.4539    0.8411   -0.1109 H         1 <0>         0.1218
      9 N1          0.5242    1.4940   -0.7212 N.am      1 <0>        -0.5918
     10 C6         -0.6903    0.7216   -1.0722 C.3       1 <0>         0.1102
     11 C7          0.7729    2.7970   -0.9596 C.2       1 <0>         0.5450
     12 O1          1.8539    3.2694   -0.6783 O.2       1 <0>        -0.5281
     13 C8         -0.2923    3.6669   -1.5758 C.3       1 <0>         0.1672
     14 H4         -1.2729    3.2312   -1.3844 H         1 <0>         0.1075
     15 C9         -0.0625    3.7626   -3.0854 C.3       1 <0>        -0.0715
     16 C10         0.0050    2.3549   -3.6812 C.3       1 <0>        -0.1506
     17 C11        -1.2164    4.5340   -3.7291 C.3       1 <0>        -0.1290
     18 C12         1.2537    4.4944   -3.3556 C.3       1 <0>        -0.1423
     19 N2         -0.2298    5.0067   -0.9865 N.am      1 <0>        -0.7308
     20 C13        -1.3272    5.7891   -0.9735 C.2       1 <0>         0.7117
     21 O2         -2.3691    5.3829   -1.4509 O.2       1 <0>        -0.5768
     22 N3         -1.2697    7.0216   -0.4314 N.am      1 <0>        -0.7387
     23 C14        -2.4626    7.8720   -0.4173 C.3       1 <0>         0.1879
     24 C15        -3.5765    7.1751    0.3664 C.3       1 <0>        -0.1646
     25 C16        -2.1287    9.2079    0.2496 C.3       1 <0>        -0.1562
     26 C17        -2.9283    8.1212   -1.8533 C.3       1 <0>        -0.1643
     27 C18         0.9804    0.3364    1.3644 C.2       1 <0>         0.5299
     28 O3         -0.0833    0.7835    1.7381 O.2       1 <0>        -0.5251
     29 N4          1.7751   -0.3241    2.2297 N.am      1 <0>        -0.7185
     30 C19         1.3542   -0.5019    3.6216 C.3       1 <0>         0.1350
     31 H5          0.3624   -0.6245    3.6568 H         1 <0>         0.1163
     32 C20         2.0418   -1.7361    4.2087 C.3       1 <0>        -0.1142
     33 C21         1.5554   -2.9879    3.4757 C.3       1 <0>        -0.1103
     34 C22         0.2776   -3.5965    4.0771 C.3       1 <0>        -0.1376
     35 C23         0.9110   -4.9754    3.8276 C.3       1 <0>        -0.1425
     36 C24         2.2776   -4.2748    3.9083 C.3       1 <0>        -0.1353
     37 C25         1.7386    0.7157    4.4220 C.2       1 <0>         0.3358
     38 O4          2.5307    1.5089    3.9721 O.2       1 <0>        -0.4020
     39 C26         1.1413    0.9413    5.7693 C.2       1 <0>         0.4840
     40 O5          0.3455    0.1443    6.2214 O.2       1 <0>        -0.5038
     41 N5          1.4851    2.0302    6.4852 N.am      1 <0>        -0.8270
     42 C27         0.1608   -3.1808   -0.9479 C.3       1 <0>        -0.1152
     43 H6         -1.3304   -0.7408    0.8262 H         1 <0>         0.0776
     44 H7         -1.0389   -2.4512    1.2234 H         1 <0>         0.0613
     45 H8          0.1885   -1.2242    1.6185 H         1 <0>         0.0900
     46 H9         -1.2315    1.2114   -1.8817 H         1 <0>         0.0936
     47 H10        -1.3329    0.6064   -0.1993 H         1 <0>         0.0974
     48 H11        -0.9616    1.8647   -3.5655 H         1 <0>         0.0614
     49 H12         0.2549    2.4202   -4.7401 H         1 <0>         0.0654
     50 H13         0.7699    1.7771   -3.1623 H         1 <0>         0.0582
     51 H14        -1.2645    5.5368   -3.3046 H         1 <0>         0.0625
     52 H15        -1.0527    4.6021   -4.8046 H         1 <0>         0.0497
     53 H16        -2.1541    4.0126   -3.5366 H         1 <0>         0.0622
     54 H17         2.0758    3.9448   -2.8970 H         1 <0>         0.0618
     55 H18         1.4174    4.5625   -4.4310 H         1 <0>         0.0565
     56 H19         1.2056    5.4972   -2.9311 H         1 <0>         0.0562
     57 H20         0.6013    5.3308   -0.6056 H         1 <0>         0.4028
     58 H21        -0.4386    7.3457   -0.0505 H         1 <0>         0.3946
     59 H22        -3.2448    6.9976    1.3894 H         1 <0>         0.0513
     60 H23        -4.4641    7.8078    0.3769 H         1 <0>         0.0618
     61 H24        -3.8144    6.2234   -0.1087 H         1 <0>         0.0810
     62 H25        -1.3351    9.7045   -0.3088 H         1 <0>         0.0617
     63 H26        -3.0162    9.8406    0.2601 H         1 <0>         0.0751
     64 H27        -1.7969    9.0304    1.2726 H         1 <0>         0.0613
     65 H28        -3.1661    7.1695   -2.3284 H         1 <0>         0.0816
     66 H29        -3.8158    8.7539   -1.8428 H         1 <0>         0.0617
     67 H30        -2.1347    8.6177   -2.4116 H         1 <0>         0.0518
     68 H31         2.6258   -0.6817    1.9308 H         1 <0>         0.4086
     69 H32         3.1212   -1.6418    4.0897 H         1 <0>         0.0783
     70 H33         1.7988   -1.8180    5.2681 H         1 <0>         0.0954
     71 H34         1.5103   -2.8548    2.3948 H         1 <0>         0.0973
     72 H35         0.1386   -3.3645    5.1330 H         1 <0>         0.0852
     73 H36        -0.6162   -3.4123    3.4810 H         1 <0>         0.0674
     74 H37         0.6885   -5.3863    2.8428 H         1 <0>         0.0794
     75 H38         0.7374   -5.6880    4.6339 H         1 <0>         0.0676
     76 H39         2.9985   -4.6382    3.1759 H         1 <0>         0.0676
     77 H40         2.6867   -4.2277    4.9175 H         1 <0>         0.0816
     78 H41         2.1212    2.6672    6.1239 H         1 <0>         0.4113
     79 H42         1.0965    2.1769    7.3617 H         1 <0>         0.4114
     80 H43         0.1871   -3.2056   -2.0373 H         1 <0>         0.0610
     81 H44         1.0665   -3.6402   -0.5520 H         1 <0>         0.0655
     82 H45        -0.7107   -3.7309   -0.5928 H         1 <0>         0.0678
@<TRIPOS>BOND
     1    1    2 1
     2    1   43 1
     3    1   44 1
     4    1   45 1
     5    2    5 1
     6    2    3 1
     7    2   42 1
     8    3    4 1
     9    3   10 1
    10    3    5 1
    11    5    6 1
    12    5    7 1
    13    7    8 1
    14    7    9 1
    15    7   27 1
    16    9   10 1
    17    9   11 am
    18   10   46 1
    19   10   47 1
    20   11   12 2
    21   11   13 1
    22   13   14 1
    23   13   15 1
    24   13   19 1
    25   15   16 1
    26   15   17 1
    27   15   18 1
    28   16   48 1
    29   16   49 1
    30   16   50 1
    31   17   51 1
    32   17   52 1
    33   17   53 1
    34   18   54 1
    35   18   55 1
    36   18   56 1
    37   19   20 am
    38   19   57 1
    39   20   21 2
    40   20   22 am
    41   22   23 1
    42   22   58 1
    43   23   24 1
    44   23   25 1
    45   23   26 1
    46   24   59 1
    47   24   60 1
    48   24   61 1
    49   25   62 1
    50   25   63 1
    51   25   64 1
    52   26   65 1
    53   26   66 1
    54   26   67 1
    55   27   28 2
    56   27   29 am
    57   29   30 1
    58   29   68 1
    59   30   31 1
    60   30   32 1
    61   30   37 1
    62   32   33 1
    63   32   69 1
    64   32   70 1
    65   33   36 1
    66   33   34 1
    67   33   71 1
    68   34   35 1
    69   34   72 1
    70   34   73 1
    71   35   36 1
    72   35   74 1
    73   35   75 1
    74   36   76 1
    75   36   77 1
    76   37   38 2
    77   37   39 1
    78   39   40 2
    79   39   41 am
    80   41   78 1
    81   41   79 1
    82   42   80 1
    83   42   81 1
    84   42   82 1
@<TRIPOS>MOLECULE
ZINC28644284
   82    84     0     0     0
SMALL
USER_CHARGES
(1S,4S,5R)-N-[(1S)-3-amino-1-(cyclobutylmethyl)-2,3-dioxo-propyl]-3-[(2R)-2-(tert-butylcarbamoylamino)-3,3-dimethyl-butanoyl]-6,6-dimethyl-3-azabicyclo[3.1.0]hexane-4-carboxamide
@<TRIPOS>ATOM
      1 C1          3.7471    8.6660   -2.7034 C.3       1 <0>        -0.1160
      2 C2          3.4091    7.5907   -1.6688 C.3       1 <0>        -0.0612
      3 C3          2.3882    7.9490   -0.5871 C.3       1 <0>        -0.1515
      4 H1          1.5696    8.6837   -0.5987 H         1 <0>         0.1382
      5 C4          3.8842    7.8198   -0.2326 C.3       1 <0>        -0.1395
      6 H2          4.7304    8.4111    0.1474 H         1 <0>         0.1359
      7 C5          3.9665    6.5999    0.7100 C.3       1 <0>         0.1246
      8 H3          4.8842    6.0050    0.5921 H         1 <0>         0.1141
      9 N1          2.7677    5.7933    0.3832 N.am      1 <0>        -0.5949
     10 C6          1.6991    6.7962    0.1661 C.3       1 <0>         0.0927
     11 C7          2.6722    4.4517    0.2970 C.2       1 <0>         0.5405
     12 O1          3.6237    3.7564    0.5838 O.2       1 <0>        -0.5148
     13 C8          1.3832    3.8155   -0.1556 C.3       1 <0>         0.1710
     14 H4          1.3242    3.8335   -1.2539 H         1 <0>         0.1162
     15 C9          1.3078    2.3825    0.3754 C.3       1 <0>        -0.0570
     16 C10        -0.0620    1.7872    0.0435 C.3       1 <0>        -0.1301
     17 C11         2.4030    1.5379   -0.2788 C.3       1 <0>        -0.1583
     18 C12         1.5068    2.3896    1.8923 C.3       1 <0>        -0.1464
     19 N2          0.2501    4.5877    0.3602 N.am      1 <0>        -0.7565
     20 C13        -0.9365    4.5511   -0.2780 C.2       1 <0>         0.7126
     21 O2         -1.0679    3.8734   -1.2788 O.2       1 <0>        -0.5796
     22 N3         -1.9789    5.2615    0.1965 N.am      1 <0>        -0.7494
     23 C14        -3.2687    5.2218   -0.4971 C.3       1 <0>         0.1936
     24 C15        -3.7864    3.7824   -0.5293 C.3       1 <0>        -0.1663
     25 C16        -4.2728    6.1085    0.2421 C.3       1 <0>        -0.1564
     26 C17        -3.0939    5.7331   -1.9285 C.3       1 <0>        -0.1651
     27 C18         3.9244    7.0443    2.1494 C.2       1 <0>         0.5191
     28 O3          2.8751    7.0316    2.7576 O.2       1 <0>        -0.5299
     29 N4          5.0527    7.4559    2.7609 N.am      1 <0>        -0.7248
     30 C19         5.0118    7.8879    4.1602 C.3       1 <0>         0.1237
     31 H5          4.2581    7.2740    4.6750 H         1 <0>         0.1270
     32 C20         6.3936    7.7049    4.7910 C.3       1 <0>        -0.1265
     33 C21         6.7399    6.2153    4.8373 C.3       1 <0>        -0.1387
     34 C22         6.2315    5.5036    6.1021 C.3       1 <0>        -0.1448
     35 C23         7.5660    4.7396    6.1134 C.3       1 <0>        -0.1130
     36 C24         8.1635    5.9293    5.3438 C.3       1 <0>        -0.1127
     37 C25         4.6180    9.3410    4.2259 C.2       1 <0>         0.3427
     38 O4          4.6575   10.0231    3.2299 O.2       1 <0>        -0.4105
     39 C26         4.1796    9.9367    5.5204 C.2       1 <0>         0.4829
     40 O5          4.1398    9.2513    6.5212 O.2       1 <0>        -0.5152
     41 N5          3.8274   11.2363    5.5793 N.am      1 <0>        -0.8516
     42 C27         3.4074    6.1521   -2.1899 C.3       1 <0>        -0.1527
     43 H6          3.3462    8.3701   -3.6841 H         1 <0>         0.0660
     44 H7          4.8392    8.7781   -2.7723 H         1 <0>         0.0644
     45 H8          3.2989    9.6228   -2.3976 H         1 <0>         0.0615
     46 H9          1.2925    7.1708    1.1170 H         1 <0>         0.0929
     47 H10         0.8810    6.3934   -0.4492 H         1 <0>         0.0989
     48 H11        -0.1163    0.7570    0.4252 H         1 <0>         0.0469
     49 H12        -0.2051    1.7822   -1.0471 H         1 <0>         0.0682
     50 H13        -0.8494    2.3945    0.5138 H         1 <0>         0.0520
     51 H14         2.3488    0.5077    0.1030 H         1 <0>         0.0541
     52 H15         3.3878    1.9660   -0.0403 H         1 <0>         0.0898
     53 H16         2.2598    1.5328   -1.3694 H         1 <0>         0.0498
     54 H17         1.4526    1.3594    2.2740 H         1 <0>         0.0559
     55 H18         0.7193    2.9968    2.3626 H         1 <0>         0.0478
     56 H19         2.4916    2.8177    2.1309 H         1 <0>         0.0661
     57 H20         0.3678    5.1973    1.2682 H         1 <0>         0.4172
     58 H21        -1.8613    5.8711    1.1045 H         1 <0>         0.4112
     59 H22        -4.7548    3.7526   -1.0501 H         1 <0>         0.0598
     60 H23        -3.9120    3.4148    0.4998 H         1 <0>         0.0509
     61 H24        -3.0645    3.1449   -1.0608 H         1 <0>         0.0819
     62 H25        -5.2412    6.0787   -0.2787 H         1 <0>         0.0733
     63 H26        -3.9006    7.1434    0.2652 H         1 <0>         0.0614
     64 H27        -4.3984    5.7409    1.2712 H         1 <0>         0.0614
     65 H28        -4.0623    5.7033   -2.4493 H         1 <0>         0.0600
     66 H29        -2.3720    5.0956   -2.4600 H         1 <0>         0.0808
     67 H30        -2.7217    6.7680   -1.9053 H         1 <0>         0.0510
     68 H31         6.0043    7.4675    2.2093 H         1 <0>         0.4274
     69 H32         7.1448    8.2375    4.1892 H         1 <0>         0.0752
     70 H33         6.3869    8.1117    5.8130 H         1 <0>         0.0883
     71 H34         6.4074    5.9278    3.8290 H         1 <0>         0.0964
     72 H35         6.0329    6.2482    6.8870 H         1 <0>         0.0843
     73 H36         5.3040    4.9600    5.8692 H         1 <0>         0.0630
     74 H37         7.8780    4.5620    7.1532 H         1 <0>         0.0696
     75 H38         7.4411    3.7757    5.5984 H         1 <0>         0.0845
     76 H39         8.8256    5.7360    4.4869 H         1 <0>         0.0678
     77 H40         8.5348    6.7995    5.9050 H         1 <0>         0.0844
     78 H41         3.5040   11.6757    6.5344 H         1 <0>         0.4328
     79 H42         3.8634   11.8575    4.6722 H         1 <0>         0.4324
     80 H43         3.1537    5.4651   -1.3691 H         1 <0>         0.0805
     81 H44         4.4046    5.9029   -2.5817 H         1 <0>         0.0592
     82 H45         2.6627    6.0541   -2.9935 H         1 <0>         0.0597
@<TRIPOS>BOND
     1    1    2 1
     2    1   43 1
     3    1   44 1
     4    1   45 1
     5    2    5 1
     6    2    3 1
     7    2   42 1
     8    3    4 1
     9    3   10 1
    10    3    5 1
    11    5    6 1
    12    5    7 1
    13    7    8 1
    14    7    9 1
    15    7   27 1
    16    9   10 1
    17    9   11 am
    18   10   46 1
    19   10   47 1
    20   11   12 2
    21   11   13 1
    22   13   14 1
    23   13   15 1
    24   13   19 1
    25   15   16 1
    26   15   17 1
    27   15   18 1
    28   16   48 1
    29   16   49 1
    30   16   50 1
    31   17   51 1
    32   17   52 1
    33   17   53 1
    34   18   54 1
    35   18   55 1
    36   18   56 1
    37   19   20 am
    38   19   57 1
    39   20   21 2
    40   20   22 am
    41   22   23 1
    42   22   58 1
    43   23   24 1
    44   23   25 1
    45   23   26 1
    46   24   59 1
    47   24   60 1
    48   24   61 1
    49   25   62 1
    50   25   63 1
    51   25   64 1
    52   26   65 1
    53   26   66 1
    54   26   67 1
    55   27   28 2
    56   27   29 am
    57   29   30 1
    58   29   68 1
    59   30   31 1
    60   30   32 1
    61   30   37 1
    62   32   33 1
    63   32   69 1
    64   32   70 1
    65   33   36 1
    66   33   34 1
    67   33   71 1
    68   34   35 1
    69   34   72 1
    70   34   73 1
    71   35   36 1
    72   35   74 1
    73   35   75 1
    74   36   76 1
    75   36   77 1
    76   37   38 2
    77   37   39 1
    78   39   40 2
    79   39   41 am
    80   41   78 1
    81   41   79 1
    82   42   80 1
    83   42   81 1
    84   42   82 1
@<TRIPOS>MOLECULE
ZINC00532501
   17    18     0     0     0
SMALL
USER_CHARGES
5-chlorobenzofuran-2-carboxylic acid
@<TRIPOS>ATOM
      1 C1          0.5339    7.5648    0.0349 C.ar      1 <0>        -0.0995
      2 C2         -0.1519    6.3693    0.0354 C.ar      1 <0>        -0.0899
      3 C3          0.5490    5.1691    0.0232 C.ar      1 <0>         0.0459
      4 C4          1.9564    5.1963    0.0104 C.ar      1 <0>        -0.1187
      5 C5          2.6333    6.4181    0.0101 C.ar      1 <0>        -0.0625
      6 C6          1.9227    7.5864    0.0217 C.ar      1 <0>        -0.0560
      7 Cl1         2.7617    9.1062    0.0213 Cl        1 <0>        -0.0787
      8 C7          2.3798    3.7968   -0.0003 C.2       1 <0>        -0.1954
      9 C8          1.2390    3.0583    0.0067 C.2       1 <0>         0.0400
     10 O1          0.1663    3.8772    0.0154 O.3       1 <0>        -0.1655
     11 C9          1.1821    1.5914   -0.0007 C.2       1 <0>         0.5224
     12 O2          2.2106    0.9431   -0.0140 O.co2     1 <0>        -0.5962
     13 H1         -0.0146    8.4951    0.0444 H         1 <0>         0.1401
     14 H2         -1.2318    6.3650    0.0450 H         1 <0>         0.1398
     15 H3          3.7131    6.4401    0.0006 H         1 <0>         0.1351
     16 H4          3.3938    3.4252   -0.0117 H         1 <0>         0.1637
     17 O3         -0.0110    0.9628    0.0073 O.co2     1 <0>        -0.7246
@<TRIPOS>BOND
     1    1    6 ar
     2    1    2 ar
     3    1   13 1
     4    2    3 ar
     5    2   14 1
     6    3   10 1
     7    3    4 ar
     8    4    5 ar
     9    4    8 1
    10    5    6 ar
    11    5   15 1
    12    6    7 1
    13    8    9 2
    14    8   16 1
    15    9   10 1
    16    9   11 1
    17   11   12 2
    18   11   17 1
@<TRIPOS>MOLECULE
ZINC19418959
   53    56     0     0     0
SMALL
USER_CHARGES

@<TRIPOS>ATOM
      1 C1          0.4204    1.5427   -0.3194 C.3       1 <0>        -0.0460
      2 N1          0.3487    0.0771   -0.2504 N.4       1 <0>        -0.3881
      3 C2          0.9699   -0.5001   -1.4498 C.3       1 <0>        -0.0029
      4 C3          0.8787   -2.0264   -1.3873 C.3       1 <0>         0.0253
      5 N2          1.5653   -2.5063   -0.1797 N.3       1 <0>        -0.5381
      6 C4          0.9701   -1.9172    1.0281 C.3       1 <0>         0.0200
      7 C5          1.0605   -0.3919    0.9458 C.3       1 <0>        -0.0028
      8 C6          1.5488   -3.9737   -0.1128 C.3       1 <0>         0.0563
      9 C7          2.4763   -4.4435    1.0097 C.3       1 <0>        -0.1490
     10 C8          2.4590   -5.9719    1.0794 C.3       1 <0>         0.1115
     11 N3          3.3471   -6.4217    2.1542 N.pl3     1 <0>        -0.5624
     12 C9          2.7947   -6.5759    3.4230 C.ar      1 <0>         0.1921
     13 C10         1.6439   -5.8634    3.7445 C.ar      1 <0>        -0.1625
     14 C11         1.0657   -5.9970    4.9923 C.ar      1 <0>        -0.0785
     15 C12         1.6269   -6.8403    5.9324 C.ar      1 <0>        -0.1323
     16 C13         2.7718   -7.5521    5.6246 C.ar      1 <0>        -0.0529
     17 C14         3.3588   -7.4215    4.3741 C.ar      1 <0>        -0.1573
     18 S1          4.8225   -8.3286    4.0036 S.3       1 <0>         0.0431
     19 C15         5.4784   -7.5174    2.5843 C.ar      1 <0>        -0.1233
     20 C16         4.6781   -6.6680    1.8281 C.ar      1 <0>         0.1899
     21 C17         5.2223   -6.0407    0.7125 C.ar      1 <0>        -0.1146
     22 C18         6.5389   -6.2664    0.3573 C.ar      1 <0>        -0.1463
     23 C19         7.3258   -7.1180    1.1085 C.ar      1 <0>        -0.0830
     24 C20         6.7996   -7.7356    2.2221 C.ar      1 <0>        -0.0588
     25 C21         7.1179   -5.5814   -0.8538 C.3       1 <0>         0.5109
     26 F1          7.6743   -4.3552   -0.4745 F         1 <0>        -0.1740
     27 F2          8.1112   -6.3901   -1.4165 F         1 <0>        -0.1704
     28 F3          6.1057   -5.3632   -1.7946 F         1 <0>        -0.1785
     29 H1          1.4638    1.8534   -0.3722 H         1 <0>         0.1234
     30 H2         -0.1078    1.8910   -1.2070 H         1 <0>         0.1248
     31 H3         -0.0417    1.9713    0.5699 H         1 <0>         0.1244
     32 H4          0.4490   -0.1411   -2.3374 H         1 <0>         0.1368
     33 H5          2.0168   -0.2004   -1.4968 H         1 <0>         0.1381
     34 H6         -0.1685   -2.3271   -1.3541 H         1 <0>         0.0616
     35 H7          1.3528   -2.4555   -2.2701 H         1 <0>         0.1249
     36 H8         -0.0756   -2.2162    1.1011 H         1 <0>         0.0619
     37 H9          1.5109   -2.2667    1.9076 H         1 <0>         0.1238
     38 H10         2.1070   -0.0926    0.8865 H         1 <0>         0.1379
     39 H11         0.6068    0.0475    1.8341 H         1 <0>         0.1360
     40 H12         0.5337   -4.3169    0.0871 H         1 <0>         0.0515
     41 H13         1.8908   -4.3847   -1.0626 H         1 <0>         0.0934
     42 H14         3.4913   -4.1004    0.8098 H         1 <0>         0.0856
     43 H15         2.1342   -4.0326    1.9596 H         1 <0>         0.0755
     44 H16         1.4439   -6.3150    1.2793 H         1 <0>         0.0895
     45 H17         2.8011   -6.3828    0.1296 H         1 <0>         0.0899
     46 H18         1.2002   -5.2020    3.0150 H         1 <0>         0.1272
     47 H19         0.1723   -5.4402    5.2339 H         1 <0>         0.1308
     48 H20         1.1719   -6.9431    6.9065 H         1 <0>         0.1354
     49 H21         3.2102   -8.2112    6.3594 H         1 <0>         0.1375
     50 H22         4.6131   -5.3736    0.1208 H         1 <0>         0.1431
     51 H23         8.3536   -7.2935    0.8271 H         1 <0>         0.1481
     52 H24         7.4163   -8.4005    2.8086 H         1 <0>         0.1492
     53 H25        -0.6172   -0.2102   -0.2010 H         1 <0>         0.4223
@<TRIPOS>BOND
     1    1    2 1
     2    1   29 1
     3    1   30 1
     4    1   31 1
     5    2    7 1
     6    2    3 1
     7    2   53 1
     8    3    4 1
     9    3   32 1
    10    3   33 1
    11    4    5 1
    12    4   34 1
    13    4   35 1
    14    5    6 1
    15    5    8 1
    16    6    7 1
    17    6   36 1
    18    6   37 1
    19    7   38 1
    20    7   39 1
    21    8    9 1
    22    8   40 1
    23    8   41 1
    24    9   10 1
    25    9   42 1
    26    9   43 1
    27   10   11 1
    28   10   44 1
    29   10   45 1
    30   11   20 1
    31   11   12 1
    32   12   17 ar
    33   12   13 ar
    34   13   14 ar
    35   13   46 1
    36   14   15 ar
    37   14   47 1
    38   15   16 ar
    39   15   48 1
    40   16   17 ar
    41   16   49 1
    42   17   18 1
    43   18   19 1
    44   19   24 ar
    45   19   20 ar
    46   20   21 ar
    47   21   22 ar
    48   21   50 1
    49   22   23 ar
    50   22   25 1
    51   23   24 ar
    52   23   51 1
    53   24   52 1
    54   25   26 1
    55   25   27 1
    56   25   28 1
@<TRIPOS>MOLECULE
ZINC19418959
   53    56     0     0     0
SMALL
USER_CHARGES

@<TRIPOS>ATOM
      1 C1          0.4328    1.5258   -0.3011 C.3       1 <0>         0.0191
      2 N1          0.3593    0.0600   -0.2373 N.3       1 <0>        -0.5429
      3 C2          0.8896   -0.5479   -1.4659 C.3       1 <0>         0.0236
      4 C3          0.7405   -2.0687   -1.3844 C.3       1 <0>        -0.0021
      5 N2          1.4724   -2.5705   -0.2140 N.4       1 <0>        -0.3864
      6 C4          0.9155   -1.9734    1.0070 C.3       1 <0>        -0.0074
      7 C5          1.0660   -0.4518    0.9454 C.3       1 <0>         0.0248
      8 C6          1.3441   -4.0323   -0.1464 C.3       1 <0>        -0.0072
      9 C7          2.2069   -4.5677    0.9981 C.3       1 <0>        -0.1860
     10 C8          2.0732   -6.0902    1.0685 C.3       1 <0>         0.1181
     11 N3          2.8994   -6.6028    2.1644 N.pl3     1 <0>        -0.5624
     12 C9          2.3073   -6.7118    3.4198 C.ar      1 <0>         0.1854
     13 C10         1.2060   -5.9141    3.7135 C.ar      1 <0>        -0.1634
     14 C11         0.5902   -6.0007    4.9473 C.ar      1 <0>        -0.0766
     15 C12         1.0642   -6.8815    5.9011 C.ar      1 <0>        -0.1271
     16 C13         2.1593   -7.6780    5.6210 C.ar      1 <0>        -0.0512
     17 C14         2.7837   -7.5950    4.3846 C.ar      1 <0>        -0.1555
     18 S1          4.1834   -8.6105    4.0495 S.3       1 <0>         0.0508
     19 C15         4.9317   -7.8544    2.6456 C.ar      1 <0>        -0.1201
     20 C16         4.2155   -6.9492    1.8701 C.ar      1 <0>         0.1860
     21 C17         4.8314   -6.3674    0.7671 C.ar      1 <0>        -0.1187
     22 C18         6.1353   -6.6922    0.4434 C.ar      1 <0>        -0.1465
     23 C19         6.8381   -7.5986    1.2136 C.ar      1 <0>        -0.0782
     24 C20         6.2409   -8.1721    2.3149 C.ar      1 <0>        -0.0564
     25 C21         6.7925   -6.0557   -0.7542 C.3       1 <0>         0.5107
     26 F1          7.4304   -4.8737   -0.3627 F         1 <0>        -0.1734
     27 F2          7.7352   -6.9381   -1.2927 F         1 <0>        -0.1677
     28 F3          5.8220   -5.7644   -1.7188 F         1 <0>        -0.1812
     29 H1          1.4765    1.8352   -0.3565 H         1 <0>         0.0399
     30 H2         -0.0981    1.8781   -1.1855 H         1 <0>         0.0846
     31 H3         -0.0256    1.9517    0.5914 H         1 <0>         0.0847
     32 H4          0.3342   -0.1736   -2.3259 H         1 <0>         0.1251
     33 H5          1.9434   -0.2910   -1.5732 H         1 <0>         0.0609
     34 H6         -0.3146   -2.3258   -1.2908 H         1 <0>         0.1393
     35 H7          1.1462   -2.5225   -2.2886 H         1 <0>         0.1373
     36 H8         -0.1405   -2.2310    1.0883 H         1 <0>         0.1397
     37 H9          1.4508   -2.3566    1.8757 H         1 <0>         0.1346
     38 H10         2.1227   -0.1933    0.8778 H         1 <0>         0.0606
     39 H11         0.6393   -0.0074    1.8446 H         1 <0>         0.1243
     40 H12         0.3016   -4.2978    0.0297 H         1 <0>         0.1367
     41 H13         1.6765   -4.4702   -1.0876 H         1 <0>         0.1368
     42 H14         3.2494   -4.3022    0.8220 H         1 <0>         0.0947
     43 H15         1.8745   -4.1298    1.9393 H         1 <0>         0.0988
     44 H16         1.0308   -6.3556    1.2446 H         1 <0>         0.1004
     45 H17         2.4057   -6.5280    0.1273 H         1 <0>         0.0974
     46 H18         0.8307   -5.2231    2.9732 H         1 <0>         0.1250
     47 H19        -0.2642   -5.3778    5.1674 H         1 <0>         0.1340
     48 H20         0.5800   -6.9473    6.8642 H         1 <0>         0.1380
     49 H21         2.5295   -8.3664    6.3664 H         1 <0>         0.1394
     50 H22         4.2881   -5.6578    0.1607 H         1 <0>         0.1365
     51 H23         7.8561   -7.8515    0.9568 H         1 <0>         0.1503
     52 H24         6.7918   -8.8800    2.9163 H         1 <0>         0.1515
     53 H25         2.4470   -2.3223   -0.2952 H         1 <0>         0.4212
@<TRIPOS>BOND
     1    1    2 1
     2    1   29 1
     3    1   30 1
     4    1   31 1
     5    2    7 1
     6    2    3 1
     7    3    4 1
     8    3   32 1
     9    3   33 1
    10    4    5 1
    11    4   34 1
    12    4   35 1
    13    5    6 1
    14    5    8 1
    15    5   53 1
    16    6    7 1
    17    6   36 1
    18    6   37 1
    19    7   38 1
    20    7   39 1
    21    8    9 1
    22    8   40 1
    23    8   41 1
    24    9   10 1
    25    9   42 1
    26    9   43 1
    27   10   11 1
    28   10   44 1
    29   10   45 1
    30   11   20 1
    31   11   12 1
    32   12   17 ar
    33   12   13 ar
    34   13   14 ar
    35   13   46 1
    36   14   15 ar
    37   14   47 1
    38   15   16 ar
    39   15   48 1
    40   16   17 ar
    41   16   49 1
    42   17   18 1
    43   18   19 1
    44   19   24 ar
    45   19   20 ar
    46   20   21 ar
    47   21   22 ar
    48   21   50 1
    49   22   23 ar
    50   22   25 1
    51   23   24 ar
    52   23   51 1
    53   24   52 1
    54   25   26 1
    55   25   27 1
    56   25   28 1
@<TRIPOS>MOLECULE
ZINC02349698
   18    19     0     0     0
SMALL
USER_CHARGES
7-chloro-1H-indole-2-carboxylic acid
@<TRIPOS>ATOM
      1 C1          1.1552    3.8281    0.0121 C.ar      1 <0>        -0.1484
      2 C2         -0.0219    4.5182    0.0275 C.ar      1 <0>        -0.0653
      3 C3         -1.2381    3.8226    0.0350 C.ar      1 <0>        -0.0950
      4 C4         -2.5926    4.2335    0.0504 C.2       1 <0>        -0.1797
      5 C5         -3.3647    3.1145    0.0511 C.2       1 <0>         0.0750
      6 N1         -2.5473    2.0005    0.0365 N.pl3     1 <0>        -0.5544
      7 H1         -2.8489    1.0786    0.0338 H         1 <0>         0.4241
      8 C6         -1.2359    2.4140    0.0210 C.ar      1 <0>         0.0893
      9 C7         -0.0215    1.7317    0.0116 C.ar      1 <0>        -0.0399
     10 C8          1.1612    2.4391    0.0041 C.ar      1 <0>        -0.1017
     11 Cl1         0.0021   -0.0041    0.0020 Cl        1 <0>        -0.0858
     12 C9         -4.8334    3.0931    0.0658 C.2       1 <0>         0.5095
     13 O1         -5.4565    4.1370    0.0787 O.co2     1 <0>        -0.6082
     14 H2          2.0912    4.3670    0.0064 H         1 <0>         0.1255
     15 H3         -0.0160    5.5982    0.0344 H         1 <0>         0.1249
     16 H4         -2.9488    5.2530    0.0603 H         1 <0>         0.1505
     17 H5          2.1017    1.9084   -0.0078 H         1 <0>         0.1291
     18 O2         -5.4906    1.9157    0.0649 O.co2     1 <0>        -0.7495
@<TRIPOS>BOND
     1    1   10 ar
     2    1    2 ar
     3    1   14 1
     4    2    3 ar
     5    2   15 1
     6    3    8 ar
     7    3    4 1
     8    4    5 2
     9    4   16 1
    10    5    6 1
    11    5   12 1
    12    6    7 1
    13    6    8 1
    14    8    9 ar
    15    9   10 ar
    16    9   11 1
    17   10   17 1
    18   12   13 2
    19   12   18 1
@<TRIPOS>MOLECULE
ZINC04096393
   69    72     0     0     0
SMALL
USER_CHARGES
[3,4-dihydroxy-5,6-bis[(3,4,5-trihydroxybenzoyl)oxy]tetrahydropyran-2-yl]methyl 3,4,5-trihydroxybenzoate
@<TRIPOS>ATOM
      1 C1          5.7429    6.5594    1.0378 C.ar      1 <0>        -0.0734
      2 C2          4.5464    5.8413    1.1163 C.ar      1 <0>        -0.1039
      3 C3          3.3345    6.5216    1.2633 C.ar      1 <0>        -0.0774
      4 C4          3.3232    7.9015    1.3417 C.ar      1 <0>         0.0861
      5 C5          4.5168    8.6144    1.2638 C.ar      1 <0>         0.0943
      6 C6          5.7252    7.9394    1.1116 C.ar      1 <0>         0.0859
      7 O1          6.8890    8.6389    1.0349 O.3       1 <0>        -0.4780
      8 O2          4.5022    9.9712    1.3360 O.3       1 <0>        -0.4726
      9 O3          2.1446    8.5639    1.4895 O.3       1 <0>        -0.4779
     10 C7          4.5622    4.3687    1.0380 C.2       1 <0>         0.5159
     11 O4          5.6160    3.7786    0.9051 O.2       1 <0>        -0.4980
     12 O5          3.4079    3.6776    1.1137 O.3       1 <0>        -0.3400
     13 C8          3.4991    2.2309    1.0294 C.3       1 <0>         0.0843
     14 C9          2.0981    1.6247    1.1335 C.3       1 <0>         0.1081
     15 H1          1.6159    1.9777    2.0451 H         1 <0>         0.0957
     16 C10         2.2039    0.0979    1.1702 C.3       1 <0>         0.0500
     17 H2          2.7226   -0.2538    0.2783 H         1 <0>         0.0908
     18 C11         0.7956   -0.5028    1.2136 C.3       1 <0>         0.0834
     19 H3          0.2947   -0.1921    2.1305 H         1 <0>         0.0910
     20 C12         0.0021   -0.0041    0.0020 C.3       1 <0>         0.0818
     21 H4          0.4749   -0.3569   -0.9145 H         1 <0>         0.1195
     22 C13        -0.0187    1.5267    0.0104 C.3       1 <0>         0.2561
     23 H5         -0.5286    1.8784    0.9073 H         1 <0>         0.0947
     24 O6          1.3225    2.0200    0.0003 O.3       1 <0>        -0.3593
     25 O7         -0.7206    2.0079   -1.1660 O.3       1 <0>        -0.3213
     26 C14        -0.9191    3.3375   -1.2588 C.2       1 <0>         0.5166
     27 O8         -0.5167    4.0745   -0.3806 O.2       1 <0>        -0.4754
     28 C15        -1.6247    3.8980   -2.4262 C.ar      1 <0>        -0.1040
     29 C16        -2.0831    3.0520   -3.4398 C.ar      1 <0>        -0.0792
     30 C17        -2.7488    3.5795   -4.5301 C.ar      1 <0>         0.0877
     31 C18        -2.9536    4.9536   -4.6244 C.ar      1 <0>         0.0958
     32 C19        -2.4930    5.7994   -3.6188 C.ar      1 <0>         0.0863
     33 C20        -1.8314    5.2768   -2.5236 C.ar      1 <0>        -0.0719
     34 O9         -2.6940    7.1411   -3.7145 O.3       1 <0>        -0.4771
     35 O10        -3.6039    5.4700   -5.7000 O.3       1 <0>        -0.4720
     36 O11        -3.1992    2.7563   -5.5146 O.3       1 <0>        -0.4768
     37 O12        -1.3578   -0.5082    0.0716 O.3       1 <0>        -0.3294
     38 C21        -1.9943   -0.7148   -1.0980 C.2       1 <0>         0.5157
     39 O13        -1.4284   -0.4802   -2.1473 O.2       1 <0>        -0.4782
     40 C22        -3.3777   -1.2258   -1.1044 C.ar      1 <0>        -0.1022
     41 C23        -4.0278   -1.5015    0.1017 C.ar      1 <0>        -0.0815
     42 C24        -5.3262   -1.9752    0.0928 C.ar      1 <0>         0.0860
     43 C25        -5.9828   -2.1878   -1.1166 C.ar      1 <0>         0.0951
     44 C26        -5.3355   -1.9194   -2.3199 C.ar      1 <0>         0.0891
     45 C27        -4.0391   -1.4406   -2.3168 C.ar      1 <0>        -0.0712
     46 O14        -5.9795   -2.1291   -3.4993 O.3       1 <0>        -0.4766
     47 O15        -7.2575   -2.6585   -1.1225 O.3       1 <0>        -0.4722
     48 O16        -5.9611   -2.2392    1.2662 O.3       1 <0>        -0.4786
     49 O17         0.8826   -1.9286    1.1740 O.3       1 <0>        -0.5425
     50 O18         2.9300   -0.3026    2.3340 O.3       1 <0>        -0.5434
     51 H6          6.6804    6.0365    0.9194 H         1 <0>         0.1534
     52 H7          2.4080    5.9694    1.3193 H         1 <0>         0.1560
     53 H8          7.1402    8.8870    0.1346 H         1 <0>         0.3924
     54 H9          4.4130   10.4097    0.4788 H         1 <0>         0.3913
     55 H10         1.7192    8.8010    0.6541 H         1 <0>         0.3924
     56 H11         4.1180    1.8577    1.8454 H         1 <0>         0.1070
     57 H12         3.9466    1.9499    0.0761 H         1 <0>         0.0854
     58 H13        -1.9205    1.9866   -3.3693 H         1 <0>         0.1561
     59 H14        -1.4740    5.9334   -1.7441 H         1 <0>         0.1538
     60 H15        -1.9822    7.6142   -4.1668 H         1 <0>         0.3920
     61 H16        -3.0221    5.7049   -6.4358 H         1 <0>         0.3915
     62 H17        -2.5593    2.6040   -6.2233 H         1 <0>         0.3923
     63 H18        -3.5174   -1.3409    1.0398 H         1 <0>         0.1525
     64 H19        -3.5376   -1.2322   -3.2503 H         1 <0>         0.1545
     65 H20        -5.8597   -3.0182   -3.8602 H         1 <0>         0.3928
     66 H21        -7.3204   -3.6232   -1.1444 H         1 <0>         0.3918
     67 H22        -5.8384   -3.1439    1.5849 H         1 <0>         0.3925
     68 H23         1.3730   -2.3134    1.9133 H         1 <0>         0.3874
     69 H24         3.0314   -1.2601    2.4242 H         1 <0>         0.3891
@<TRIPOS>BOND
     1    1    6 ar
     2    1    2 ar
     3    1   51 1
     4    2    3 ar
     5    2   10 1
     6    3    4 ar
     7    3   52 1
     8    4    5 ar
     9    4    9 1
    10    5    6 ar
    11    5    8 1
    12    6    7 1
    13    7   53 1
    14    8   54 1
    15    9   55 1
    16   10   11 2
    17   10   12 1
    18   12   13 1
    19   13   14 1
    20   13   56 1
    21   13   57 1
    22   14   15 1
    23   14   24 1
    24   14   16 1
    25   16   17 1
    26   16   18 1
    27   16   50 1
    28   18   19 1
    29   18   20 1
    30   18   49 1
    31   20   21 1
    32   20   22 1
    33   20   37 1
    34   22   23 1
    35   22   24 1
    36   22   25 1
    37   25   26 1
    38   26   27 2
    39   26   28 1
    40   28   33 ar
    41   28   29 ar
    42   29   30 ar
    43   29   58 1
    44   30   31 ar
    45   30   36 1
    46   31   32 ar
    47   31   35 1
    48   32   33 ar
    49   32   34 1
    50   33   59 1
    51   34   60 1
    52   35   61 1
    53   36   62 1
    54   37   38 1
    55   38   39 2
    56   38   40 1
    57   40   45 ar
    58   40   41 ar
    59   41   42 ar
    60   41   63 1
    61   42   43 ar
    62   42   48 1
    63   43   44 ar
    64   43   47 1
    65   44   45 ar
    66   44   46 1
    67   45   64 1
    68   46   65 1
    69   47   66 1
    70   48   67 1
    71   49   68 1
    72   50   69 1
@<TRIPOS>MOLECULE
ZINC00056527
   26    27     0     0     0
SMALL
USER_CHARGES

@<TRIPOS>ATOM
      1 C1          1.8157    1.4127   -0.9998 C.ar      1 <0>        -0.1287
      2 C2          1.3681    2.0279    0.1560 C.ar      1 <0>        -0.1237
      3 C3          0.8921    1.2727    1.2116 C.ar      1 <0>        -0.0885
      4 C4          0.8611   -0.1167    1.1155 C.ar      1 <0>        -0.1049
      5 C5          1.3169   -0.7427   -0.0614 C.ar      1 <0>        -0.1215
      6 C6          1.7927    0.0351   -1.1138 C.ar      1 <0>        -0.1063
      7 C7          1.2906   -2.2168   -0.1781 C.2       1 <0>         0.4792
      8 O1          2.3186   -2.8542   -0.0595 O.2       1 <0>        -0.4608
      9 C8          0.0156   -2.9141   -0.4388 C.ar      1 <0>        -0.0953
     10 C9         -1.1450   -2.1804   -0.6992 C.ar      1 <0>        -0.0538
     11 C10        -2.3322   -2.8375   -0.9417 C.ar      1 <0>        -0.1222
     12 C11        -2.3766   -4.2223   -0.9274 C.ar      1 <0>        -0.0195
     13 C12        -1.2295   -4.9556   -0.6700 C.ar      1 <0>        -0.1233
     14 C13        -0.0346   -4.3108   -0.4320 C.ar      1 <0>        -0.0523
     15 Cl1        -3.8760   -5.0421   -1.2327 Cl        1 <0>        -0.0816
     16 C14         0.3542   -0.9282    2.2403 C.2       1 <0>         0.5158
     17 O2          0.0379   -0.3876    3.2904 O.co2     1 <0>        -0.6772
     18 O3          0.2507   -2.1408    2.1215 O.co2     1 <0>        -0.6628
     19 H1          2.1812    2.0129   -1.8200 H         1 <0>         0.1200
     20 H2          1.3911    3.1048    0.2341 H         1 <0>         0.1191
     21 H3          0.5448    1.7597    2.1108 H         1 <0>         0.1323
     22 H4          2.1434   -0.4378   -2.0192 H         1 <0>         0.1197
     23 H5         -1.1119   -1.1010   -0.7099 H         1 <0>         0.1323
     24 H6         -3.2299   -2.2717   -1.1430 H         1 <0>         0.1329
     25 H7         -1.2707   -6.0347   -0.6602 H         1 <0>         0.1333
     26 H8          0.8599   -4.8835   -0.2362 H         1 <0>         0.1379
@<TRIPOS>BOND
     1    1    6 ar
     2    1    2 ar
     3    1   19 1
     4    2    3 ar
     5    2   20 1
     6    3    4 ar
     7    3   21 1
     8    4    5 ar
     9    4   16 1
    10    5    6 ar
    11    5    7 1
    12    6   22 1
    13    7    8 2
    14    7    9 1
    15    9   14 ar
    16    9   10 ar
    17   10   11 ar
    18   10   23 1
    19   11   12 ar
    20   11   24 1
    21   12   13 ar
    22   12   15 1
    23   13   14 ar
    24   13   25 1
    25   14   26 1
    26   16   17 2
    27   16   18 1
@<TRIPOS>MOLECULE
ZINC00056439
   26    27     0     0     0
SMALL
USER_CHARGES
2-(4-fluorobenzoyl)benzoic acid
@<TRIPOS>ATOM
      1 C1          4.8935    4.0668   -0.1359 C.ar      1 <0>        -0.1246
      2 C2          4.9897    5.4460   -0.0747 C.ar      1 <0>        -0.1239
      3 C3          3.8500    6.2243    0.0031 C.ar      1 <0>        -0.0807
      4 C4          2.5950    5.6213    0.0204 C.ar      1 <0>        -0.0869
      5 C5          2.4970    4.2180   -0.0419 C.ar      1 <0>        -0.1217
      6 C6          3.6570    3.4501   -0.1146 C.ar      1 <0>        -0.1048
      7 C7          1.1714    3.5633   -0.0240 C.2       1 <0>         0.4768
      8 O1          0.7708    3.0295    0.9920 O.2       1 <0>        -0.4563
      9 C8          0.3345    3.5580   -1.2396 C.ar      1 <0>        -0.1276
     10 C9         -0.8745    2.8565   -1.2561 C.ar      1 <0>        -0.0384
     11 C10        -1.6518    2.8556   -2.3937 C.ar      1 <0>        -0.1678
     12 C11        -1.2366    3.5485   -3.5213 C.ar      1 <0>         0.1126
     13 C12        -0.0379    4.2463   -3.5108 C.ar      1 <0>        -0.1643
     14 C13         0.7478    4.2545   -2.3790 C.ar      1 <0>        -0.0311
     15 F1         -2.0024    3.5432   -4.6342 F         1 <0>        -0.1419
     16 C14         1.3733    6.4492    0.1030 C.2       1 <0>         0.4840
     17 O2          0.2873    5.9188    0.2230 O.co2     1 <0>        -0.6092
     18 H1          5.7906    3.4685   -0.1965 H         1 <0>         0.1216
     19 H2          5.9614    5.9172   -0.0875 H         1 <0>         0.1212
     20 H3          3.9330    7.3001    0.0509 H         1 <0>         0.1366
     21 H4          3.5898    2.3730   -0.1581 H         1 <0>         0.1215
     22 H5         -1.2008    2.3200   -0.3774 H         1 <0>         0.1403
     23 H6         -2.5861    2.3139   -2.4077 H         1 <0>         0.1368
     24 H7          0.2804    4.7840   -4.3917 H         1 <0>         0.1371
     25 H8          1.6809    4.7982   -2.3720 H         1 <0>         0.1349
     26 O3          1.4643    7.7920    0.0452 O.co2     1 <0>        -0.7440
@<TRIPOS>BOND
     1    1    6 ar
     2    1    2 ar
     3    1   18 1
     4    2    3 ar
     5    2   19 1
     6    3    4 ar
     7    3   20 1
     8    4    5 ar
     9    4   16 1
    10    5    6 ar
    11    5    7 1
    12    6   21 1
    13    7    8 2
    14    7    9 1
    15    9   14 ar
    16    9   10 ar
    17   10   11 ar
    18   10   22 1
    19   11   12 ar
    20   11   23 1
    21   12   13 ar
    22   12   15 1
    23   13   14 ar
    24   13   24 1
    25   14   25 1
    26   16   17 2
    27   16   26 1
@<TRIPOS>MOLECULE
ZINC00143992
   30    31     0     0     0
SMALL
USER_CHARGES
2-(4-methoxybenzoyl)benzoic acid
@<TRIPOS>ATOM
      1 C1          7.1339    5.4068   -1.4412 C.3       1 <0>         0.0267
      2 O1          6.0021    6.2329   -1.1608 O.3       1 <0>        -0.3180
      3 C2          4.8262    5.6031   -0.9130 C.ar      1 <0>         0.1411
      4 C3          3.6861    6.3486   -0.6330 C.ar      1 <0>        -0.1650
      5 C4          2.4911    5.7140   -0.3810 C.ar      1 <0>        -0.0223
      6 C5          2.4244    4.3169   -0.4068 C.ar      1 <0>        -0.1454
      7 C6          3.5749    3.5709   -0.6837 C.ar      1 <0>        -0.0235
      8 C7          4.7644    4.2141   -0.9401 C.ar      1 <0>        -0.2198
      9 C8          1.1465    3.6326   -0.1370 C.2       1 <0>         0.4780
     10 O2          0.1281    4.2809    0.0063 O.2       1 <0>        -0.4658
     11 C9          1.1037    2.1576   -0.0408 C.ar      1 <0>        -0.1196
     12 C10         0.6021    1.4006   -1.0971 C.ar      1 <0>        -0.1067
     13 C11         0.5637    0.0225   -1.0022 C.ar      1 <0>        -0.1253
     14 C12         1.0212   -0.6144    0.1381 C.ar      1 <0>        -0.1257
     15 C13         1.5224    0.1200    1.1965 C.ar      1 <0>        -0.0813
     16 C14         1.5692    1.5096    1.1194 C.ar      1 <0>        -0.0857
     17 C15         2.0986    2.2997    2.2508 C.2       1 <0>         0.4839
     18 O3          2.2156    3.5043    2.1483 O.co2     1 <0>        -0.6067
     19 H1          6.9328    4.8031   -2.3262 H         1 <0>         0.0546
     20 H2          8.0066    6.0347   -1.6204 H         1 <0>         0.0968
     21 H3          7.3257    4.7523   -0.5909 H         1 <0>         0.0570
     22 H4          3.7386    7.4271   -0.6130 H         1 <0>         0.1314
     23 H5          1.6061    6.2937   -0.1641 H         1 <0>         0.1362
     24 H6          3.5289    2.4921   -0.7003 H         1 <0>         0.1260
     25 H7          5.6522    3.6391   -1.1583 H         1 <0>         0.1280
     26 H8          0.2429    1.8908   -1.9899 H         1 <0>         0.1209
     27 H9          0.1738   -0.5612   -1.8230 H         1 <0>         0.1208
     28 H10         0.9862   -1.6919    0.2016 H         1 <0>         0.1204
     29 H11         1.8774   -0.3840    2.0833 H         1 <0>         0.1357
     30 O4          2.4513    1.6838    3.3958 O.co2     1 <0>        -0.7467
@<TRIPOS>BOND
     1    1    2 1
     2    1   19 1
     3    1   20 1
     4    1   21 1
     5    2    3 1
     6    3    8 ar
     7    3    4 ar
     8    4    5 ar
     9    4   22 1
    10    5    6 ar
    11    5   23 1
    12    6    7 ar
    13    6    9 1
    14    7    8 ar
    15    7   24 1
    16    8   25 1
    17    9   10 2
    18    9   11 1
    19   11   16 ar
    20   11   12 ar
    21   12   13 ar
    22   12   26 1
    23   13   14 ar
    24   13   27 1
    25   14   15 ar
    26   14   28 1
    27   15   16 ar
    28   15   29 1
    29   16   17 1
    30   17   18 2
    31   17   30 1
@<TRIPOS>MOLECULE
ZINC03847474
   29    30     0     0     0
SMALL
USER_CHARGES
2-(4-methylbenzoyl)benzoic acid
@<TRIPOS>ATOM
      1 C1          6.2130    6.3338   -1.1146 C.3       1 <0>        -0.1124
      2 C2          4.9151    5.6038   -0.8827 C.ar      1 <0>        -0.0725
      3 C3          3.7501    6.3205   -0.6718 C.ar      1 <0>        -0.1369
      4 C4          2.5587    5.6591   -0.4589 C.ar      1 <0>        -0.0627
      5 C5          2.5298    4.2623   -0.4570 C.ar      1 <0>        -0.1218
      6 C6          3.7105    3.5454   -0.6658 C.ar      1 <0>        -0.0557
      7 C7          4.8938    4.2200   -0.8822 C.ar      1 <0>        -0.1334
      8 C8          1.2577    3.5468   -0.2291 C.2       1 <0>         0.4750
      9 O1          0.2213    4.1713   -0.1145 O.2       1 <0>        -0.4607
     10 C9          1.2452    2.0711   -0.1406 C.ar      1 <0>        -0.1192
     11 C10         1.1327    1.4442    1.0984 C.ar      1 <0>        -0.1061
     12 C11         1.1220    0.0645    1.1760 C.ar      1 <0>        -0.1249
     13 C12         1.2223   -0.7026    0.0286 C.ar      1 <0>        -0.1254
     14 C13         1.3351   -0.0985   -1.2097 C.ar      1 <0>        -0.0811
     15 C14         1.3477    1.2904   -1.3080 C.ar      1 <0>        -0.0867
     16 C15         1.4742    1.9412   -2.6292 C.2       1 <0>         0.4844
     17 O2          1.3798    3.1485   -2.7230 O.co2     1 <0>        -0.6079
     18 H1          6.7078    6.5077   -0.1591 H         1 <0>         0.0682
     19 H2          6.8589    5.7322   -1.7541 H         1 <0>         0.0657
     20 H3          6.0109    7.2894   -1.5984 H         1 <0>         0.0649
     21 H4          3.7740    7.4002   -0.6735 H         1 <0>         0.1221
     22 H5          1.6504    6.2196   -0.2943 H         1 <0>         0.1286
     23 H6          3.6961    2.4655   -0.6612 H         1 <0>         0.1238
     24 H7          5.8067    3.6671   -1.0475 H         1 <0>         0.1224
     25 H8          1.0544    2.0364    1.9982 H         1 <0>         0.1206
     26 H9          1.0350   -0.4182    2.1383 H         1 <0>         0.1211
     27 H10         1.2129   -1.7801    0.1010 H         1 <0>         0.1207
     28 H11         1.4137   -0.7037   -2.1007 H         1 <0>         0.1360
     29 O3          1.6942    1.1954   -3.7292 O.co2     1 <0>        -0.7461
@<TRIPOS>BOND
     1    1    2 1
     2    1   18 1
     3    1   19 1
     4    1   20 1
     5    2    7 ar
     6    2    3 ar
     7    3    4 ar
     8    3   21 1
     9    4    5 ar
    10    4   22 1
    11    5    6 ar
    12    5    8 1
    13    6    7 ar
    14    6   23 1
    15    7   24 1
    16    8    9 2
    17    8   10 1
    18   10   15 ar
    19   10   11 ar
    20   11   12 ar
    21   11   25 1
    22   12   13 ar
    23   12   26 1
    24   13   14 ar
    25   13   27 1
    26   14   15 ar
    27   14   28 1
    28   15   16 1
    29   16   17 2
    30   16   29 1
@<TRIPOS>MOLECULE
ZINC02568834
   18    19     0     0     0
SMALL
USER_CHARGES
7-bromo-1H-indole-2-carboxylic acid
@<TRIPOS>ATOM
      1 C1          1.1531    3.9829    0.0120 C.ar      1 <0>        -0.1558
      2 C2         -0.0240    4.6731    0.0264 C.ar      1 <0>        -0.0535
      3 C3         -1.2401    3.9775    0.0343 C.ar      1 <0>        -0.1001
      4 C4         -2.5946    4.3883    0.0489 C.2       1 <0>        -0.1782
      5 C5         -3.3666    3.2693    0.0505 C.2       1 <0>         0.0740
      6 N1         -2.5491    2.1553    0.0373 N.pl3     1 <0>        -0.5547
      7 H1         -2.8506    1.2334    0.0360 H         1 <0>         0.4242
      8 C6         -1.2378    2.5688    0.0218 C.ar      1 <0>         0.1051
      9 C7         -0.0236    1.8867    0.0124 C.ar      1 <0>        -0.0965
     10 C8          1.1589    2.5940    0.0049 C.ar      1 <0>        -0.0782
     11 Br1         0.0021   -0.0041    0.0020 Br        1 <0>        -0.0681
     12 C9         -4.8354    3.2477    0.0645 C.2       1 <0>         0.5096
     13 O1         -5.4585    4.2915    0.0760 O.co2     1 <0>        -0.6081
     14 H2          2.0891    4.5218    0.0063 H         1 <0>         0.1254
     15 H3         -0.0181    5.7531    0.0321 H         1 <0>         0.1254
     16 H4         -2.9509    5.4078    0.0577 H         1 <0>         0.1504
     17 H5          2.0994    2.0632   -0.0062 H         1 <0>         0.1285
     18 O2         -5.4924    2.0702    0.0647 O.co2     1 <0>        -0.7491
@<TRIPOS>BOND
     1    1   10 ar
     2    1    2 ar
     3    1   14 1
     4    2    3 ar
     5    2   15 1
     6    3    8 ar
     7    3    4 1
     8    4    5 2
     9    4   16 1
    10    5    6 1
    11    5   12 1
    12    6    7 1
    13    6    8 1
    14    8    9 ar
    15    9   10 ar
    16    9   11 1
    17   10   17 1
    18   12   13 2
    19   12   18 1
@<TRIPOS>MOLECULE
ZINC13529957
   21    22     0     0     0
SMALL
USER_CHARGES
5-methoxybenzothiophene-2-carboxylic acid
@<TRIPOS>ATOM
      1 C1         -0.0127    1.0858    0.0080 C.3       1 <0>         0.0293
      2 O1         -0.6816    1.5467    1.1837 O.3       1 <0>        -0.3217
      3 C2         -0.7875    2.8926    1.3463 C.ar      1 <0>         0.1155
      4 C3         -0.2452    3.7415    0.3823 C.ar      1 <0>        -0.1945
      5 C4         -0.3549    5.1070    0.5414 C.ar      1 <0>        -0.0331
      6 C5         -0.9885    5.6173    1.6546 C.ar      1 <0>        -0.1715
      7 C6         -1.5458    4.7873    2.6557 C.ar      1 <0>        -0.0338
      8 C7         -1.4206    3.3872    2.4581 C.ar      1 <0>        -0.1215
      9 C8         -2.1577    5.4620    3.7269 C.2       1 <0>        -0.1585
     10 C9         -2.1826    6.8221    3.7468 C.2       1 <0>        -0.0962
     11 S1         -1.3348    7.2579    2.2384 S.3       1 <0>         0.0666
     12 C10        -2.7644    7.7120    4.7594 C.2       1 <0>         0.5224
     13 O2         -3.3131    7.2430    5.7377 O.co2     1 <0>        -0.6066
     14 H1          0.0021   -0.0041    0.0020 H         1 <0>         0.0959
     15 H2          1.0099    1.4631    0.0003 H         1 <0>         0.0533
     16 H3         -0.5399    1.4469   -0.8751 H         1 <0>         0.0533
     17 H4          0.2532    3.3329   -0.4843 H         1 <0>         0.1333
     18 H5          0.0580    5.7741   -0.2008 H         1 <0>         0.1301
     19 H6         -1.8273    2.7051    3.1900 H         1 <0>         0.1302
     20 H7         -2.6071    4.9012    4.5331 H         1 <0>         0.1403
     21 O3         -2.6901    9.0494    4.6044 O.co2     1 <0>        -0.7329
@<TRIPOS>BOND
     1    1    2 1
     2    1   14 1
     3    1   15 1
     4    1   16 1
     5    2    3 1
     6    3    8 ar
     7    3    4 ar
     8    4    5 ar
     9    4   17 1
    10    5    6 ar
    11    5   18 1
    12    6   11 1
    13    6    7 ar
    14    7    8 ar
    15    7    9 1
    16    8   19 1
    17    9   10 2
    18    9   20 1
    19   10   11 1
    20   10   12 1
    21   12   13 2
    22   12   21 1
@<TRIPOS>MOLECULE
ZINC00053963
   17    18     0     0     0
SMALL
USER_CHARGES
benzofuran-2-carboxylic acid
@<TRIPOS>ATOM
      1 C1          1.9228    7.5857    0.0209 C.ar      1 <0>        -0.1463
      2 C2          0.5346    7.5645    0.0336 C.ar      1 <0>        -0.1079
      3 C3         -0.1518    6.3696    0.0343 C.ar      1 <0>        -0.1059
      4 C4          0.5490    5.1689    0.0232 C.ar      1 <0>         0.0412
      5 C5          1.9561    5.1963    0.0104 C.ar      1 <0>        -0.1303
      6 C6          2.6329    6.4187    0.0094 C.ar      1 <0>        -0.0738
      7 C7          2.3798    3.7969   -0.0003 C.2       1 <0>        -0.1990
      8 C8          1.2390    3.0583    0.0067 C.2       1 <0>         0.0332
      9 O1          0.1664    3.8773    0.0154 O.3       1 <0>        -0.1703
     10 C9          1.1821    1.5914   -0.0007 C.2       1 <0>         0.5229
     11 O2          2.2106    0.9431   -0.0140 O.co2     1 <0>        -0.5990
     12 H1          2.4447    8.5312    0.0198 H         1 <0>         0.1228
     13 H2         -0.0135    8.4950    0.0426 H         1 <0>         0.1284
     14 H3         -1.2317    6.3659    0.0442 H         1 <0>         0.1285
     15 H4          3.7126    6.4408   -0.0008 H         1 <0>         0.1231
     16 H5          3.3938    3.4254   -0.0119 H         1 <0>         0.1599
     17 O3         -0.0110    0.9628    0.0073 O.co2     1 <0>        -0.7274
@<TRIPOS>BOND
     1    1    6 ar
     2    1    2 ar
     3    1   12 1
     4    2    3 ar
     5    2   13 1
     6    3    4 ar
     7    3   14 1
     8    4    9 1
     9    4    5 ar
    10    5    6 ar
    11    5    7 1
    12    6   15 1
    13    7    8 2
    14    7   16 1
    15    8    9 1
    16    8   10 1
    17   10   11 2
    18   10   17 1
@<TRIPOS>MOLECULE
ZINC01666662
   12    11     0     0     0
SMALL
USER_CHARGES
2,2,3,3-tetrafluorobutanedioic acid
@<TRIPOS>ATOM
      1 C1         -0.0184    1.5028    0.0103 C.2       1 <0>         0.4500
      2 O1         -1.0728    2.0926    0.0185 O.co2     1 <0>        -0.5870
      3 C2          0.0021   -0.0041    0.0020 C.3       1 <0>         0.2288
      4 C3         -1.3040   -0.5285   -0.5980 C.3       1 <0>         0.2290
      5 C4         -1.2836   -2.0354   -0.6063 C.2       1 <0>         0.4500
      6 O2         -0.5952   -2.6346    0.1856 O.co2     1 <0>        -0.5872
      7 F1         -2.3834   -0.0810    0.1713 F         1 <0>        -0.1779
      8 F2         -1.4378   -0.0568   -1.9082 F         1 <0>        -0.1844
      9 F3          1.0815   -0.4516   -0.7673 F         1 <0>        -0.1844
     10 F4          0.1359   -0.4758    1.3123 F         1 <0>        -0.1779
     11 O3         -2.0301   -2.7118   -1.4933 O.co2     1 <0>        -0.7294
     12 O4          1.1348    2.1897    0.0030 O.co2     1 <0>        -0.7295
@<TRIPOS>BOND
     1    1    2 2
     2    1    3 1
     3    1   12 1
     4    3    4 1
     5    3    9 1
     6    3   10 1
     7    4    5 1
     8    4    7 1
     9    4    8 1
    10    5    6 2
    11    5   11 1
@<TRIPOS>MOLECULE
ZINC00394746
   27    28     0     0     0
SMALL
USER_CHARGES
2-(4-hydroxybenzoyl)benzoic acid
@<TRIPOS>ATOM
      1 C1          0.5647    0.0227   -1.0033 C.ar      1 <0>        -0.1247
      2 C2          1.0224   -0.6146    0.1367 C.ar      1 <0>        -0.1247
      3 C3          1.5232    0.1192    1.1955 C.ar      1 <0>        -0.0808
      4 C4          1.5695    1.5089    1.1192 C.ar      1 <0>        -0.0857
      5 C5          1.1039    2.1574   -0.0406 C.ar      1 <0>        -0.1208
      6 C6          0.6023    1.4009   -1.0972 C.ar      1 <0>        -0.1060
      7 C7          1.1467    3.6325   -0.1362 C.2       1 <0>         0.4756
      8 O1          0.1283    4.2807    0.0074 O.2       1 <0>        -0.4615
      9 C8          2.4245    4.3170   -0.4058 C.ar      1 <0>        -0.1169
     10 C9          3.5750    3.5712   -0.6830 C.ar      1 <0>        -0.0478
     11 C10         4.7645    4.2145   -0.9393 C.ar      1 <0>        -0.1569
     12 C11         4.8260    5.6035   -0.9124 C.ar      1 <0>         0.1177
     13 C12         3.6860    6.3488   -0.6316 C.ar      1 <0>        -0.1586
     14 C13         2.4911    5.7140   -0.3793 C.ar      1 <0>        -0.0457
     15 O2          6.0018    6.2334   -1.1605 O.3       1 <0>        -0.5027
     16 C14         2.0985    2.2986    2.2512 C.2       1 <0>         0.4848
     17 O3          2.2151    3.5032    2.1493 O.co2     1 <0>        -0.6088
     18 H1          0.1755   -0.5607   -1.8246 H         1 <0>         0.1214
     19 H2          0.9877   -1.6923    0.1995 H         1 <0>         0.1209
     20 H3          1.8782   -0.3851    2.0821 H         1 <0>         0.1362
     21 H4          0.2434    1.8914   -1.9900 H         1 <0>         0.1212
     22 H5          3.5291    2.4923   -0.6997 H         1 <0>         0.1281
     23 H6          5.6523    3.6396   -1.1578 H         1 <0>         0.1287
     24 H7          3.7385    7.4273   -0.6111 H         1 <0>         0.1289
     25 H8          1.6062    6.2936   -0.1617 H         1 <0>         0.1334
     26 H9          6.5381    6.3904   -0.3713 H         1 <0>         0.3902
     27 O4          2.4513    1.6822    3.3958 O.co2     1 <0>        -0.7453
@<TRIPOS>BOND
     1    1    6 ar
     2    1    2 ar
     3    1   18 1
     4    2    3 ar
     5    2   19 1
     6    3    4 ar
     7    3   20 1
     8    4    5 ar
     9    4   16 1
    10    5    6 ar
    11    5    7 1
    12    6   21 1
    13    7    8 2
    14    7    9 1
    15    9   14 ar
    16    9   10 ar
    17   10   11 ar
    18   10   22 1
    19   11   12 ar
    20   11   23 1
    21   12   13 ar
    22   12   15 1
    23   13   14 ar
    24   13   24 1
    25   14   25 1
    26   15   26 1
    27   16   17 2
    28   16   27 1
@<TRIPOS>MOLECULE
ZINC13560833
   30    31     0     0     0
SMALL
USER_CHARGES
N-[4-hydroxy-3-(trifluoromethyl)phenyl]-1-methyl-cyclopropane-1-carboxamide
@<TRIPOS>ATOM
      1 C1          2.6929   -0.1094   -0.4500 C.3       1 <0>        -0.1161
      2 C2          2.3527    0.8152    0.7206 C.3       1 <0>        -0.1730
      3 C3          2.7994    0.3804    2.1178 C.3       1 <0>        -0.1456
      4 C4          3.5120    1.5357    1.4118 C.3       1 <0>        -0.1397
      5 C5          1.0436    1.5530    0.6068 C.2       1 <0>         0.5541
      6 O1          0.9391    2.6754    1.0548 O.2       1 <0>        -0.5164
      7 N1         -0.0111    0.9658    0.0074 N.am      1 <0>        -0.6691
      8 C6         -1.2526    1.6147   -0.0190 C.ar      1 <0>         0.1357
      9 C7         -1.3114    2.9977   -0.1292 C.ar      1 <0>        -0.0725
     10 C8         -2.5353    3.6360   -0.1604 C.ar      1 <0>        -0.1257
     11 C9         -3.7060    2.8969   -0.0705 C.ar      1 <0>         0.1468
     12 C10        -3.6479    1.5160    0.0454 C.ar      1 <0>        -0.1943
     13 C11        -2.4244    0.8757    0.0709 C.ar      1 <0>        -0.0840
     14 C12        -4.9200    0.7140    0.1430 C.3       1 <0>         0.5170
     15 F1         -4.6072   -0.6454    0.2507 F         1 <0>        -0.1777
     16 F2         -5.6403    1.1176    1.2724 F         1 <0>        -0.1765
     17 F3         -5.6935    0.9251   -1.0034 F         1 <0>        -0.1677
     18 O2         -4.9108    3.5265   -0.0964 O.3       1 <0>        -0.4891
     19 H1          3.1831    0.4649   -1.2361 H         1 <0>         0.0698
     20 H2          3.3609   -0.8994   -0.1068 H         1 <0>         0.0731
     21 H3          1.7770   -0.5525   -0.8411 H         1 <0>         0.0604
     22 H4          2.1465    0.6280    2.9547 H         1 <0>         0.1005
     23 H5          3.3358   -0.5647    2.2033 H         1 <0>         0.1091
     24 H6          4.5171    1.3507    1.0328 H         1 <0>         0.1075
     25 H7          3.3278    2.5434    1.7842 H         1 <0>         0.1099
     26 H8          0.0904    0.0958   -0.4094 H         1 <0>         0.4153
     27 H9         -0.4001    3.5735   -0.1951 H         1 <0>         0.1538
     28 H10        -2.5812    4.7113   -0.2502 H         1 <0>         0.1474
     29 H11        -2.3793   -0.1996    0.1612 H         1 <0>         0.1468
     30 H12        -5.2393    3.7834    0.7761 H         1 <0>         0.4000
@<TRIPOS>BOND
     1    1    2 1
     2    1   19 1
     3    1   20 1
     4    1   21 1
     5    2    4 1
     6    2    3 1
     7    2    5 1
     8    3    4 1
     9    3   22 1
    10    3   23 1
    11    4   24 1
    12    4   25 1
    13    5    6 2
    14    5    7 am
    15    7    8 1
    16    7   26 1
    17    8   13 ar
    18    8    9 ar
    19    9   10 ar
    20    9   27 1
    21   10   11 ar
    22   10   28 1
    23   11   12 ar
    24   11   18 1
    25   12   13 ar
    26   12   14 1
    27   13   29 1
    28   14   15 1
    29   14   16 1
    30   14   17 1
    31   18   30 1
@<TRIPOS>MOLECULE
ZINC02513070
   25    26     0     0     0
SMALL
USER_CHARGES
2-(4-fluorophenoxy)benzoic acid
@<TRIPOS>ATOM
      1 C1          3.4208   -1.2065    0.8988 C.ar      1 <0>        -0.1718
      2 C2          4.6429   -0.5599    0.9914 C.ar      1 <0>        -0.0876
      3 C3          4.7482    0.7821    0.6854 C.ar      1 <0>        -0.2175
      4 C4          3.6287    1.4921    0.2764 C.ar      1 <0>         0.1484
      5 C5          2.3890    0.8429    0.1869 C.ar      1 <0>        -0.1395
      6 C6          2.2973   -0.5162    0.4999 C.ar      1 <0>        -0.0430
      7 C7          1.1911    1.5878   -0.2404 C.2       1 <0>         0.4898
      8 O1          1.2750    2.7692   -0.5117 O.co2     1 <0>        -0.6124
      9 O2          3.7318    2.8091   -0.0304 O.3       1 <0>        -0.2166
     10 C8          4.9556    3.3928    0.0654 C.ar      1 <0>         0.0875
     11 C9          5.3531    3.9804    1.2577 C.ar      1 <0>        -0.1008
     12 C10         6.5998    4.5674    1.3556 C.ar      1 <0>        -0.1401
     13 C11         7.4474    4.5807    0.2608 C.ar      1 <0>         0.0868
     14 C12         7.0496    4.0001   -0.9316 C.ar      1 <0>        -0.1400
     15 C13         5.8061    3.4066   -1.0305 C.ar      1 <0>        -0.1009
     16 F1          8.6640    5.1604    0.3562 F         1 <0>        -0.1414
     17 H1          3.3488   -2.2568    1.1401 H         1 <0>         0.1191
     18 H2          5.5184   -1.1093    1.3047 H         1 <0>         0.1176
     19 H3          5.7043    1.2788    0.7601 H         1 <0>         0.1205
     20 H4          1.3471   -1.0245    0.4289 H         1 <0>         0.1384
     21 H5          4.6903    3.9744    2.1103 H         1 <0>         0.1418
     22 H6          6.9116    5.0203    2.2851 H         1 <0>         0.1399
     23 H7          7.7119    4.0109   -1.7846 H         1 <0>         0.1399
     24 H8          5.4963    2.9531   -1.9605 H         1 <0>         0.1418
     25 O3          0.0029    0.9586   -0.3303 O.co2     1 <0>        -0.7600
@<TRIPOS>BOND
     1    1    6 ar
     2    1    2 ar
     3    1   17 1
     4    2    3 ar
     5    2   18 1
     6    3    4 ar
     7    3   19 1
     8    4    5 ar
     9    4    9 1
    10    5    6 ar
    11    5    7 1
    12    6   20 1
    13    7    8 2
    14    7   25 1
    15    9   10 1
    16   10   15 ar
    17   10   11 ar
    18   11   12 ar
    19   11   21 1
    20   12   13 ar
    21   12   22 1
    22   13   14 ar
    23   13   16 1
    24   14   15 ar
    25   14   23 1
    26   15   24 1
