@<TRIPOS>MOLECULE
ZINC03842753
   31    32     0     0     0
SMALL
USER_CHARGES

@<TRIPOS>ATOM
      1 C1         -0.0165    1.3641    0.0095 C.2       1 <0>         0.2585
      2 C2          1.1473    2.0487    0.0021 C.2       1 <0>        -0.3658
      3 C3          2.3681    1.3318   -0.0134 C.2       1 <0>         0.5699
      4 O1          3.4303    1.9273   -0.0199 O.2       1 <0>        -0.4841
      5 N1          2.3436   -0.0163   -0.0204 N.am      1 <0>        -0.6526
      6 H1          3.1758   -0.5145   -0.0307 H         1 <0>         0.4396
      7 C4          1.1690   -0.6735   -0.0127 C.2       1 <0>         0.6993
      8 O2          1.1625   -1.8893   -0.0192 O.2       1 <0>        -0.5016
      9 N2          0.0021   -0.0041    0.0020 N.am      1 <0>        -0.5228
     10 C5         -1.2606   -0.7469    0.0106 C.3       1 <0>         0.2990
     11 H2         -2.1016   -0.0630    0.1241 H         1 <0>         0.1271
     12 C6         -1.4088   -1.5706   -1.2879 C.3       1 <0>        -0.1955
     13 C7         -2.0851   -2.8808   -0.8263 C.3       1 <0>         0.0856
     14 H3         -1.4415   -3.7360   -1.0325 H         1 <0>         0.0855
     15 C8         -2.2655   -2.6938    0.6965 C.3       1 <0>         0.0917
     16 H4         -3.2616   -2.3099    0.9163 H         1 <0>         0.0980
     17 O3         -1.2611   -1.7253    1.0730 O.3       1 <0>        -0.3438
     18 C9         -2.0331   -4.0180    1.4270 C.3       1 <0>         0.0846
     19 O4         -2.3177   -3.8513    2.8174 O.3       1 <0>        -0.5666
     20 O5         -3.3519   -3.0432   -1.4672 O.3       1 <0>        -0.5549
     21 C10         1.1468    3.5557    0.0097 C.3       1 <0>         0.5472
     22 F1          1.2739    4.0154    1.3249 F         1 <0>        -0.1694
     23 F2          2.2200    4.0262   -0.7545 F         1 <0>        -0.1581
     24 F3         -0.0539    4.0244   -0.5342 F         1 <0>        -0.1764
     25 H5         -0.9575    1.8939    0.0259 H         1 <0>         0.1964
     26 H6         -2.0418   -1.0454   -2.0031 H         1 <0>         0.1043
     27 H7         -0.4308   -1.7780   -1.7223 H         1 <0>         0.0986
     28 H8         -2.6892   -4.7825    1.0109 H         1 <0>         0.0698
     29 H9         -0.9943   -4.3239    1.3029 H         1 <0>         0.0610
     30 H10        -2.1915   -4.6528    3.3435 H         1 <0>         0.3859
     31 H11        -3.3001   -3.1057   -2.4307 H         1 <0>         0.3894
@<TRIPOS>BOND
     1    1    9 1
     2    1    2 2
     3    1   25 1
     4    2    3 1
     5    2   21 1
     6    3    4 2
     7    3    5 am
     8    5    6 1
     9    5    7 am
    10    7    8 2
    11    7    9 am
    12    9   10 1
    13   10   11 1
    14   10   17 1
    15   10   12 1
    16   12   13 1
    17   12   26 1
    18   12   27 1
    19   13   14 1
    20   13   15 1
    21   13   20 1
    22   15   16 1
    23   15   17 1
    24   15   18 1
    25   18   19 1
    26   18   28 1
    27   18   29 1
    28   19   30 1
    29   20   31 1
    30   21   22 1
    31   21   23 1
    32   21   24 1
@<TRIPOS>MOLECULE
ZINC03842753
   30    31     0     0     0
SMALL
USER_CHARGES

@<TRIPOS>ATOM
      1 C1         -0.0164    1.3574    0.0095 C.2       1 <0>         0.2065
      2 C2          1.1570    2.0359    0.0019 C.2       1 <0>        -0.3502
      3 C3          2.3637    1.3118   -0.0135 C.2       1 <0>         0.4894
      4 O1          3.5473    1.9645   -0.0208 O.3       1 <0>        -0.6509
      5 N1          2.3338   -0.0121   -0.0203 N.2       1 <0>        -0.6394
      6 C4          1.1731   -0.6670   -0.0127 C.2       1 <0>         0.6471
      7 O2          1.1723   -1.8868   -0.0193 O.2       1 <0>        -0.5717
      8 N2          0.0021   -0.0041    0.0020 N.am      1 <0>        -0.5361
      9 C5         -1.2585   -0.7505    0.0100 C.3       1 <0>         0.2946
     10 H1         -2.1015   -0.0690    0.1233 H         1 <0>         0.0977
     11 C6         -1.4038   -1.5745   -1.2885 C.3       1 <0>        -0.1883
     12 C7         -2.0765   -2.8868   -0.8272 C.3       1 <0>         0.0852
     13 H2         -1.4304   -3.7401   -1.0332 H         1 <0>         0.0814
     14 C8         -2.2581   -2.7003    0.6955 C.3       1 <0>         0.0917
     15 H3         -3.2554   -2.3192    0.9149 H         1 <0>         0.0865
     16 O3         -1.2567   -1.7289    1.0724 O.3       1 <0>        -0.3386
     17 C9         -2.0222   -4.0238    1.4260 C.3       1 <0>         0.0857
     18 O4         -2.3079   -3.8580    2.8163 O.3       1 <0>        -0.5662
     19 O5         -3.3426   -3.0527   -1.4686 O.3       1 <0>        -0.5614
     20 C10         1.1692    3.5428    0.0094 C.3       1 <0>         0.5372
     21 F1          1.3002    4.0016    1.3246 F         1 <0>        -0.1839
     22 F2          2.2463    4.0042   -0.7549 F         1 <0>        -0.1603
     23 F3         -0.0276    4.0216   -0.5344 F         1 <0>        -0.1973
     24 H4         -0.9554    1.8907    0.0258 H         1 <0>         0.1614
     25 H5         -2.0380   -1.0512   -2.0040 H         1 <0>         0.0896
     26 H6         -0.4251   -1.7792   -1.7225 H         1 <0>         0.1016
     27 H7         -2.6759   -4.7902    1.0096 H         1 <0>         0.0623
     28 H8         -0.9825   -4.3268    1.3024 H         1 <0>         0.0630
     29 H9         -2.1796   -4.6591    3.3425 H         1 <0>         0.3796
     30 H10        -3.2903   -3.1150   -2.4322 H         1 <0>         0.3836
@<TRIPOS>BOND
     1    1    8 1
     2    1    2 2
     3    1   24 1
     4    2    3 1
     5    2   20 1
     6    3    4 1
     7    3    5 2
     8    5    6 1
     9    6    7 2
    10    6    8 am
    11    8    9 1
    12    9   10 1
    13    9   16 1
    14    9   11 1
    15   11   12 1
    16   11   25 1
    17   11   26 1
    18   12   13 1
    19   12   14 1
    20   12   19 1
    21   14   15 1
    22   14   16 1
    23   14   17 1
    24   17   18 1
    25   17   27 1
    26   17   28 1
    27   18   29 1
    28   19   30 1
    29   20   21 1
    30   20   22 1
    31   20   23 1
@<TRIPOS>MOLECULE
ZINC03775013
   37    38     0     0     0
SMALL
USER_CHARGES
1-[4-hydroxy-5-(hydroxymethyl)tetrahydrofuran-2-yl]-5-propyl-pyrimidine-2,4-dione
@<TRIPOS>ATOM
      1 C1          8.6095    2.9334    2.2188 C.3       1 <0>        -0.1527
      2 C2          7.1918    3.1823    1.6999 C.3       1 <0>        -0.1208
      3 C3          6.2109    3.1784    2.8740 C.3       1 <0>        -0.0466
      4 C4          4.8146    3.4235    2.3629 C.2       1 <0>        -0.2520
      5 C5          3.9906    2.3867    2.0997 C.2       1 <0>         0.1689
      6 N1          2.7277    2.6269    1.6309 N.am      1 <0>        -0.5313
      7 C6          2.2956    3.8867    1.4402 C.2       1 <0>         0.6988
      8 O1          1.1678    4.0776    1.0279 O.2       1 <0>        -0.5265
      9 N2          3.0941    4.9387    1.6997 N.am      1 <0>        -0.6639
     10 H1          2.7566    5.8684    1.5522 H         1 <0>         0.4376
     11 C7          4.3473    4.7440    2.1577 C.2       1 <0>         0.5541
     12 O2          5.0703    5.6953    2.3932 O.2       1 <0>        -0.5067
     13 C8          1.8356    1.5020    1.3396 C.3       1 <0>         0.3055
     14 H2          2.3746    0.5618    1.4567 H         1 <0>         0.1208
     15 C9          0.6221    1.5320    2.2889 C.3       1 <0>        -0.1927
     16 C10        -0.5991    1.6164    1.3411 C.3       1 <0>         0.0843
     17 H3         -0.9379    2.6468    1.2341 H         1 <0>         0.0908
     18 C11        -0.0127    1.0858    0.0080 C.3       1 <0>         0.0965
     19 H4          0.0021   -0.0041    0.0020 H         1 <0>         0.0938
     20 O3          1.3315    1.6126   -0.0020 O.3       1 <0>        -0.3473
     21 C12        -0.8091    1.6187   -1.1847 C.3       1 <0>         0.0851
     22 O4         -0.2860    1.0635   -2.3931 O.3       1 <0>        -0.5675
     23 O5         -1.6605    0.7775    1.8010 O.3       1 <0>        -0.5546
     24 H5          9.3083    2.9362    1.3823 H         1 <0>         0.0555
     25 H6          8.8820    3.7199    2.9226 H         1 <0>         0.0563
     26 H7          8.6480    1.9669    2.7213 H         1 <0>         0.0546
     27 H8          6.9193    2.3958    0.9961 H         1 <0>         0.0607
     28 H9          7.1533    4.1488    1.1974 H         1 <0>         0.0649
     29 H10         6.4835    3.9649    3.5778 H         1 <0>         0.0833
     30 H11         6.2494    2.2119    3.3765 H         1 <0>         0.0769
     31 H12         4.3280    1.3725    2.2546 H         1 <0>         0.1790
     32 H13         0.5807    0.6198    2.8841 H         1 <0>         0.1034
     33 H14         0.6660    2.4075    2.9367 H         1 <0>         0.0908
     34 H15        -1.8562    1.3355   -1.0782 H         1 <0>         0.0690
     35 H16        -0.7283    2.7052   -1.2193 H         1 <0>         0.0599
     36 H17        -0.7441    1.3584   -3.1920 H         1 <0>         0.3842
     37 H18        -2.0598    1.0684    2.6323 H         1 <0>         0.3880
@<TRIPOS>BOND
     1    1    2 1
     2    1   24 1
     3    1   25 1
     4    1   26 1
     5    2    3 1
     6    2   27 1
     7    2   28 1
     8    3    4 1
     9    3   29 1
    10    3   30 1
    11    4   11 1
    12    4    5 2
    13    5    6 1
    14    5   31 1
    15    6    7 am
    16    6   13 1
    17    7    8 2
    18    7    9 am
    19    9   10 1
    20    9   11 am
    21   11   12 2
    22   13   14 1
    23   13   20 1
    24   13   15 1
    25   15   16 1
    26   15   32 1
    27   15   33 1
    28   16   17 1
    29   16   18 1
    30   16   23 1
    31   18   19 1
    32   18   20 1
    33   18   21 1
    34   21   22 1
    35   21   34 1
    36   21   35 1
    37   22   36 1
    38   23   37 1
@<TRIPOS>MOLECULE
ZINC03956771
   34    35     0     0     0
SMALL
USER_CHARGES

@<TRIPOS>ATOM
      1 C1         -0.0187    1.5258    0.0104 C.3       1 <0>        -0.1496
      2 C2          0.0021   -0.0041    0.0020 C.3       1 <0>        -0.0503
      3 C3         -1.4117   -0.5257    0.0127 C.2       1 <0>        -0.2509
      4 C4         -2.0276   -0.8567   -1.1424 C.2       1 <0>         0.1681
      5 N1         -3.3116   -1.3288   -1.1147 N.am      1 <0>        -0.5283
      6 C5         -3.9663   -1.4658    0.0527 C.2       1 <0>         0.6978
      7 O1         -5.1069   -1.8868    0.0544 O.2       1 <0>        -0.5208
      8 N2         -3.3762   -1.1438    1.2188 N.am      1 <0>        -0.6602
      9 H1         -3.8623   -1.2493    2.0515 H         1 <0>         0.4316
     10 C6         -2.1099   -0.6807    1.2345 C.2       1 <0>         0.5538
     11 O2         -1.5734   -0.3940    2.2895 O.2       1 <0>        -0.5058
     12 C7         -3.9799   -1.6879   -2.3679 C.3       1 <0>         0.3043
     13 H2         -3.3537   -1.4241   -3.2202 H         1 <0>         0.1199
     14 C8         -4.3085   -3.1972   -2.3888 C.3       1 <0>        -0.1941
     15 C9         -5.6796   -3.2731   -3.0971 C.3       1 <0>         0.0848
     16 H3         -6.4301   -3.6998   -2.4317 H         1 <0>         0.0836
     17 C10        -6.0171   -1.8007   -3.4204 C.3       1 <0>         0.0921
     18 H4         -5.7050   -1.5539   -4.4351 H         1 <0>         0.0952
     19 O3         -5.2609   -1.0276   -2.4618 O.3       1 <0>        -0.3456
     20 C11        -7.5164   -1.5480   -3.2491 C.3       1 <0>         0.0848
     21 O4         -7.8253   -0.2158   -3.6636 O.3       1 <0>        -0.5667
     22 O5         -5.5812   -4.0423   -4.2974 O.3       1 <0>        -0.5562
     23 H5          1.0039    1.9031    0.0027 H         1 <0>         0.0623
     24 H6         -0.5459    1.8868   -0.8726 H         1 <0>         0.0536
     25 H7         -0.5289    1.8773    0.9072 H         1 <0>         0.0577
     26 H8          0.5123   -0.3556   -0.8948 H         1 <0>         0.0771
     27 H9          0.5293   -0.3651    0.8851 H         1 <0>         0.0832
     28 H10        -1.5093   -0.7490   -2.0838 H         1 <0>         0.1796
     29 H11        -3.5551   -3.7443   -2.9554 H         1 <0>         0.1001
     30 H12        -4.3813   -3.5863   -1.3732 H         1 <0>         0.0969
     31 H13        -8.0764   -2.2572   -3.8585 H         1 <0>         0.0684
     32 H14        -7.7888   -1.6748   -2.2013 H         1 <0>         0.0606
     33 H15        -8.7609    0.0145   -3.5822 H         1 <0>         0.3849
     34 H16        -5.3135   -4.9606   -4.1552 H         1 <0>         0.3882
@<TRIPOS>BOND
     1    1    2 1
     2    1   23 1
     3    1   24 1
     4    1   25 1
     5    2    3 1
     6    2   26 1
     7    2   27 1
     8    3   10 1
     9    3    4 2
    10    4    5 1
    11    4   28 1
    12    5    6 am
    13    5   12 1
    14    6    7 2
    15    6    8 am
    16    8    9 1
    17    8   10 am
    18   10   11 2
    19   12   13 1
    20   12   19 1
    21   12   14 1
    22   14   15 1
    23   14   29 1
    24   14   30 1
    25   15   16 1
    26   15   17 1
    27   15   22 1
    28   17   18 1
    29   17   19 1
    30   17   20 1
    31   20   21 1
    32   20   31 1
    33   20   32 1
    34   21   33 1
    35   22   34 1
@<TRIPOS>MOLECULE
ZINC05223557
   28    29     0     0     0
SMALL
USER_CHARGES
4-hydroxy-1-[4-hydroxy-5-(hydroxymethyl)tetrahydrofuran-2-yl]-5-iodo-pyrimidin-2-one
@<TRIPOS>ATOM
      1 C1          2.3828    0.0367   -0.0205 C.2       1 <0>         0.2384
      2 C2          1.2346   -0.6842   -0.0134 C.2       1 <0>        -0.2753
      3 C3          0.0021   -0.0041    0.0020 C.2       1 <0>         0.5136
      4 N1         -0.0159    1.3200    0.0093 N.am      1 <0>        -0.6083
      5 C4          1.1202    2.0167    0.0022 C.2       1 <0>         0.6993
      6 O1          1.0767    3.2357    0.0087 O.2       1 <0>        -0.5221
      7 N2          2.3147    1.3969   -0.0125 N.am      1 <0>        -0.5232
      8 C5          3.5471    2.1889   -0.0201 C.3       1 <0>         0.3062
      9 H1          3.6148    2.7908    0.8861 H         1 <0>         0.1236
     10 C6          3.5948    3.0976   -1.2742 C.3       1 <0>        -0.1969
     11 C7          5.1259    3.3071   -1.4283 C.3       1 <0>         0.0838
     12 H2          5.4720    4.1218   -0.7922 H         1 <0>         0.0896
     13 C8          5.6917    1.9526   -0.9503 C.3       1 <0>         0.0914
     14 H3          5.9154    1.3211   -1.8102 H         1 <0>         0.1123
     15 O2          4.6917    1.3288   -0.1363 O.3       1 <0>        -0.3577
     16 C9          6.9628    2.1814   -0.1301 C.3       1 <0>         0.0696
     17 O3          7.5439    0.9209    0.2097 O.3       1 <0>        -0.5637
     18 O4          5.4712    3.5491   -2.7937 O.3       1 <0>        -0.5482
     19 O5         -1.1571   -0.6991    0.0098 O.2       1 <0>        -0.5487
     20 I1          1.2935   -2.7783   -0.0259 I         1 <0>         0.0496
     21 H4          3.3407   -0.4621   -0.0320 H         1 <0>         0.1984
     22 H5          3.1783    2.5892   -2.1437 H         1 <0>         0.0991
     23 H6          3.0844    4.0436   -1.0934 H         1 <0>         0.1160
     24 H7          7.6740    2.7630   -0.7167 H         1 <0>         0.0687
     25 H8          6.7140    2.7244    0.7817 H         1 <0>         0.0553
     26 H9          8.3552    0.9896    0.7313 H         1 <0>         0.3858
     27 H10         5.0666    4.3443   -3.1667 H         1 <0>         0.3927
     28 H11        -0.8917    1.8025    0.0203 H         1 <0>         0.4507
@<TRIPOS>BOND
     1    1    7 1
     2    1    2 2
     3    1   21 1
     4    2    3 1
     5    2   20 1
     6    3    4 am
     7    3   19 2
     8    4    5 am
     9    4   28 1
    10    5    7 am
    11    5    6 2
    12    7    8 1
    13    8    9 1
    14    8   15 1
    15    8   10 1
    16   10   11 1
    17   10   22 1
    18   10   23 1
    19   11   12 1
    20   11   13 1
    21   11   18 1
    22   13   14 1
    23   13   15 1
    24   13   16 1
    25   16   17 1
    26   16   24 1
    27   16   25 1
    28   17   26 1
    29   18   27 1
@<TRIPOS>MOLECULE
ZINC00025672
   31    32     0     0     0
SMALL
USER_CHARGES

@<TRIPOS>ATOM
      1 C1         -0.0184    1.5028    0.0103 C.3       1 <0>        -0.0863
      2 C2          0.0021   -0.0041    0.0020 C.2       1 <0>        -0.2538
      3 C3         -1.1526   -0.7039    0.0037 C.2       1 <0>         0.1657
      4 N1         -1.1160   -2.0718   -0.0039 N.am      1 <0>        -0.5281
      5 C4          0.0598   -2.7257   -0.0125 C.2       1 <0>         0.6976
      6 O1          0.0693   -3.9416   -0.0187 O.2       1 <0>        -0.5208
      7 N2          1.2256   -2.0531   -0.0148 N.am      1 <0>        -0.6597
      8 H1          2.0644   -2.5402   -0.0217 H         1 <0>         0.4318
      9 C5          1.2322   -0.7047   -0.0135 C.2       1 <0>         0.5530
     10 O2          2.2865   -0.0953   -0.0208 O.2       1 <0>        -0.5075
     11 C6         -2.3687   -2.8312   -0.0021 C.3       1 <0>         0.3043
     12 H2         -3.2193   -2.1584    0.1071 H         1 <0>         0.1201
     13 C7         -2.4992   -3.6565   -1.3014 C.3       1 <0>        -0.1941
     14 C8         -3.1605   -4.9757   -0.8435 C.3       1 <0>         0.0849
     15 H3         -2.5046   -5.8223   -1.0463 H         1 <0>         0.0837
     16 C9         -3.3514   -4.7913    0.6783 C.3       1 <0>         0.0921
     17 H4         -4.3537   -4.4206    0.8929 H         1 <0>         0.0953
     18 O3         -2.3620   -3.8096    1.0602 O.3       1 <0>        -0.3458
     19 C10        -3.1055   -6.1124    1.4099 C.3       1 <0>         0.0848
     20 O4         -3.3996   -5.9498    2.7988 O.3       1 <0>        -0.5667
     21 O5         -4.4217   -5.1546   -1.4911 O.3       1 <0>        -0.5561
     22 H5          1.0042    1.8801    0.0026 H         1 <0>         0.0818
     23 H6         -0.5455    1.8639   -0.8728 H         1 <0>         0.0721
     24 H7         -0.5286    1.8543    0.9071 H         1 <0>         0.0725
     25 H8         -2.1006   -0.1866    0.0113 H         1 <0>         0.1802
     26 H9         -3.1353   -3.1397   -2.0199 H         1 <0>         0.1001
     27 H10        -1.5163   -3.8510   -1.7306 H         1 <0>         0.0968
     28 H11        -3.7492   -6.8855    0.9903 H         1 <0>         0.0684
     29 H12        -2.0621   -6.4046    1.2913 H         1 <0>         0.0606
     30 H13        -3.2657   -6.7496    3.3255 H         1 <0>         0.3849
     31 H14        -4.3640   -5.2163   -2.4544 H         1 <0>         0.3883
@<TRIPOS>BOND
     1    1    2 1
     2    1   22 1
     3    1   23 1
     4    1   24 1
     5    2    9 1
     6    2    3 2
     7    3    4 1
     8    3   25 1
     9    4    5 am
    10    4   11 1
    11    5    6 2
    12    5    7 am
    13    7    8 1
    14    7    9 am
    15    9   10 2
    16   11   12 1
    17   11   18 1
    18   11   13 1
    19   13   14 1
    20   13   26 1
    21   13   27 1
    22   14   15 1
    23   14   16 1
    24   14   21 1
    25   16   17 1
    26   16   18 1
    27   16   19 1
    28   19   20 1
    29   19   28 1
    30   19   29 1
    31   20   30 1
    32   21   31 1
@<TRIPOS>MOLECULE
ZINC03834173
   28    29     0     0     0
SMALL
USER_CHARGES

@<TRIPOS>ATOM
      1 C1         -0.0165    1.3646    0.0095 C.2       1 <0>         0.2265
      2 C2          1.1476    2.0491    0.0021 C.2       1 <0>        -0.2908
      3 C3          2.3685    1.3317   -0.0134 C.2       1 <0>         0.5621
      4 O1          3.4310    1.9268   -0.0200 O.2       1 <0>        -0.4882
      5 N1          2.3437   -0.0164   -0.0204 N.am      1 <0>        -0.6538
      6 H1          3.1758   -0.5148   -0.0310 H         1 <0>         0.4363
      7 C4          1.1690   -0.6735   -0.0123 C.2       1 <0>         0.6992
      8 O2          1.1624   -1.8894   -0.0183 O.2       1 <0>        -0.5092
      9 N2          0.0021   -0.0041    0.0020 N.am      1 <0>        -0.5248
     10 C5         -1.2606   -0.7469    0.0106 C.3       1 <0>         0.3015
     11 H2         -2.1016   -0.0630    0.1241 H         1 <0>         0.1235
     12 C6         -1.4087   -1.5706   -1.2879 C.3       1 <0>        -0.1948
     13 C7         -2.0850   -2.8809   -0.8263 C.3       1 <0>         0.0854
     14 H3         -1.4414   -3.7361   -1.0325 H         1 <0>         0.0848
     15 C8         -2.2655   -2.6939    0.6965 C.3       1 <0>         0.0918
     16 H4         -3.2616   -2.3099    0.9163 H         1 <0>         0.0969
     17 O3         -1.2611   -1.7253    1.0730 O.3       1 <0>        -0.3443
     18 C9         -2.0330   -4.0180    1.4270 C.3       1 <0>         0.0848
     19 O4         -2.3177   -3.8513    2.8174 O.3       1 <0>        -0.5666
     20 O5         -3.3519   -3.0432   -1.4672 O.3       1 <0>        -0.5553
     21 I1          1.1474    4.1441    0.0127 I         1 <0>         0.0441
     22 H5         -0.9574    1.8944    0.0259 H         1 <0>         0.1861
     23 H6         -2.0418   -1.0454   -2.0031 H         1 <0>         0.1025
     24 H7         -0.4308   -1.7780   -1.7223 H         1 <0>         0.0979
     25 H8         -2.6891   -4.7825    1.0109 H         1 <0>         0.0692
     26 H9         -0.9942   -4.3239    1.3029 H         1 <0>         0.0608
     27 H10        -2.1915   -4.6528    3.3435 H         1 <0>         0.3855
     28 H11        -3.3001   -3.1057   -2.4307 H         1 <0>         0.3889
@<TRIPOS>BOND
     1    1    9 1
     2    1    2 2
     3    1   22 1
     4    2    3 1
     5    2   21 1
     6    3    4 2
     7    3    5 am
     8    5    6 1
     9    5    7 am
    10    7    8 2
    11    7    9 am
    12    9   10 1
    13   10   11 1
    14   10   17 1
    15   10   12 1
    16   12   13 1
    17   12   23 1
    18   12   24 1
    19   13   14 1
    20   13   15 1
    21   13   20 1
    22   15   16 1
    23   15   17 1
    24   15   18 1
    25   18   19 1
    26   18   25 1
    27   18   26 1
    28   19   27 1
    29   20   28 1
