@<TRIPOS>MOLECULE
ZINC03811810
   48    51     0     0     0
SMALL
USER_CHARGES

@<TRIPOS>ATOM
      1 C1         -0.0178    1.4608    0.0101 C.3       1 <0>         0.0858
      2 N1          0.0021   -0.0041    0.0020 N.am      1 <0>        -0.7308
      3 C2         -1.1558   -0.6938    0.0094 C.2       1 <0>         0.5149
      4 O1         -2.2142   -0.1017    0.0227 O.2       1 <0>        -0.5024
      5 C3         -1.1354   -2.2006    0.0011 C.3       1 <0>         0.0320
      6 H1         -0.5471   -2.5799    0.8366 H         1 <0>         0.1225
      7 C4         -0.5782   -2.7315   -1.3443 C.3       1 <0>         0.0506
      8 H2         -0.9118   -2.1105   -2.1757 H         1 <0>         0.0948
      9 C5         -1.2083   -4.1435   -1.4217 C.3       1 <0>         0.0832
     10 H3         -1.5347   -4.3603   -2.4388 H         1 <0>         0.0899
     11 C6         -2.4187   -4.0695   -0.4709 C.3       1 <0>         0.3144
     12 H4         -2.2882   -4.7738    0.3507 H         1 <0>         0.1316
     13 O2         -2.4789   -2.7275    0.0446 O.3       1 <0>        -0.3270
     14 N2         -3.6479   -4.3821   -1.2041 N.pl3     1 <0>        -0.4753
     15 C7         -4.4978   -3.4819   -1.7747 C.2       1 <0>         0.2660
     16 N3         -5.4881   -4.1049   -2.3448 N.2       1 <0>        -0.4586
     17 C8         -5.3371   -5.4406   -2.1768 C.ar      1 <0>        -0.1040
     18 C9         -4.1517   -5.6348   -1.4476 C.ar      1 <0>         0.3101
     19 N4         -3.7707   -6.8732   -1.1522 N.ar      1 <0>        -0.5538
     20 C10        -4.4895   -7.9064   -1.5380 C.ar      1 <0>         0.3661
     21 N5         -5.6079   -7.7739   -2.2273 N.ar      1 <0>        -0.5871
     22 C11        -6.0726   -6.5743   -2.5614 C.ar      1 <0>         0.5073
     23 N6         -7.2452   -6.4456   -3.2850 N.pl3     1 <0>        -0.6904
     24 C12        -7.9987   -7.6392   -3.6772 C.3       1 <0>         0.1703
     25 C13        -9.2253   -7.2276   -4.4499 C.ar      1 <0>        -0.1092
     26 C14       -10.4099   -6.9750   -3.7831 C.ar      1 <0>        -0.0788
     27 C15       -11.5351   -6.5975   -4.4915 C.ar      1 <0>        -0.1155
     28 C16       -11.4764   -6.4722   -5.8670 C.ar      1 <0>        -0.0754
     29 C17       -10.2918   -6.7247   -6.5341 C.ar      1 <0>        -0.1026
     30 C18        -9.1645   -7.0970   -5.8244 C.ar      1 <0>        -0.0641
     31 I1        -10.2026   -6.5356   -8.6187 I         1 <0>        -0.0379
     32 O3         -0.2777   -5.1316   -0.9750 O.3       1 <0>        -0.5314
     33 O4          0.8483   -2.8101   -1.3100 O.3       1 <0>        -0.5362
     34 H5          1.0048    1.8381    0.0023 H         1 <0>         0.0830
     35 H6         -0.5450    1.8219   -0.8730 H         1 <0>         0.0653
     36 H7         -0.5280    1.8123    0.9069 H         1 <0>         0.0657
     37 H8          0.8486   -0.4776   -0.0086 H         1 <0>         0.3996
     38 H9         -4.3686   -2.4098   -1.7561 H         1 <0>         0.2242
     39 H10        -4.1517   -8.8996   -1.2813 H         1 <0>         0.2060
     40 H11        -7.5682   -5.5651   -3.5326 H         1 <0>         0.4195
     41 H12        -7.3721   -8.2754   -4.3023 H         1 <0>         0.0825
     42 H13        -8.2988   -8.1888   -2.7851 H         1 <0>         0.0840
     43 H14       -10.4561   -7.0732   -2.7086 H         1 <0>         0.1321
     44 H15       -12.4604   -6.4006   -3.9704 H         1 <0>         0.1349
     45 H16       -12.3557   -6.1775   -6.4205 H         1 <0>         0.1316
     46 H17        -8.2379   -7.2896   -6.3447 H         1 <0>         0.1313
     47 H18         0.5294   -5.1801   -1.5054 H         1 <0>         0.3970
     48 H19         1.2858   -1.9588   -1.1720 H         1 <0>         0.3844
@<TRIPOS>BOND
     1    1    2 1
     2    1   34 1
     3    1   35 1
     4    1   36 1
     5    2    3 am
     6    2   37 1
     7    3    4 2
     8    3    5 1
     9    5    6 1
    10    5   13 1
    11    5    7 1
    12    7    8 1
    13    7    9 1
    14    7   33 1
    15    9   10 1
    16    9   11 1
    17    9   32 1
    18   11   12 1
    19   11   13 1
    20   11   14 1
    21   14   18 1
    22   14   15 1
    23   15   16 2
    24   15   38 1
    25   16   17 1
    26   17   22 ar
    27   17   18 ar
    28   18   19 ar
    29   19   20 ar
    30   20   21 ar
    31   20   39 1
    32   21   22 ar
    33   22   23 1
    34   23   24 1
    35   23   40 1
    36   24   25 1
    37   24   41 1
    38   24   42 1
    39   25   30 ar
    40   25   26 ar
    41   26   27 ar
    42   26   43 1
    43   27   28 ar
    44   27   44 1
    45   28   29 ar
    46   28   45 1
    47   29   30 ar
    48   29   31 1
    49   30   46 1
    50   32   47 1
    51   33   48 1
@<TRIPOS>MOLECULE
ZINC03995845
   48    51     0     0     0
SMALL
USER_CHARGES
5-[2-chloro-6-[(3-iodophenyl)methylamino]purin-9-yl]-3,4-dihydroxy-N-methyl-tetrahydrofuran-2-carboxamide
@<TRIPOS>ATOM
      1 C1         -3.5156   -0.8102    1.9233 C.3       1 <0>         0.0861
      2 N1         -2.6417    0.1999    1.3215 N.am      1 <0>        -0.7300
      3 C2         -1.5096    0.5727    1.9507 C.2       1 <0>         0.5159
      4 O1         -1.2144    0.0718    3.0151 O.2       1 <0>        -0.5022
      5 C3         -0.6107    1.6118    1.3317 C.3       1 <0>         0.0319
      6 H1         -1.1613    2.5364    1.1584 H         1 <0>         0.1217
      7 C4         -0.0127    1.0858    0.0080 C.3       1 <0>         0.0511
      8 H2          0.0021   -0.0041    0.0020 H         1 <0>         0.0923
      9 C5          1.4269    1.6468   -0.0027 C.3       1 <0>         0.0805
     10 H3          2.1534    0.8343   -0.0140 H         1 <0>         0.0905
     11 C6          1.5284    2.4454    1.3158 C.3       1 <0>         0.3123
     12 H4          1.3078    3.4982    1.1397 H         1 <0>         0.1301
     13 O2          0.5316    1.8583    2.1804 O.3       1 <0>        -0.3264
     14 N2          2.8630    2.2959    1.9011 N.pl3     1 <0>        -0.4705
     15 C7          3.2280    1.3965    2.8585 C.2       1 <0>         0.2840
     16 N3          4.4896    1.5386    3.1441 N.2       1 <0>        -0.4479
     17 C8          5.0109    2.5415    2.3970 C.ar      1 <0>        -0.0590
     18 C9          3.9735    3.0393    1.5906 C.ar      1 <0>         0.3145
     19 N4          4.2284    4.0408    0.7548 N.ar      1 <0>        -0.5110
     20 C10         5.4360    4.5628    0.6810 C.ar      1 <0>         0.4116
     21 N5          6.4423    4.1279    1.4192 N.ar      1 <0>        -0.5534
     22 C11         6.2816    3.1303    2.2825 C.ar      1 <0>         0.4581
     23 N6          7.3414    2.6815    3.0508 N.pl3     1 <0>        -0.5899
     24 C12         8.6593    3.3075    2.9179 C.3       1 <0>         0.1056
     25 C13         9.6298    2.6396    3.8576 C.ar      1 <0>        -0.0890
     26 C14        10.3623    1.5466    3.4327 C.ar      1 <0>        -0.0720
     27 C15        11.2531    0.9343    4.2939 C.ar      1 <0>        -0.1148
     28 C16        11.4113    1.4139    5.5808 C.ar      1 <0>        -0.0782
     29 C17        10.6786    2.5066    6.0062 C.ar      1 <0>        -0.0999
     30 C18         9.7917    3.1230    5.1421 C.ar      1 <0>        -0.0750
     31 I1         10.9181    3.2339    7.9562 I         1 <0>        -0.0401
     32 Cl1         5.7156    5.8697   -0.4269 Cl        1 <0>         0.0391
     33 O3          1.6201    2.5086   -1.1262 O.3       1 <0>        -0.5236
     34 O4         -0.7516    1.5814   -1.1102 O.3       1 <0>        -0.5325
     35 H5         -2.9634   -1.7420    2.0457 H         1 <0>         0.0652
     36 H6         -3.8585   -0.4605    2.8971 H         1 <0>         0.0657
     37 H7         -4.3752   -0.9798    1.2749 H         1 <0>         0.0828
     38 H8         -2.8779    0.6005    0.4703 H         1 <0>         0.4001
     39 H9          2.5679    0.6715    3.3114 H         1 <0>         0.2324
     40 H10         7.1195    2.7889    4.0199 H         1 <0>         0.3725
     41 H11         9.0121    3.1974    1.8925 H         1 <0>         0.0987
     42 H12         8.5850    4.3666    3.1648 H         1 <0>         0.0697
     43 H13        10.2386    1.1715    2.4275 H         1 <0>         0.1318
     44 H14        11.8255    0.0808    3.9616 H         1 <0>         0.1339
     45 H15        12.1075    0.9354    6.2537 H         1 <0>         0.1305
     46 H16         9.2225    3.9793    5.4726 H         1 <0>         0.1288
     47 H17         1.5077    2.0712   -1.9813 H         1 <0>         0.3936
     48 H18        -1.6713    1.2840   -1.1370 H         1 <0>         0.3843
@<TRIPOS>BOND
     1    1    2 1
     2    1   35 1
     3    1   36 1
     4    1   37 1
     5    2    3 am
     6    2   38 1
     7    3    4 2
     8    3    5 1
     9    5    6 1
    10    5   13 1
    11    5    7 1
    12    7    8 1
    13    7    9 1
    14    7   34 1
    15    9   10 1
    16    9   11 1
    17    9   33 1
    18   11   12 1
    19   11   13 1
    20   11   14 1
    21   14   18 1
    22   14   15 1
    23   15   16 2
    24   15   39 1
    25   16   17 1
    26   17   22 ar
    27   17   18 ar
    28   18   19 ar
    29   19   20 ar
    30   20   21 ar
    31   20   32 1
    32   21   22 ar
    33   22   23 1
    34   23   24 1
    35   23   40 1
    36   24   25 1
    37   24   41 1
    38   24   42 1
    39   25   30 ar
    40   25   26 ar
    41   26   27 ar
    42   26   43 1
    43   27   28 ar
    44   27   44 1
    45   28   29 ar
    46   28   45 1
    47   29   30 ar
    48   29   31 1
    49   30   46 1
    50   33   47 1
    51   34   48 1
@<TRIPOS>MOLECULE
ZINC01486608
   53    56     0     0     0
SMALL
USER_CHARGES
1-[2-(2-hydroxyethyl)-1-piperidyl]-3-(8-phenyl-6,7-diazabicyclo[4.3.0]nona-2,4,7,9-tetraen-9-yl)-prop-2-en-1-one
@<TRIPOS>ATOM
      1 C1          1.1382    1.4278   -0.1982 C.ar      1 <0>        -0.1039
      2 C2         -0.0778    2.0426   -0.4368 C.ar      1 <0>        -0.1227
      3 C3         -1.2069    1.2813   -0.6602 C.ar      1 <0>        -0.0860
      4 C4         -1.1203   -0.1101   -0.6451 C.ar      1 <0>        -0.0282
      5 C5          0.1080   -0.7241   -0.4041 C.ar      1 <0>        -0.0821
      6 C6          1.2302    0.0476   -0.1820 C.ar      1 <0>        -0.1197
      7 C7         -2.3295   -0.9335   -0.8840 C.2       1 <0>         0.1774
      8 C8         -2.3657   -2.1730   -1.5695 C.2       1 <0>        -0.2454
      9 C9         -3.7088   -2.6022   -1.5611 C.2       1 <0>         0.1326
     10 C10        -4.3460   -3.7376   -2.0763 C.2       1 <0>        -0.1177
     11 C11        -5.6943   -3.8780   -1.9140 C.2       1 <0>        -0.0700
     12 C12        -6.4129   -2.8843   -1.2360 C.2       1 <0>        -0.1594
     13 C13        -5.7771   -1.7960   -0.7463 C.2       1 <0>         0.1138
     14 N1         -4.4316   -1.6464   -0.9032 N.pl3     1 <0>        -0.2637
     15 N2         -3.5519   -0.6343   -0.5003 N.2       1 <0>        -0.3080
     16 C14        -1.2666   -2.8501   -2.1483 C.2       1 <0>         0.0458
     17 C15        -0.4194   -2.1857   -2.9771 C.2       1 <0>        -0.2349
     18 C16         0.6773   -2.8613   -3.5547 C.2       1 <0>         0.5553
     19 O1          0.9203   -4.0119   -3.2363 O.2       1 <0>        -0.5398
     20 N3          1.4556   -2.2335   -4.4583 N.am      1 <0>        -0.6069
     21 C17         1.2441   -0.8134   -4.7703 C.3       1 <0>         0.1064
     22 C18         1.0793   -0.6549   -6.2807 C.3       1 <0>        -0.1372
     23 C19         2.2805   -1.2829   -6.9913 C.3       1 <0>        -0.1204
     24 C20         2.3449   -2.7766   -6.6648 C.3       1 <0>        -0.1358
     25 C21         2.5277   -2.9577   -5.1546 C.3       1 <0>         0.1527
     26 H1          3.4953   -2.5566   -4.8530 H         1 <0>         0.0718
     27 C22         2.4560   -4.4445   -4.8009 C.3       1 <0>        -0.1107
     28 C23         3.5468   -5.2025   -5.5601 C.3       1 <0>         0.0680
     29 O2          3.5569   -6.5688   -5.1414 O.3       1 <0>        -0.5705
     30 H2          2.0191    2.0277   -0.0235 H         1 <0>         0.1255
     31 H3         -0.1436    3.1206   -0.4486 H         1 <0>         0.1274
     32 H4         -2.1548    1.7623   -0.8508 H         1 <0>         0.1265
     33 H5          0.1809   -1.8015   -0.3909 H         1 <0>         0.1272
     34 H6          2.1823   -0.4269    0.0045 H         1 <0>         0.1273
     35 H7         -3.7771   -4.4939   -2.5967 H         1 <0>         0.1518
     36 H8         -6.2024   -4.7474   -2.3045 H         1 <0>         0.1470
     37 H9         -7.4797   -2.9883   -1.1036 H         1 <0>         0.1600
     38 H10        -6.3417   -1.0369   -0.2254 H         1 <0>         0.1727
     39 H11        -1.1010   -3.8950   -1.9313 H         1 <0>         0.1326
     40 H12        -0.5850   -1.1408   -3.1941 H         1 <0>         0.1249
     41 H13         0.3449   -0.4586   -4.2667 H         1 <0>         0.0896
     42 H14         2.1049   -0.2338   -4.4367 H         1 <0>         0.0696
     43 H15         1.0204    0.4040   -6.5323 H         1 <0>         0.0762
     44 H16         0.1653   -1.1560   -6.5994 H         1 <0>         0.0673
     45 H17         3.1963   -0.7976   -6.6541 H         1 <0>         0.0650
     46 H18         2.1748   -1.1508   -8.0681 H         1 <0>         0.0667
     47 H19         3.1868   -3.2278   -7.1898 H         1 <0>         0.0752
     48 H20         1.4193   -3.2586   -6.9795 H         1 <0>         0.0685
     49 H21         2.6052   -4.5705   -3.7285 H         1 <0>         0.1037
     50 H22         1.4786   -4.8377   -5.0804 H         1 <0>         0.0754
     51 H23         3.3466   -5.1520   -6.6304 H         1 <0>         0.0414
     52 H24         4.5164   -4.7510   -5.3501 H         1 <0>         0.0406
     53 H25         4.2255   -7.1104   -5.5827 H         1 <0>         0.3770
@<TRIPOS>BOND
     1    1    6 ar
     2    1    2 ar
     3    1   30 1
     4    2    3 ar
     5    2   31 1
     6    3    4 ar
     7    3   32 1
     8    4    5 ar
     9    4    7 1
    10    5    6 ar
    11    5   33 1
    12    6   34 1
    13    7   15 2
    14    7    8 1
    15    8    9 2
    16    8   16 1
    17    9   14 1
    18    9   10 1
    19   10   11 2
    20   10   35 1
    21   11   12 1
    22   11   36 1
    23   12   13 2
    24   12   37 1
    25   13   14 1
    26   13   38 1
    27   14   15 1
    28   16   17 2
    29   16   39 1
    30   17   18 1
    31   17   40 1
    32   18   19 2
    33   18   20 am
    34   20   25 1
    35   20   21 1
    36   21   22 1
    37   21   41 1
    38   21   42 1
    39   22   23 1
    40   22   43 1
    41   22   44 1
    42   23   24 1
    43   23   45 1
    44   23   46 1
    45   24   25 1
    46   24   47 1
    47   24   48 1
    48   25   26 1
    49   25   27 1
    50   27   28 1
    51   27   49 1
    52   27   50 1
    53   28   29 1
    54   28   51 1
    55   28   52 1
    56   29   53 1
@<TRIPOS>MOLECULE
ZINC18207215
   54    58     0     0     0
SMALL
USER_CHARGES

@<TRIPOS>ATOM
      1 C1         -0.0187    1.5258    0.0104 C.3       1 <0>        -0.1472
      2 C2          0.0021   -0.0041    0.0020 C.3       1 <0>        -0.1379
      3 C3         -1.4333   -0.5336    0.0129 C.3       1 <0>         0.1191
      4 N1         -1.4134   -1.9985    0.0048 N.am      1 <0>        -0.5073
      5 C4         -1.3926   -2.6965    1.2014 C.2       1 <0>         0.3253
      6 C5         -1.3745   -4.0853    1.1673 C.2       1 <0>        -0.1553
      7 C6         -1.3778   -4.7426   -0.0818 C.2       1 <0>         0.5939
      8 O1         -1.3626   -5.9592   -0.1378 O.2       1 <0>        -0.5125
      9 N2         -1.3985   -4.0075   -1.2131 N.am      1 <0>        -0.5487
     10 C7         -1.4211   -2.6644   -1.1653 C.2       1 <0>         0.7072
     11 O2         -1.4445   -2.0347   -2.2054 O.2       1 <0>        -0.5296
     12 C8         -1.4021   -4.6834   -2.5128 C.3       1 <0>         0.1138
     13 C9         -2.8457   -4.9379   -2.9514 C.3       1 <0>        -0.1378
     14 C10        -2.8494   -5.6438   -4.3088 C.3       1 <0>        -0.1472
     15 N3         -1.3562   -4.5039    2.4827 N.pl3     1 <0>        -0.5130
     16 C11        -1.3635   -3.3955    3.2487 C.2       1 <0>         0.3244
     17 N4         -1.3850   -2.3321    2.4862 N.2       1 <0>        -0.4864
     18 H1         -1.3410   -5.4217    2.7960 H         1 <0>         0.4346
     19 C12        -1.3491   -3.3823    4.7555 C.3       1 <0>         0.0007
     20 C13        -0.3830   -4.4298    5.3831 C.3       1 <0>        -0.1187
     21 C14        -0.1207   -3.7936    6.7774 C.3       1 <0>        -0.0896
     22 H2          0.6849   -4.2848    7.3232 H         1 <0>         0.0922
     23 C15        -1.4390   -3.7841    7.5562 C.3       1 <0>        -0.1073
     24 C16        -2.5864   -3.0979    6.8097 C.3       1 <0>        -0.0926
     25 H3         -3.5164   -3.0994    7.3782 H         1 <0>         0.0936
     26 C17        -2.7211   -3.7395    5.3994 C.3       1 <0>        -0.1093
     27 C18        -2.1308   -1.6708    6.4004 C.3       1 <0>        -0.1188
     28 C19        -0.9534   -2.0058    5.3650 C.3       1 <0>        -0.0740
     29 C20         0.2357   -2.3440    6.3494 C.3       1 <0>        -0.1216
     30 H4          1.0039    1.9031    0.0027 H         1 <0>         0.0607
     31 H5         -0.5459    1.8868   -0.8726 H         1 <0>         0.0588
     32 H6         -0.5289    1.8773    0.9072 H         1 <0>         0.0589
     33 H7          0.5123   -0.3556   -0.8948 H         1 <0>         0.0676
     34 H8          0.5293   -0.3651    0.8851 H         1 <0>         0.0678
     35 H9         -1.9435   -0.1821    0.9097 H         1 <0>         0.0985
     36 H10        -1.9605   -0.1726   -0.8702 H         1 <0>         0.0999
     37 H11        -0.9037   -4.0548   -3.2507 H         1 <0>         0.1031
     38 H12        -0.8748   -5.6338   -2.4296 H         1 <0>         0.1013
     39 H13        -3.3441   -5.5666   -2.2135 H         1 <0>         0.0670
     40 H14        -3.3730   -3.9876   -3.0346 H         1 <0>         0.0692
     41 H15        -2.3510   -5.0151   -5.0466 H         1 <0>         0.0599
     42 H16        -2.3221   -6.5941   -4.2256 H         1 <0>         0.0588
     43 H17        -3.8778   -5.8251   -4.6212 H         1 <0>         0.0614
     44 H18        -0.8668   -5.4018    5.4797 H         1 <0>         0.0762
     45 H19         0.5392   -4.5078    4.8073 H         1 <0>         0.0714
     46 H20        -1.7268   -4.8139    7.7674 H         1 <0>         0.0629
     47 H21        -1.2810   -3.2679    8.5031 H         1 <0>         0.0662
     48 H22        -3.5451   -3.3020    4.8358 H         1 <0>         0.0740
     49 H23        -2.8416   -4.8188    5.4935 H         1 <0>         0.0719
     50 H24        -2.9334   -1.1324    5.8963 H         1 <0>         0.0677
     51 H25        -1.7679   -1.1124    7.2632 H         1 <0>         0.0742
     52 H26        -0.7411   -1.2390    4.6199 H         1 <0>         0.1113
     53 H27         0.2376   -1.6711    7.2069 H         1 <0>         0.0747
     54 H28         1.1918   -2.3132    5.8269 H         1 <0>         0.0663
@<TRIPOS>BOND
     1    1    2 1
     2    1   30 1
     3    1   31 1
     4    1   32 1
     5    2    3 1
     6    2   33 1
     7    2   34 1
     8    3   35 1
     9    3   36 1
    10    3    4 1
    11    4    5 1
    12    4   10 am
    13    5   17 1
    14    5    6 2
    15    6    7 1
    16    6   15 1
    17    7    9 am
    18    7    8 2
    19    9   10 am
    20    9   12 1
    21   10   11 2
    22   12   13 1
    23   12   37 1
    24   12   38 1
    25   13   14 1
    26   13   39 1
    27   13   40 1
    28   14   41 1
    29   14   42 1
    30   14   43 1
    31   15   18 1
    32   15   16 1
    33   16   19 1
    34   16   17 2
    35   19   26 1
    36   19   28 1
    37   19   20 1
    38   20   21 1
    39   20   44 1
    40   20   45 1
    41   21   22 1
    42   21   29 1
    43   21   23 1
    44   23   24 1
    45   23   46 1
    46   23   47 1
    47   24   25 1
    48   24   26 1
    49   24   27 1
    50   26   48 1
    51   26   49 1
    52   27   28 1
    53   27   50 1
    54   27   51 1
    55   28   29 1
    56   28   52 1
    57   29   53 1
    58   29   54 1
@<TRIPOS>MOLECULE
ZINC18207215
   55    59     0     0     0
SMALL
USER_CHARGES
1,3-dipropyl-8-BLAHyl-7H-purine-2,6-dione
@<TRIPOS>ATOM
      1 C1         -2.3129    4.8502   -5.0821 C.3       1 <0>        -0.1537
      2 C2         -0.9968    5.2159   -4.3928 C.3       1 <0>        -0.1442
      3 C3          0.1042    4.2595   -4.8554 C.3       1 <0>         0.0949
      4 N1          1.3644    4.6097   -4.1955 N.am      1 <0>        -0.5097
      5 C4          1.6928    4.0312   -2.9801 C.2       1 <0>         0.3509
      6 C5          2.8934    4.3796   -2.3743 C.2       1 <0>        -0.0751
      7 C6          3.7415    5.3099   -3.0130 C.2       1 <0>         0.5886
      8 O1          4.7990    5.6317   -2.5017 O.2       1 <0>        -0.4630
      9 N2          3.3660    5.8398   -4.1957 N.am      1 <0>        -0.5390
     10 C7          2.2013    5.4937   -4.7707 C.2       1 <0>         0.7080
     11 O2          1.8961    5.9911   -5.8375 O.2       1 <0>        -0.4799
     12 C8          4.2408    6.8070   -4.8632 C.3       1 <0>         0.1068
     13 C9          3.8828    8.2213   -4.4024 C.3       1 <0>        -0.1382
     14 C10         4.7964    9.2314   -5.0996 C.3       1 <0>        -0.1511
     15 N3          2.9548    3.6614   -1.1969 N.pl3     1 <0>        -0.4517
     16 H1          3.6944    3.6838   -0.5243 H         1 <0>         0.4836
     17 C11         1.8290    2.9246   -1.1261 C.cat     1 <0>         0.4103
     18 C12         1.4760    1.9857   -0.0014 C.3       1 <0>        -0.0447
     19 C13         1.7539    2.5449    1.4258 C.3       1 <0>        -0.1138
     20 C14         0.7636    1.7031    2.2757 C.3       1 <0>        -0.0856
     21 H2          0.6664    2.0677    3.2984 H         1 <0>         0.1085
     22 C15         1.1777    0.2311    2.1968 C.3       1 <0>        -0.1184
     23 C16         1.3277   -0.2870    0.7638 C.3       1 <0>        -0.0867
     24 H3          1.6304   -1.3330    0.7147 H         1 <0>         0.1082
     25 C17         2.2891    0.6570   -0.0086 C.3       1 <0>        -0.1090
     26 C18         0.0021   -0.0041    0.0020 C.3       1 <0>        -0.1233
     27 C19        -0.0190    1.5528    0.0106 C.3       1 <0>        -0.0898
     28 C20        -0.5347    1.8895    1.4407 C.3       1 <0>        -0.1202
     29 H4         -3.0972    5.5316   -4.7525 H         1 <0>         0.0721
     30 H5         -2.1919    4.9307   -6.1623 H         1 <0>         0.0685
     31 H6         -2.5871    3.8277   -4.8224 H         1 <0>         0.0604
     32 H7         -1.1178    5.1354   -3.3126 H         1 <0>         0.0636
     33 H8         -0.7226    6.2384   -4.6525 H         1 <0>         0.0836
     34 H9          0.2252    4.3400   -5.9357 H         1 <0>         0.1287
     35 H10        -0.1700    3.2370   -4.5957 H         1 <0>         0.0959
     36 H11         5.2790    6.5938   -4.6088 H         1 <0>         0.1127
     37 H12         4.1084    6.7321   -5.9426 H         1 <0>         0.1138
     38 H13         2.8446    8.4345   -4.6568 H         1 <0>         0.0711
     39 H14         4.0152    8.2962   -3.3231 H         1 <0>         0.0696
     40 H15         5.8347    9.0182   -4.8452 H         1 <0>         0.0626
     41 H16         4.6641    9.1565   -6.1789 H         1 <0>         0.0633
     42 H17         4.5414   10.2390   -4.7713 H         1 <0>         0.0674
     43 H18         2.7850    2.3587    1.7261 H         1 <0>         0.0932
     44 H19         1.5167    3.6072    1.4838 H         1 <0>         0.0820
     45 H20         0.4263   -0.3705    2.7083 H         1 <0>         0.0779
     46 H21         2.1296    0.1083    2.7135 H         1 <0>         0.0732
     47 H22         3.2346    0.7728    0.5213 H         1 <0>         0.0933
     48 H23         2.4527    0.3028   -1.0264 H         1 <0>         0.0805
     49 H24        -0.8543   -0.4113    0.5395 H         1 <0>         0.0902
     50 H25         0.0434   -0.3906   -1.0163 H         1 <0>         0.0747
     51 H26        -0.6075    1.9886   -0.7968 H         1 <0>         0.0849
     52 H27        -0.8935    2.9172    1.4969 H         1 <0>         0.0754
     53 H28        -1.3076    1.1880    1.7547 H         1 <0>         0.0898
     54 N4          1.0892    3.1423   -2.1849 N.pl3     1 <0>        -0.4924
     55 H29         0.1834    2.6978   -2.3751 H         1 <0>         0.4811
@<TRIPOS>BOND
     1    1    2 1
     2    1   29 1
     3    1   30 1
     4    1   31 1
     5    2    3 1
     6    2   32 1
     7    2   33 1
     8    3    4 1
     9    3   34 1
    10    3   35 1
    11    4   10 am
    12    4    5 1
    13    5    6 2
    14    5   54 1
    15    6    7 1
    16    6   15 1
    17    7    8 2
    18    7    9 am
    19    9   10 am
    20    9   12 1
    21   10   11 2
    22   12   13 1
    23   12   36 1
    24   12   37 1
    25   13   14 1
    26   13   38 1
    27   13   39 1
    28   14   40 1
    29   14   41 1
    30   14   42 1
    31   15   16 1
    32   15   17 1
    33   17   18 1
    34   17   54 2
    35   18   25 1
    36   18   27 1
    37   18   19 1
    38   19   20 1
    39   19   43 1
    40   19   44 1
    41   20   21 1
    42   20   28 1
    43   20   22 1
    44   22   23 1
    45   22   45 1
    46   22   46 1
    47   23   24 1
    48   23   25 1
    49   23   26 1
    50   25   47 1
    51   25   48 1
    52   26   27 1
    53   26   49 1
    54   26   50 1
    55   27   28 1
    56   27   51 1
    57   28   52 1
    58   28   53 1
    59   54   55 1
