@<TRIPOS>MOLECULE
ZINC26816145
   50    51     0     0     0
SMALL
USER_CHARGES

@<TRIPOS>ATOM
      1 C1         -1.5727    1.1561    1.0004 C.3       1 <0>        -0.1497
      2 C2         -1.1984   -0.3112    0.7814 C.3       1 <0>         0.0652
      3 O1         -0.2200   -0.7023    1.7467 O.3       1 <0>        -0.3341
      4 C3          0.2199   -1.9749    1.6909 C.2       1 <0>         0.4737
      5 C4          1.1632   -2.4179    2.5920 C.2       1 <0>        -0.3954
      6 C5          1.6280   -1.5463    3.7454 C.3       1 <0>         0.0742
      7 H1          2.0385   -0.6250    3.3321 H         1 <0>         0.0316
      8 C6          2.6707   -2.1613    4.6609 C.2       1 <0>        -0.3789
      9 C7          3.0958   -3.4268    4.3741 C.2       1 <0>         0.2801
     10 N1          2.6324   -4.1149    3.3419 N.2       1 <0>        -0.6482
     11 C8          1.7291   -3.6898    2.4883 C.2       1 <0>         0.3106
     12 C9          1.2968   -4.5962    1.3646 C.3       1 <0>        -0.0927
     13 C10         4.1310   -4.0638    5.2650 C.3       1 <0>        -0.1135
     14 C11         3.1806   -1.4537    5.7635 C.2       1 <0>         0.5267
     15 O2          3.9342   -2.0051    6.5454 O.2       1 <0>        -0.5582
     16 O3          2.8346   -0.1623    5.9558 O.3       1 <0>        -0.3534
     17 C12         3.3899    0.4951    7.0966 C.3       1 <0>         0.0873
     18 C13         2.8878    1.9395    7.1475 C.3       1 <0>        -0.1091
     19 S1          3.5927    2.7741    8.5957 S.3       1 <0>        -0.1006
     20 C14         2.9284    4.4040    8.5137 C.ar      1 <0>        -0.0795
     21 C15         2.0666    4.7538    7.4811 C.ar      1 <0>        -0.1328
     22 C16         1.5479    6.0320    7.4200 C.ar      1 <0>        -0.0991
     23 C17         1.8851    6.9637    8.3849 C.ar      1 <0>        -0.1284
     24 C18         2.7428    6.6193    9.4138 C.ar      1 <0>        -0.1028
     25 C19         3.2604    5.3412    9.4847 C.ar      1 <0>        -0.1018
     26 C20         0.4071   -1.1841    4.5932 C.3       1 <0>        -0.1426
     27 O4         -0.2629   -2.8142    0.7536 O.3       1 <0>        -0.6532
     28 H2         -0.6845    1.7780    0.8900 H         1 <0>         0.0613
     29 H3         -2.3191    1.4544    0.2641 H         1 <0>         0.0693
     30 H4         -1.9814    1.2810    2.0032 H         1 <0>         0.0611
     31 H5         -2.0867   -0.9332    0.8919 H         1 <0>         0.0572
     32 H6         -0.7897   -0.4361   -0.2213 H         1 <0>         0.0573
     33 H7          1.5762   -4.1502    0.4101 H         1 <0>         0.0733
     34 H8          1.7860   -5.5645    1.4703 H         1 <0>         0.0474
     35 H9          0.2156   -4.7294    1.4008 H         1 <0>         0.0869
     36 H10         3.6401   -4.5156    6.1270 H         1 <0>         0.0693
     37 H11         4.6666   -4.8324    4.7077 H         1 <0>         0.0529
     38 H12         4.8351   -3.3042    5.6046 H         1 <0>         0.0951
     39 H13         3.0836   -0.0281    8.0024 H         1 <0>         0.0692
     40 H14         4.4775    0.4909    7.0248 H         1 <0>         0.0691
     41 H15         3.1942    2.4628    6.2417 H         1 <0>         0.0984
     42 H16         1.8002    1.9438    7.2194 H         1 <0>         0.0982
     43 H17         1.8031    4.0268    6.7271 H         1 <0>         0.1266
     44 H18         0.8784    6.3047    6.6176 H         1 <0>         0.1259
     45 H19         1.4779    7.9628    8.3347 H         1 <0>         0.1236
     46 H20         3.0042    7.3496   10.1653 H         1 <0>         0.1266
     47 H21         3.9260    5.0714   10.2913 H         1 <0>         0.1276
     48 H22        -0.0538   -2.0954    4.9744 H         1 <0>         0.0337
     49 H23         0.7181   -0.5572    5.4289 H         1 <0>         0.0463
     50 H24        -0.3129   -0.6417    3.9804 H         1 <0>         0.0484
@<TRIPOS>BOND
     1    1    2 1
     2    1   28 1
     3    1   29 1
     4    1   30 1
     5    2    3 1
     6    2   31 1
     7    2   32 1
     8    3    4 1
     9    4    5 2
    10    4   27 1
    11    5   11 1
    12    5    6 1
    13    6    7 1
    14    6    8 1
    15    6   26 1
    16    8    9 2
    17    8   14 1
    18    9   10 1
    19    9   13 1
    20   10   11 2
    21   11   12 1
    22   12   33 1
    23   12   34 1
    24   12   35 1
    25   13   36 1
    26   13   37 1
    27   13   38 1
    28   14   15 2
    29   14   16 1
    30   16   17 1
    31   17   18 1
    32   17   39 1
    33   17   40 1
    34   18   19 1
    35   18   41 1
    36   18   42 1
    37   19   20 1
    38   20   25 ar
    39   20   21 ar
    40   21   22 ar
    41   21   43 1
    42   22   23 ar
    43   22   44 1
    44   23   24 ar
    45   23   45 1
    46   24   25 ar
    47   24   46 1
    48   25   47 1
    49   26   48 1
    50   26   49 1
    51   26   50 1
@<TRIPOS>MOLECULE
ZINC26816150
   50    51     0     0     0
SMALL
USER_CHARGES

@<TRIPOS>ATOM
      1 C1         -1.9159    0.9000    1.1230 C.3       1 <0>        -0.1497
      2 C2         -1.2977   -0.4532    0.7658 C.3       1 <0>         0.0653
      3 O1         -0.3626   -0.8317    1.7780 O.3       1 <0>        -0.3342
      4 C3          0.2745   -2.0077    1.6134 C.2       1 <0>         0.4742
      5 C4          1.1890   -2.4330    2.5519 C.2       1 <0>        -0.3955
      6 C5          1.6387   -1.5295    3.6865 C.3       1 <0>         0.0743
      7 H1          0.7580   -1.2360    4.2577 H         1 <0>         0.0300
      8 C6          2.6497   -2.1276    4.6476 C.2       1 <0>        -0.3793
      9 C7          3.0627   -3.4079    4.4141 C.2       1 <0>         0.2801
     10 N1          2.6143   -4.1241    3.3944 N.2       1 <0>        -0.6482
     11 C8          1.7384   -3.7155    2.5049 C.2       1 <0>         0.3100
     12 C9          1.3200   -4.6534    1.4020 C.3       1 <0>        -0.0910
     13 C10         4.0665   -4.0288    5.3511 C.3       1 <0>        -0.1139
     14 C11         3.1431   -1.3902    5.7382 C.2       1 <0>         0.5262
     15 O2          3.8655   -1.9265    6.5590 O.2       1 <0>        -0.5580
     16 O3          2.8160   -0.0869    5.8756 O.3       1 <0>        -0.3519
     17 C12         3.3529    0.6009    7.0072 C.3       1 <0>         0.0860
     18 C13         2.8762    2.0547    6.9938 C.3       1 <0>        -0.1091
     19 S1          3.5578    2.9278    8.4303 S.3       1 <0>        -0.1006
     20 C14         2.9259    4.5651    8.2732 C.ar      1 <0>        -0.0795
     21 C15         2.0983    4.8929    7.2060 C.ar      1 <0>        -0.1328
     22 C16         1.6051    6.1771    7.0861 C.ar      1 <0>        -0.0992
     23 C17         1.9337    7.1365    8.0265 C.ar      1 <0>        -0.1284
     24 C18         2.7573    6.8140    9.0896 C.ar      1 <0>        -0.1028
     25 C19         3.2493    5.5303    9.2194 C.ar      1 <0>        -0.1018
     26 C20         2.2525   -0.2671    3.0777 C.3       1 <0>        -0.1449
     27 O4          0.0172   -2.7677    0.5307 O.3       1 <0>        -0.6528
     28 H2         -1.1298    1.6520    1.1909 H         1 <0>         0.0611
     29 H3         -2.6291    1.1887    0.3509 H         1 <0>         0.0693
     30 H4         -2.4292    0.8233    2.0815 H         1 <0>         0.0613
     31 H5         -2.0838   -1.2052    0.6979 H         1 <0>         0.0573
     32 H6         -0.7844   -0.3766   -0.1927 H         1 <0>         0.0572
     33 H7          1.5950   -4.2259    0.4378 H         1 <0>         0.0834
     34 H8          1.8219   -5.6124    1.5307 H         1 <0>         0.0477
     35 H9          0.2406   -4.8002    1.4398 H         1 <0>         0.0746
     36 H10         3.5476   -4.4503    6.2120 H         1 <0>         0.0694
     37 H11         4.6088   -4.8185    4.8312 H         1 <0>         0.0528
     38 H12         4.7691   -3.2665    5.6879 H         1 <0>         0.0953
     39 H13         3.0131    0.1156    7.9222 H         1 <0>         0.0691
     40 H14         4.4418    0.5751    6.9651 H         1 <0>         0.0691
     41 H15         3.2160    2.5400    6.0788 H         1 <0>         0.0981
     42 H16         1.7874    2.0805    7.0359 H         1 <0>         0.0984
     43 H17         1.8416    4.1443    6.4711 H         1 <0>         0.1266
     44 H18         0.9622    6.4326    6.2568 H         1 <0>         0.1259
     45 H19         1.5464    8.1400    7.9302 H         1 <0>         0.1236
     46 H20         3.0121    7.5658    9.8219 H         1 <0>         0.1266
     47 H21         3.8883    5.2778   10.0527 H         1 <0>         0.1276
     48 H22         1.5065    0.2415    2.4670 H         1 <0>         0.0460
     49 H23         2.5830    0.3975    3.8759 H         1 <0>         0.0535
     50 H24         3.1052   -0.5410    2.4565 H         1 <0>         0.0333
@<TRIPOS>BOND
     1    1    2 1
     2    1   28 1
     3    1   29 1
     4    1   30 1
     5    2    3 1
     6    2   31 1
     7    2   32 1
     8    3    4 1
     9    4    5 2
    10    4   27 1
    11    5   11 1
    12    5    6 1
    13    6    7 1
    14    6    8 1
    15    6   26 1
    16    8    9 2
    17    8   14 1
    18    9   10 1
    19    9   13 1
    20   10   11 2
    21   11   12 1
    22   12   33 1
    23   12   34 1
    24   12   35 1
    25   13   36 1
    26   13   37 1
    27   13   38 1
    28   14   15 2
    29   14   16 1
    30   16   17 1
    31   17   18 1
    32   17   39 1
    33   17   40 1
    34   18   19 1
    35   18   41 1
    36   18   42 1
    37   19   20 1
    38   20   25 ar
    39   20   21 ar
    40   21   22 ar
    41   21   43 1
    42   22   23 ar
    43   22   44 1
    44   23   24 ar
    45   23   45 1
    46   24   25 ar
    47   24   46 1
    48   25   47 1
    49   26   48 1
    50   26   49 1
    51   26   50 1
@<TRIPOS>MOLECULE
ZINC00406589
   47    48     0     0     0
SMALL
USER_CHARGES

@<TRIPOS>ATOM
      1 C1         -0.1680    1.6167   -0.1909 C.3       1 <0>        -0.1492
      2 C2         -0.4749    0.1388   -0.4412 C.3       1 <0>         0.0619
      3 O1          0.4511   -0.3851   -1.3951 O.3       1 <0>        -0.3341
      4 C3          0.3170   -1.6840   -1.7284 C.2       1 <0>         0.4734
      5 C4          1.1767   -2.2529   -2.6423 C.2       1 <0>        -0.3897
      6 C5          1.1518   -3.7432   -2.9326 C.3       1 <0>         0.1290
      7 H1          0.1520   -4.0062   -3.2781 H         1 <0>         0.0396
      8 C6          2.1536   -4.2336   -3.9620 C.2       1 <0>        -0.3681
      9 C7          2.9796   -3.3071   -4.5310 C.2       1 <0>         0.2755
     10 N1          2.9301   -2.0220   -4.2151 N.2       1 <0>        -0.6459
     11 C8          2.1049   -1.4837   -3.3464 C.2       1 <0>         0.2885
     12 C9          2.1655    0.0016   -3.0992 C.3       1 <0>        -0.1024
     13 C10         3.9852   -3.7641   -5.5562 C.3       1 <0>        -0.1123
     14 C11         2.2286   -5.5920   -4.3163 C.2       1 <0>         0.5230
     15 O2          2.9538   -5.9441   -5.2292 O.2       1 <0>        -0.5605
     16 O3          1.4963   -6.5066   -3.6442 O.3       1 <0>        -0.3520
     17 C12         1.6216   -7.8688   -4.0577 C.3       1 <0>         0.0413
     18 C13         1.4098   -4.4785   -1.6427 C.ar      1 <0>        -0.0569
     19 C14         2.5889   -4.2678   -0.9521 C.ar      1 <0>        -0.0721
     20 C15         2.8280   -4.9410    0.2303 C.ar      1 <0>        -0.1600
     21 C16         1.8835   -5.8287    0.7249 C.ar      1 <0>         0.0977
     22 C17         0.7010   -6.0380    0.0303 C.ar      1 <0>        -0.2109
     23 C18         0.4644   -5.3584   -1.1490 C.ar      1 <0>        -0.0425
     24 O4          2.1165   -6.4925    1.8877 O.3       1 <0>        -0.3269
     25 C19         1.1000   -7.3907    2.3369 C.3       1 <0>         0.0324
     26 O5         -0.6581   -2.4262   -1.1678 O.3       1 <0>        -0.6417
     27 H2          0.8466    1.7168    0.1947 H         1 <0>         0.0616
     28 H3         -0.2575    2.1697   -1.1259 H         1 <0>         0.0616
     29 H4         -0.8743    2.0163    0.5367 H         1 <0>         0.0686
     30 H5         -0.3854   -0.4143    0.4938 H         1 <0>         0.0572
     31 H6         -1.4895    0.0387   -0.8268 H         1 <0>         0.0571
     32 H7          2.4067    0.1862   -2.0523 H         1 <0>         0.0793
     33 H8          2.9342    0.4443   -3.7326 H         1 <0>         0.0612
     34 H9          1.1995    0.4488   -3.3337 H         1 <0>         0.0734
     35 H10         3.5099   -3.8098   -6.5361 H         1 <0>         0.0688
     36 H11         4.8168   -3.0602   -5.5883 H         1 <0>         0.0524
     37 H12         4.3562   -4.7527   -5.2858 H         1 <0>         0.0947
     38 H13         0.9823   -8.4970   -3.4374 H         1 <0>         0.0847
     39 H14         1.3196   -7.9610   -5.1009 H         1 <0>         0.0477
     40 H15         2.6584   -8.1873   -3.9500 H         1 <0>         0.0477
     41 H16         3.3239   -3.5767   -1.3376 H         1 <0>         0.1145
     42 H17         3.7495   -4.7766    0.7690 H         1 <0>         0.1157
     43 H18        -0.0358   -6.7285    0.4133 H         1 <0>         0.1136
     44 H19        -0.4579   -5.5177   -1.6878 H         1 <0>         0.1129
     45 H20         0.1725   -6.8403    2.4947 H         1 <0>         0.0502
     46 H21         0.9403   -8.1638    1.5852 H         1 <0>         0.0496
     47 H22         1.4118   -7.8533    3.2733 H         1 <0>         0.0904
@<TRIPOS>BOND
     1    1    2 1
     2    1   27 1
     3    1   28 1
     4    1   29 1
     5    2    3 1
     6    2   30 1
     7    2   31 1
     8    3    4 1
     9    4    5 2
    10    4   26 1
    11    5   11 1
    12    5    6 1
    13    6    7 1
    14    6    8 1
    15    6   18 1
    16    8    9 2
    17    8   14 1
    18    9   10 1
    19    9   13 1
    20   10   11 2
    21   11   12 1
    22   12   32 1
    23   12   33 1
    24   12   34 1
    25   13   35 1
    26   13   36 1
    27   13   37 1
    28   14   15 2
    29   14   16 1
    30   16   17 1
    31   17   38 1
    32   17   39 1
    33   17   40 1
    34   18   23 ar
    35   18   19 ar
    36   19   20 ar
    37   19   41 1
    38   20   21 ar
    39   20   42 1
    40   21   22 ar
    41   21   24 1
    42   22   23 ar
    43   22   43 1
    44   23   44 1
    45   24   25 1
    46   25   45 1
    47   25   46 1
    48   25   47 1
@<TRIPOS>MOLECULE
ZINC00406590
   47    48     0     0     0
SMALL
USER_CHARGES

@<TRIPOS>ATOM
      1 C1         -0.3118    1.5563   -0.2153 C.3       1 <0>        -0.1492
      2 C2         -0.5668    0.0669   -0.4554 C.3       1 <0>         0.0621
      3 O1          0.3746   -0.4299   -1.4088 O.3       1 <0>        -0.3344
      4 C3          0.2858   -1.7348   -1.7335 C.2       1 <0>         0.4712
      5 C4          1.1626   -2.2787   -2.6464 C.2       1 <0>        -0.3895
      6 C5          1.1574   -3.7639   -2.9625 C.3       1 <0>         0.1293
      7 H1          1.3348   -4.3099   -2.0359 H         1 <0>         0.0394
      8 C6          2.1769   -4.2258   -3.9877 C.2       1 <0>        -0.3682
      9 C7          2.9997   -3.2809   -4.5305 C.2       1 <0>         0.2756
     10 N1          2.9324   -2.0021   -4.1932 N.2       1 <0>        -0.6460
     11 C8          2.0909   -1.4876   -3.3256 C.2       1 <0>         0.2886
     12 C9          2.1325   -0.0062   -3.0522 C.3       1 <0>        -0.1021
     13 C10         4.0225   -3.7093   -5.5509 C.3       1 <0>        -0.1124
     14 C11         2.2709   -5.5770   -4.3643 C.2       1 <0>         0.5241
     15 O2          3.0178   -5.9068   -5.2680 O.2       1 <0>        -0.5600
     16 O3          1.5328   -6.5095   -3.7239 O.3       1 <0>        -0.3545
     17 C12         1.6783   -7.8629   -4.1586 C.3       1 <0>         0.0417
     18 C13        -0.2135   -4.1329   -3.4681 C.ar      1 <0>        -0.0544
     19 C14        -0.7133   -3.5319   -4.6085 C.ar      1 <0>        -0.0723
     20 C15        -1.9699   -3.8681   -5.0738 C.ar      1 <0>        -0.1596
     21 C16        -2.7302   -4.8099   -4.3959 C.ar      1 <0>         0.0971
     22 C17        -2.2262   -5.4119   -3.2521 C.ar      1 <0>        -0.2103
     23 C18        -0.9669   -5.0760   -2.7938 C.ar      1 <0>        -0.0436
     24 O4         -3.9668   -5.1420   -4.8513 O.3       1 <0>        -0.3271
     25 C19        -4.6929   -6.1192   -4.1030 C.3       1 <0>         0.0325
     26 O5         -0.6608   -2.5076   -1.1654 O.3       1 <0>        -0.6392
     27 H2          0.6996    1.6948    0.1667 H         1 <0>         0.0614
     28 H3         -0.4235    2.0999   -1.1535 H         1 <0>         0.0616
     29 H4         -1.0299    1.9353    0.5119 H         1 <0>         0.0685
     30 H5         -0.4551   -0.4767    0.4828 H         1 <0>         0.0570
     31 H6         -1.5782   -0.0716   -0.8374 H         1 <0>         0.0572
     32 H7          2.3759    0.1630   -2.0033 H         1 <0>         0.0779
     33 H8          2.8922    0.4581   -3.6810 H         1 <0>         0.0610
     34 H9          1.1595    0.4317   -3.2747 H         1 <0>         0.0748
     35 H10         3.5588   -3.7467   -6.5366 H         1 <0>         0.0689
     36 H11         4.8451   -2.9943   -5.5632 H         1 <0>         0.0523
     37 H12         4.4035   -4.6970   -5.2909 H         1 <0>         0.0949
     38 H13         1.0317   -8.5074   -3.5630 H         1 <0>         0.0851
     39 H14         1.3987   -7.9391   -5.2094 H         1 <0>         0.0480
     40 H15         2.7154   -8.1747   -4.0351 H         1 <0>         0.0478
     41 H16        -0.1210   -2.7988   -5.1359 H         1 <0>         0.1137
     42 H17        -2.3601   -3.3978   -5.9642 H         1 <0>         0.1154
     43 H18        -2.8162   -6.1453   -2.7226 H         1 <0>         0.1134
     44 H19        -0.5723   -5.5475   -1.9059 H         1 <0>         0.1126
     45 H20        -4.1291   -7.0518   -4.0799 H         1 <0>         0.0494
     46 H21        -4.8425   -5.7598   -3.0850 H         1 <0>         0.0503
     47 H22        -5.6609   -6.2914   -4.5735 H         1 <0>         0.0903
@<TRIPOS>BOND
     1    1    2 1
     2    1   27 1
     3    1   28 1
     4    1   29 1
     5    2    3 1
     6    2   30 1
     7    2   31 1
     8    3    4 1
     9    4    5 2
    10    4   26 1
    11    5   11 1
    12    5    6 1
    13    6    7 1
    14    6    8 1
    15    6   18 1
    16    8    9 2
    17    8   14 1
    18    9   10 1
    19    9   13 1
    20   10   11 2
    21   11   12 1
    22   12   32 1
    23   12   33 1
    24   12   34 1
    25   13   35 1
    26   13   36 1
    27   13   37 1
    28   14   15 2
    29   14   16 1
    30   16   17 1
    31   17   38 1
    32   17   39 1
    33   17   40 1
    34   18   23 ar
    35   18   19 ar
    36   19   20 ar
    37   19   41 1
    38   20   21 ar
    39   20   42 1
    40   21   22 ar
    41   21   24 1
    42   22   23 ar
    43   22   43 1
    44   23   44 1
    45   24   25 1
    46   25   45 1
    47   25   46 1
    48   25   47 1
@<TRIPOS>MOLECULE
ZINC26831593
   39    40     0     0     0
SMALL
USER_CHARGES

@<TRIPOS>ATOM
      1 C1         -0.0444    1.5002    0.0894 C.3       1 <0>        -0.1103
      2 C2         -0.0105   -0.0056    0.0382 C.2       1 <0>         0.2697
      3 C3         -1.1642   -0.6668   -0.0456 C.2       1 <0>        -0.2528
      4 C4         -1.1129   -2.1820   -0.0967 C.3       1 <0>         0.1039
      5 H1         -1.5983   -2.5079   -1.0166 H         1 <0>         0.0582
      6 C5          0.2722   -2.8025   -0.0463 C.2       1 <0>        -0.3960
      7 C6          0.4504   -4.1503   -0.0853 C.2       1 <0>         0.4775
      8 O1          1.6938   -4.6638   -0.1975 O.3       1 <0>        -0.6483
      9 O2         -0.6162   -4.9745   -0.0118 O.3       1 <0>        -0.3227
     10 C7         -0.3554   -6.3787   -0.0587 C.3       1 <0>         0.0449
     11 C8          1.3626   -1.9178    0.0421 C.2       1 <0>         0.3184
     12 N1          1.1850   -0.6248    0.0737 N.2       1 <0>        -0.6269
     13 C9          2.7625   -2.4732    0.0961 C.3       1 <0>        -0.0889
     14 C10        -1.9070   -2.7189    1.0661 C.ar      1 <0>         0.0022
     15 C11        -1.5452   -2.3922    2.3599 C.ar      1 <0>        -0.1117
     16 C12        -2.2735   -2.8846    3.4264 C.ar      1 <0>        -0.0964
     17 C13        -3.3640   -3.7036    3.1995 C.ar      1 <0>        -0.1370
     18 C14        -3.7262   -4.0295    1.9061 C.ar      1 <0>        -0.0803
     19 C15        -3.0003   -3.5335    0.8391 C.ar      1 <0>        -0.1516
     20 C16        -3.3984   -3.8845   -0.5714 C.3       1 <0>         0.5017
     21 F1         -4.5252   -4.7133   -0.5453 F         1 <0>        -0.1913
     22 F2         -3.6968   -2.7139   -1.2768 F         1 <0>        -0.1630
     23 F3         -2.3428   -4.5524   -1.2013 F         1 <0>        -0.1610
     24 N2         -2.4622    0.0583   -0.0872 N.pl3     1 <0>         0.0816
     25 O3         -2.4814    1.2664   -0.0449 O.2       1 <0>        -0.2404
     26 O4         -3.4981   -0.5605   -0.1634 O.3       1 <0>        -0.2079
     27 H2          0.9737    1.8846    0.1516 H         1 <0>         0.0674
     28 H3         -0.5232    1.8836   -0.8115 H         1 <0>         0.0832
     29 H4         -0.6081    1.8213    0.9653 H         1 <0>         0.0825
     30 H5          0.1409   -6.6250   -0.9974 H         1 <0>         0.0503
     31 H6          0.2878   -6.6569    0.7762 H         1 <0>         0.0487
     32 H7         -1.2959   -6.9254    0.0094 H         1 <0>         0.0813
     33 H8          2.9809   -2.9990   -0.8333 H         1 <0>         0.0868
     34 H9          3.4725   -1.6566    0.2271 H         1 <0>         0.0522
     35 H10         2.8467   -3.1656    0.9337 H         1 <0>         0.0816
     36 H11        -0.6933   -1.7524    2.5372 H         1 <0>         0.1191
     37 H12        -1.9904   -2.6299    4.4371 H         1 <0>         0.1216
     38 H13        -3.9326   -4.0890    4.0328 H         1 <0>         0.1244
     39 H14        -4.5779   -4.6695    1.7288 H         1 <0>         0.1294
@<TRIPOS>BOND
     1    1    2 1
     2    1   27 1
     3    1   28 1
     4    1   29 1
     5    2   12 1
     6    2    3 2
     7    3    4 1
     8    3   24 1
     9    4    5 1
    10    4    6 1
    11    4   14 1
    12    6    7 2
    13    6   11 1
    14    7    8 1
    15    7    9 1
    16    9   10 1
    17   10   30 1
    18   10   31 1
    19   10   32 1
    20   11   12 2
    21   11   13 1
    22   13   33 1
    23   13   34 1
    24   13   35 1
    25   14   19 ar
    26   14   15 ar
    27   15   16 ar
    28   15   36 1
    29   16   17 ar
    30   16   37 1
    31   17   18 ar
    32   17   38 1
    33   18   19 ar
    34   18   39 1
    35   19   20 1
    36   20   21 1
    37   20   22 1
    38   20   23 1
    39   24   25 2
    40   24   26 1
@<TRIPOS>MOLECULE
ZINC08581203
   34    36     0     0     0
SMALL
USER_CHARGES
8-benzyl-1,3-dimethyl-9H-purine-2,6-dione
@<TRIPOS>ATOM
      1 C1          3.9297    7.5406   -4.0293 C.3       1 <0>         0.0757
      2 N1          3.8489    6.0987   -4.2754 N.am      1 <0>        -0.5181
      3 C2          3.4808    5.2543   -3.2533 C.2       1 <0>         0.2737
      4 C3          3.4071    3.8880   -3.4966 C.2       1 <0>        -0.0922
      5 C4          3.7274    3.4039   -4.8405 C.2       1 <0>         0.5947
      6 O1          3.6768    2.2162   -5.1027 O.2       1 <0>        -0.4805
      7 N2          4.0798    4.3049   -5.7829 N.am      1 <0>        -0.5547
      8 C5          4.1362    5.6163   -5.4973 C.2       1 <0>         0.7144
      9 O2          4.4584    6.3945   -6.3744 O.2       1 <0>        -0.5289
     10 C6          4.4055    3.8455   -7.1354 C.3       1 <0>         0.0824
     11 N3          3.0328    3.2905   -2.3400 N.2       1 <0>        -0.3932
     12 C7          2.8692    4.2009   -1.4241 C.2       1 <0>         0.2349
     13 N4          3.1404    5.4307   -1.9494 N.pl3     1 <0>        -0.5574
     14 H1          3.0966    6.3034   -1.4632 H         1 <0>         0.4343
     15 C8          2.4510    3.9366   -0.0006 C.3       1 <0>         0.0107
     16 C9          1.1563    3.1654    0.0076 C.ar      1 <0>        -0.0874
     17 C10         1.1750    1.7832    0.0004 C.ar      1 <0>        -0.0891
     18 C11        -0.0126    1.0758    0.0080 C.ar      1 <0>        -0.1189
     19 C12        -1.2190    1.7506    0.0173 C.ar      1 <0>        -0.1151
     20 C13        -1.2377    3.1328    0.0299 C.ar      1 <0>        -0.1229
     21 C14        -0.0501    3.8402    0.0228 C.ar      1 <0>        -0.1120
     22 H2          4.9357    7.7967   -3.6970 H         1 <0>         0.0786
     23 H3          3.7026    8.0795   -4.9491 H         1 <0>         0.1039
     24 H4          3.2107    7.8185   -3.2585 H         1 <0>         0.0791
     25 H5          4.3075    2.7610   -7.1842 H         1 <0>         0.1050
     26 H6          3.7219    4.3046   -7.8495 H         1 <0>         0.0826
     27 H7          5.4294    4.1292   -7.3787 H         1 <0>         0.0827
     28 H8          2.3126    4.8845    0.5194 H         1 <0>         0.0957
     29 H9          3.2233    3.3553    0.5031 H         1 <0>         0.1095
     30 H10         2.1175    1.2560   -0.0115 H         1 <0>         0.1270
     31 H11         0.0021   -0.0041    0.0020 H         1 <0>         0.1242
     32 H12        -2.1469    1.1980    0.0188 H         1 <0>         0.1219
     33 H13        -2.1802    3.6600    0.0414 H         1 <0>         0.1215
     34 H14        -0.0647    4.9201    0.0288 H         1 <0>         0.1179
@<TRIPOS>BOND
     1    1    2 1
     2    1   22 1
     3    1   23 1
     4    1   24 1
     5    2    8 am
     6    2    3 1
     7    3   13 1
     8    3    4 2
     9    4    5 1
    10    4   11 1
    11    5    6 2
    12    5    7 am
    13    7    8 am
    14    7   10 1
    15    8    9 2
    16   10   25 1
    17   10   26 1
    18   10   27 1
    19   11   12 2
    20   12   13 1
    21   12   15 1
    22   13   14 1
    23   15   16 1
    24   15   28 1
    25   15   29 1
    26   16   21 ar
    27   16   17 ar
    28   17   18 ar
    29   17   30 1
    30   18   19 ar
    31   18   31 1
    32   19   20 ar
    33   19   32 1
    34   20   21 ar
    35   20   33 1
    36   21   34 1
@<TRIPOS>MOLECULE
ZINC15880093
   34    36     0     0     0
SMALL
USER_CHARGES

@<TRIPOS>ATOM
      1 C1         -0.0178    1.4608    0.0101 C.3       1 <0>         0.0854
      2 N1          0.0021   -0.0041    0.0020 N.am      1 <0>        -0.5106
      3 C2         -1.1889   -0.7120    0.0039 C.2       1 <0>         0.3238
      4 C3         -1.1437   -2.1005   -0.0039 C.2       1 <0>        -0.1540
      5 C4          0.1107   -2.7476   -0.0134 C.2       1 <0>         0.5938
      6 O1          0.1765   -3.9638   -0.0207 O.2       1 <0>        -0.5125
      7 N2          1.2361   -2.0032   -0.0148 N.am      1 <0>        -0.5511
      8 C5          1.1776   -0.6603   -0.0127 C.2       1 <0>         0.7080
      9 O2          2.2126   -0.0219   -0.0196 O.2       1 <0>        -0.5321
     10 C6          2.5413   -2.6685   -0.0246 C.3       1 <0>         0.0833
     11 N3         -2.4557   -2.5297    0.0001 N.pl3     1 <0>        -0.5129
     12 H1         -2.7618   -3.4502   -0.0030 H         1 <0>         0.4351
     13 C7         -3.2306   -1.4275    0.0098 C.2       1 <0>         0.3086
     14 N4         -2.4766   -0.3579    0.0120 N.2       1 <0>        -0.4911
     15 C8         -4.7376   -1.4266    0.0162 C.3       1 <0>        -0.0169
     16 C9         -5.2635   -2.6576    0.7829 C.3       1 <0>        -0.1247
     17 C10        -6.5224   -3.0893   -0.0094 C.3       1 <0>        -0.1243
     18 C11        -6.1023   -2.8421   -1.4796 C.3       1 <0>        -0.1289
     19 C12        -5.2709   -1.5439   -1.4224 C.3       1 <0>        -0.1171
     20 H2          1.0048    1.8381    0.0023 H         1 <0>         0.1034
     21 H3         -0.5450    1.8219   -0.8730 H         1 <0>         0.0796
     22 H4         -0.5280    1.8123    0.9069 H         1 <0>         0.0799
     23 H5          2.8601   -2.8279   -1.0547 H         1 <0>         0.0772
     24 H6          3.2716   -2.0434    0.4891 H         1 <0>         0.0972
     25 H7          2.4632   -3.6292    0.4844 H         1 <0>         0.0953
     26 H8         -5.1081   -0.5116    0.4783 H         1 <0>         0.1182
     27 H9         -4.5198   -3.4544    0.7812 H         1 <0>         0.0624
     28 H10        -5.5302   -2.3856    1.8042 H         1 <0>         0.0826
     29 H11        -6.7412   -4.1439    0.1577 H         1 <0>         0.0739
     30 H12        -7.3782   -2.4691    0.2573 H         1 <0>         0.0763
     31 H13        -5.4941   -3.6687   -1.8467 H         1 <0>         0.0666
     32 H14        -6.9812   -2.7047   -2.1096 H         1 <0>         0.0745
     33 H15        -5.9010   -0.6863   -1.6581 H         1 <0>         0.0826
     34 H16        -4.4397   -1.6015   -2.1252 H         1 <0>         0.0685
@<TRIPOS>BOND
     1    1    2 1
     2    1   20 1
     3    1   21 1
     4    1   22 1
     5    2    8 am
     6    2    3 1
     7    3   14 1
     8    3    4 2
     9    4    5 1
    10    4   11 1
    11    5    6 2
    12    5    7 am
    13    7    8 am
    14    7   10 1
    15    8    9 2
    16   10   23 1
    17   10   24 1
    18   10   25 1
    19   11   12 1
    20   11   13 1
    21   13   14 2
    22   13   15 1
    23   15   19 1
    24   15   16 1
    25   15   26 1
    26   16   17 1
    27   16   27 1
    28   16   28 1
    29   17   18 1
    30   17   29 1
    31   17   30 1
    32   18   19 1
    33   18   31 1
    34   18   32 1
    35   19   33 1
    36   19   34 1
@<TRIPOS>MOLECULE
ZINC00527234
   30    32     0     0     0
SMALL
USER_CHARGES

@<TRIPOS>ATOM
      1 C1         -0.0127    1.0858    0.0080 C.3       1 <0>         0.0876
      2 N1         -0.7213    1.5711   -1.1789 N.am      1 <0>        -0.5109
      3 C2         -2.0906    1.7830   -1.1289 C.2       1 <0>         0.3265
      4 C3         -2.7392    2.2446   -2.2699 C.2       1 <0>        -0.1354
      5 C4         -1.9857    2.4822   -3.4406 C.2       1 <0>         0.5940
      6 O1         -2.5302    2.8869   -4.4521 O.2       1 <0>        -0.5084
      7 N2         -0.6557    2.2563   -3.4253 N.am      1 <0>        -0.5503
      8 C5         -0.0408    1.8159   -2.3143 C.2       1 <0>         0.7076
      9 O2          1.1605    1.6288   -2.3368 O.2       1 <0>        -0.5258
     10 C6          0.1314    2.5009   -4.6365 C.3       1 <0>         0.0822
     11 N3         -4.0735    2.3639   -1.9402 N.pl3     1 <0>        -0.5073
     12 C7         -4.1939    1.9805   -0.6399 C.2       1 <0>         0.3310
     13 N4         -3.0091    1.6394   -0.1746 N.2       1 <0>        -0.4733
     14 H1         -4.7886    2.6637   -2.5231 H         1 <0>         0.4387
     15 C8         -5.4566    1.9519    0.1306 C.ar      1 <0>         0.0126
     16 C9         -6.6677    2.3305   -0.4593 C.ar      1 <0>        -0.1561
     17 C10        -7.8219    2.2882    0.2963 C.ar      1 <0>         0.1098
     18 N5         -7.7929    1.8985    1.5560 N.ar      1 <0>        -0.4714
     19 C11        -6.6735    1.5335    2.1503 C.ar      1 <0>         0.1074
     20 C12        -5.4739    1.5399    1.4678 C.ar      1 <0>        -0.1204
     21 H2          0.0021   -0.0041    0.0020 H         1 <0>         0.0754
     22 H3          1.0099    1.4631    0.0003 H         1 <0>         0.0956
     23 H4         -0.5229    1.4373    0.9048 H         1 <0>         0.0928
     24 H5         -0.5250    2.8563   -5.4308 H         1 <0>         0.1045
     25 H6          0.8920    3.2537   -4.4296 H         1 <0>         0.0842
     26 H7          0.6128    1.5746   -4.9502 H         1 <0>         0.0842
     27 H8         -6.6987    2.6513   -1.4900 H         1 <0>         0.1365
     28 H9         -8.7615    2.5785   -0.1500 H         1 <0>         0.1663
     29 H10        -6.6965    1.2214    3.1840 H         1 <0>         0.1682
     30 H11        -4.5618    1.2357    1.9595 H         1 <0>         0.1541
@<TRIPOS>BOND
     1    1   21 1
     2    1   22 1
     3    1   23 1
     4    1    2 1
     5    2    3 1
     6    2    8 am
     7    3   13 1
     8    3    4 2
     9    4    5 1
    10    4   11 1
    11    5    7 am
    12    5    6 2
    13    7    8 am
    14    7   10 1
    15    8    9 2
    16   10   24 1
    17   10   25 1
    18   10   26 1
    19   11   14 1
    20   11   12 1
    21   12   15 1
    22   12   13 2
    23   15   20 ar
    24   15   16 ar
    25   16   17 ar
    26   16   27 1
    27   17   18 ar
    28   17   28 1
    29   18   19 ar
    30   19   20 ar
    31   19   29 1
    32   20   30 1
@<TRIPOS>MOLECULE
ZINC00527234
   31    33     0     0     0
SMALL
USER_CHARGES
1,3-dimethyl-8-(4-pyridyl)-7H-purine-2,6-dione
@<TRIPOS>ATOM
      1 C1         -1.5762    4.8093    2.7072 C.3       1 <0>         0.0615
      2 N1         -1.4531    3.3620    2.5161 N.am      1 <0>        -0.5118
      3 C2         -1.9773    2.4923    3.4602 C.2       1 <0>         0.3583
      4 C3         -1.8469    1.1225    3.2547 C.2       1 <0>        -0.0627
      5 C4         -1.1868    0.6610    2.0946 C.2       1 <0>         0.5882
      6 O1         -1.0602   -0.5333    1.8918 O.2       1 <0>        -0.4616
      7 N2         -0.6984    1.5583    1.2133 N.am      1 <0>        -0.5404
      8 C5         -0.8266    2.8790    1.4270 C.2       1 <0>         0.7077
      9 O2         -0.3688    3.6578    0.6130 O.2       1 <0>        -0.4765
     10 C6         -0.0127    1.0858    0.0080 C.3       1 <0>         0.0740
     11 N3         -2.4494    0.5062    4.3320 N.pl3     1 <0>        -0.4494
     12 H1         -2.5275   -0.4784    4.4883 H         1 <0>         0.4851
     13 C7         -2.9170    1.4956    5.1411 C.cat     1 <0>         0.4300
     14 C8         -3.6363    1.2892    6.4174 C.ar      1 <0>        -0.0470
     15 C9         -3.8992    0.0002    6.8944 C.ar      1 <0>        -0.1247
     16 C10        -4.5682   -0.1462    8.0927 C.ar      1 <0>         0.1305
     17 N4         -4.9670    0.9072    8.7789 N.ar      1 <0>        -0.4420
     18 C11        -4.7447    2.1389    8.3628 C.ar      1 <0>         0.1292
     19 C12        -4.0777    2.3774    7.1783 C.ar      1 <0>        -0.1289
     20 H2         -0.7120    5.1776    3.2600 H         1 <0>         0.0981
     21 H3         -1.6228    5.3014    1.7358 H         1 <0>         0.1227
     22 H4         -2.4854    5.0257    3.2681 H         1 <0>         0.0907
     23 H5          0.0021   -0.0041    0.0020 H         1 <0>         0.1145
     24 H6          1.0099    1.4631    0.0003 H         1 <0>         0.0962
     25 H7         -0.5399    1.4469   -0.8751 H         1 <0>         0.0962
     26 H8         -3.5796   -0.8669    6.3355 H         1 <0>         0.1513
     27 H9         -4.7722   -1.1369    8.4712 H         1 <0>         0.1832
     28 H10        -5.0896    2.9722    8.9570 H         1 <0>         0.1826
     29 H11        -3.8988    3.3886    6.8439 H         1 <0>         0.1490
     30 N5         -2.6291    2.6682    4.6103 N.pl3     1 <0>        -0.4887
     31 H12        -2.8702    3.5781    5.0202 H         1 <0>         0.4844
@<TRIPOS>BOND
     1    1    2 1
     2    1   20 1
     3    1   21 1
     4    1   22 1
     5    2    8 am
     6    2    3 1
     7    3    4 2
     8    3   30 1
     9    4    5 1
    10    4   11 1
    11    5    6 2
    12    5    7 am
    13    7    8 am
    14    7   10 1
    15    8    9 2
    16   10   23 1
    17   10   24 1
    18   10   25 1
    19   11   12 1
    20   11   13 1
    21   13   14 1
    22   13   30 2
    23   14   19 ar
    24   14   15 ar
    25   15   16 ar
    26   15   26 1
    27   16   17 ar
    28   16   27 1
    29   17   18 ar
    30   18   19 ar
    31   18   28 1
    32   19   29 1
    33   30   31 1
@<TRIPOS>MOLECULE
ZINC26972070
   52    56     0     0     0
SMALL
USER_CHARGES
benzyl-phenyl-propoxy-BLAH
@<TRIPOS>ATOM
      1 C1          3.2588    0.5339    8.2821 C.3       1 <0>        -0.1510
      2 C2          2.5051    0.2831    6.9744 C.3       1 <0>        -0.1267
      3 C3          2.1630    1.6221    6.3180 C.3       1 <0>         0.0765
      4 O1          1.4591    1.3878    5.0967 O.3       1 <0>        -0.3008
      5 C4          1.0815    2.4735    4.3890 C.2       1 <0>         0.6330
      6 N1          1.3778    3.6581    4.8560 N.2       1 <0>        -0.5924
      7 C5          1.0372    4.7851    4.2113 C.2       1 <0>         0.3716
      8 C6          0.3424    4.7062    2.9992 C.2       1 <0>        -0.2817
      9 C7          0.1199    6.0201    2.5530 C.2       1 <0>         0.1357
     10 N2          0.6385    6.8431    3.4244 N.2       1 <0>        -0.2746
     11 N3          1.2176    6.1117    4.4692 N.pl3     1 <0>        -0.3085
     12 C8          1.8685    6.6500    5.5864 C.ar      1 <0>         0.1509
     13 C9          1.7596    6.0267    6.8226 C.ar      1 <0>        -0.1120
     14 C10         2.4078    6.5566    7.9210 C.ar      1 <0>        -0.1018
     15 C11         3.1545    7.7135    7.7934 C.ar      1 <0>        -0.1182
     16 C12         3.2602    8.3397    6.5651 C.ar      1 <0>        -0.1034
     17 C13         2.6195    7.8114    5.4615 C.ar      1 <0>        -0.1075
     18 C14         0.0051    3.3722    2.4684 C.2       1 <0>         0.4420
     19 N4         -0.6285    3.0386    1.3762 N.2       1 <0>        -0.5243
     20 C15        -0.7288    1.5792    1.2668 C.3       1 <0>         0.0594
     21 H1         -1.7822    1.2723    1.1880 H         1 <0>         0.1101
     22 C16        -0.0193    1.0578    2.5304 C.3       1 <0>         0.0774
     23 N5          0.4062    2.2867    3.2185 N.pl3     1 <0>        -0.5506
     24 C17        -0.0127    1.0858    0.0080 C.3       1 <0>        -0.0727
     25 C18        -0.7416    1.5850   -1.2129 C.ar      1 <0>        -0.0754
     26 C19        -1.7499    0.8246   -1.7750 C.ar      1 <0>        -0.1192
     27 C20        -2.4220    1.2850   -2.8918 C.ar      1 <0>        -0.1223
     28 C21        -2.0785    2.5007   -3.4529 C.ar      1 <0>        -0.1227
     29 C22        -1.0663    3.2585   -2.8942 C.ar      1 <0>        -0.1206
     30 C23        -0.3980    2.8008   -1.7740 C.ar      1 <0>        -0.0910
     31 H2          3.5047   -0.4288    8.7540 H         1 <0>         0.0686
     32 H3          2.6272    1.1247    8.9618 H         1 <0>         0.0608
     33 H4          4.1863    1.0861    8.0706 H         1 <0>         0.0610
     34 H5          3.1367   -0.3077    6.2947 H         1 <0>         0.0759
     35 H6          1.5776   -0.2692    7.1859 H         1 <0>         0.0758
     36 H7          1.5314    2.2129    6.9977 H         1 <0>         0.0791
     37 H8          3.0905    2.1744    6.1065 H         1 <0>         0.0802
     38 H9         -0.3918    6.3012    1.6445 H         1 <0>         0.2017
     39 H10         1.1726    5.1258    6.9238 H         1 <0>         0.1326
     40 H11         2.3277    6.0694    8.8815 H         1 <0>         0.1323
     41 H12         3.6565    8.1286    8.6549 H         1 <0>         0.1297
     42 H13         3.8448    9.2427    6.4685 H         1 <0>         0.1332
     43 H14         2.7028    8.3008    4.5024 H         1 <0>         0.1343
     44 H15        -0.7265    0.4660    3.1302 H         1 <0>         0.1005
     45 H16         0.8323    0.4257    2.2384 H         1 <0>         0.1016
     46 H17         1.0193    1.4666    0.0002 H         1 <0>         0.0730
     47 H18         0.0023   -0.0141    0.0019 H         1 <0>         0.0840
     48 H19        -2.0153   -0.1273   -1.3392 H         1 <0>         0.1186
     49 H20        -3.2130    0.6931   -3.3281 H         1 <0>         0.1195
     50 H21        -2.6011    2.8587   -4.3276 H         1 <0>         0.1191
     51 H22        -0.7979    4.2083   -3.3326 H         1 <0>         0.1199
     52 H23         0.3927    3.3928   -1.3375 H         1 <0>         0.1190
@<TRIPOS>BOND
     1    1    2 1
     2    1   31 1
     3    1   32 1
     4    1   33 1
     5    2    3 1
     6    2   34 1
     7    2   35 1
     8    3    4 1
     9    3   36 1
    10    3   37 1
    11    4    5 1
    12    5   23 1
    13    5    6 2
    14    6    7 1
    15    7   11 1
    16    7    8 2
    17    8    9 1
    18    8   18 1
    19    9   10 2
    20    9   38 1
    21   10   11 1
    22   11   12 1
    23   12   17 ar
    24   12   13 ar
    25   13   14 ar
    26   13   39 1
    27   14   15 ar
    28   14   40 1
    29   15   16 ar
    30   15   41 1
    31   16   17 ar
    32   16   42 1
    33   17   43 1
    34   18   23 1
    35   18   19 2
    36   19   20 1
    37   20   21 1
    38   20   22 1
    39   20   24 1
    40   22   23 1
    41   22   44 1
    42   22   45 1
    43   24   25 1
    44   24   46 1
    45   24   47 1
    46   25   30 ar
    47   25   26 ar
    48   26   27 ar
    49   26   48 1
    50   27   28 ar
    51   27   49 1
    52   28   29 ar
    53   28   50 1
    54   29   30 ar
    55   29   51 1
    56   30   52 1
@<TRIPOS>MOLECULE
ZINC04019690
   32    34     0     0     0
SMALL
USER_CHARGES
8-(3-hydroxyphenyl)-1,3-dimethyl-7H-purine-2,6-dione
@<TRIPOS>ATOM
      1 C1          2.7657    8.5870    0.0239 C.3       1 <0>         0.0874
      2 N1          1.3008    8.5863    0.0372 N.am      1 <0>        -0.5104
      3 C2          0.6092    7.3847    0.0372 C.2       1 <0>         0.3202
      4 C3         -0.7817    7.4121    0.0504 C.2       1 <0>        -0.1508
      5 C4         -1.4445    8.6578    0.0633 C.2       1 <0>         0.5942
      6 O1         -2.6616    8.7078    0.0745 O.2       1 <0>        -0.5113
      7 N2         -0.7151    9.7927    0.0625 N.am      1 <0>        -0.5507
      8 C5          0.6283    9.7524    0.0502 C.2       1 <0>         0.7070
      9 O2          1.2523   10.7961    0.0503 O.2       1 <0>        -0.5308
     10 C6         -1.3977   11.0889    0.0759 C.3       1 <0>         0.0782
     11 N3         -1.1993    6.0955    0.0468 N.pl3     1 <0>        -0.5233
     12 H1         -2.2736    5.8592    0.0555 H         1 <0>         0.4703
     13 C7         -0.0760    5.3264    0.0319 C.2       1 <0>         0.3487
     14 N4          0.9865    6.1068    0.0321 N.2       1 <0>        -0.4853
     15 C8         -0.0515    3.8483    0.0232 C.ar      1 <0>         0.0061
     16 C9         -1.2474    3.1277    0.0308 C.ar      1 <0>        -0.1415
     17 C10        -1.2208    1.7484    0.0174 C.ar      1 <0>        -0.0735
     18 C11        -0.0126    1.0758    0.0080 C.ar      1 <0>        -0.1422
     19 C12         1.1815    1.7837    0.0004 C.ar      1 <0>         0.1607
     20 C13         1.1664    3.1685    0.0079 C.ar      1 <0>        -0.1639
     21 O3          2.3660    1.1175   -0.0141 O.3       1 <0>        -0.5064
     22 H2          3.1328    7.5501    0.0144 H         1 <0>         0.0998
     23 H3          3.1403    9.1004    0.9217 H         1 <0>         0.0807
     24 H4          3.1240    9.1110   -0.8745 H         1 <0>         0.0808
     25 H5         -0.6509   11.8966    0.0732 H         1 <0>         0.1078
     26 H6         -2.0188   11.1668    0.9804 H         1 <0>         0.0832
     27 H7         -2.0358   11.1765   -0.8158 H         1 <0>         0.0833
     28 H8         -2.1927    3.6498    0.0426 H         1 <0>         0.1242
     29 H9         -2.1466    1.1921    0.0187 H         1 <0>         0.1385
     30 H10         0.0021   -0.0041    0.0020 H         1 <0>         0.1354
     31 H11         2.0947    3.7204    0.0017 H         1 <0>         0.1442
     32 H12         3.3123    1.6782   -0.0201 H         1 <0>         0.4395
@<TRIPOS>BOND
     1    1    2 1
     2    1   22 1
     3    1   23 1
     4    1   24 1
     5    2    8 am
     6    2    3 1
     7    3   14 1
     8    3    4 2
     9    4    5 1
    10    4   11 1
    11    5    6 2
    12    5    7 am
    13    7    8 am
    14    7   10 1
    15    8    9 2
    16   10   25 1
    17   10   26 1
    18   10   27 1
    19   11   12 1
    20   11   13 1
    21   13   14 2
    22   13   15 1
    23   15   20 ar
    24   15   16 ar
    25   16   17 ar
    26   16   28 1
    27   17   18 ar
    28   17   29 1
    29   18   19 ar
    30   18   30 1
    31   19   20 ar
    32   19   21 1
    33   20   31 1
    34   21   32 1
@<TRIPOS>MOLECULE
ZINC00005258
   41    44     0     0     0
SMALL
USER_CHARGES

@<TRIPOS>ATOM
      1 C1         -0.0162    1.3434    0.0094 C.2       1 <0>        -0.2218
      2 C2          1.3251    1.7745   -0.0011 C.2       1 <0>        -0.0887
      3 C3          2.0961    0.6548   -0.0144 C.2       1 <0>        -0.0062
      4 O1          1.2796   -0.4166   -0.0124 O.3       1 <0>        -0.1583
      5 C4          0.0021   -0.0041    0.0020 C.2       1 <0>         0.0256
      6 C5          3.5734    0.6193   -0.0287 C.2       1 <0>         0.4157
      7 N1          4.3742    1.6925   -0.0248 N.2       1 <0>        -0.4645
      8 C6          5.6386    1.3040   -0.0409 C.2       1 <0>         0.5441
      9 N2          6.8046    1.9657   -0.0448 N.2       1 <0>        -0.5016
     10 C7          7.9464    1.2979   -0.0627 C.2       1 <0>         0.6561
     11 N3          7.9670   -0.0378   -0.0777 N.pl3     1 <0>        -0.5981
     12 C8          6.8416   -0.7289   -0.0744 C.cat     1 <0>         0.7695
     13 N4          5.6489   -0.0664   -0.0556 N.pl3     1 <0>        -0.4039
     14 N5          4.3107   -0.4751   -0.0417 N.2       1 <0>        -0.2939
     15 N6          6.8714   -2.0989   -0.0903 N.pl3     1 <0>        -0.7459
     16 N7          9.1377    1.9935   -0.0665 N.pl3     1 <0>        -0.6525
     17 C9          9.1306    3.4584   -0.0508 C.3       1 <0>         0.1217
     18 C10        10.5705    3.9755   -0.0588 C.3       1 <0>        -0.0898
     19 C11        10.5632    5.4824   -0.0426 C.ar      1 <0>        -0.1082
     20 C12        10.5428    6.1853   -1.2331 C.ar      1 <0>        -0.0920
     21 C13        10.5366    7.5667   -1.2210 C.ar      1 <0>        -0.1431
     22 C14        10.5502    8.2486   -0.0129 C.ar      1 <0>         0.1179
     23 C15        10.5702    7.5411    1.1802 C.ar      1 <0>        -0.1430
     24 C16        10.5712    6.1597    1.1628 C.ar      1 <0>        -0.0920
     25 O2         10.5445    9.6076    0.0017 O.3       1 <0>        -0.4985
     26 H1         -0.8931    1.9737    0.0252 H         1 <0>         0.1685
     27 H2          1.6734    2.7967    0.0008 H         1 <0>         0.1702
     28 H3         -0.8667   -0.6456    0.0069 H         1 <0>         0.2226
     29 H4          7.7217   -2.5654   -0.1039 H         1 <0>         0.4476
     30 H5          6.0421   -2.6021   -0.0878 H         1 <0>         0.4601
     31 H6          9.9800    1.5127   -0.0796 H         1 <0>         0.4298
     32 H7          8.6066    3.8287   -0.9319 H         1 <0>         0.0992
     33 H8          8.6234    3.8096    0.8478 H         1 <0>         0.0992
     34 H9         11.0945    3.6052    0.8223 H         1 <0>         0.0876
     35 H10        11.0777    3.6243   -0.9574 H         1 <0>         0.0877
     36 H11        10.5322    5.6540   -2.1733 H         1 <0>         0.1282
     37 H12        10.5214    8.1153   -2.1511 H         1 <0>         0.1332
     38 H13        10.5809    8.0697    2.1220 H         1 <0>         0.1332
     39 H14        10.5822    5.6084    2.0914 H         1 <0>         0.1282
     40 H15         9.6596    9.9970    0.0181 H         1 <0>         0.3968
     41 H16         8.8171   -0.5047   -0.0913 H         1 <0>         0.4591
@<TRIPOS>BOND
     1    1    5 2
     2    1    2 1
     3    1   26 1
     4    2    3 2
     5    2   27 1
     6    3    4 1
     7    3    6 1
     8    4    5 1
     9    5   28 1
    10    6   14 2
    11    6    7 1
    12    7    8 2
    13    8   13 1
    14    8    9 1
    15    9   10 2
    16   10   11 1
    17   10   16 1
    18   11   12 2
    19   11   41 1
    20   12   13 1
    21   12   15 1
    22   13   14 1
    23   15   29 1
    24   15   30 1
    25   16   17 1
    26   16   31 1
    27   17   18 1
    28   17   32 1
    29   17   33 1
    30   18   19 1
    31   18   34 1
    32   18   35 1
    33   19   24 ar
    34   19   20 ar
    35   20   21 ar
    36   20   36 1
    37   21   22 ar
    38   21   37 1
    39   22   23 ar
    40   22   25 1
    41   23   24 ar
    42   23   38 1
    43   24   39 1
    44   25   40 1
@<TRIPOS>MOLECULE
ZINC09229229
   37    39     0     0     0
SMALL
USER_CHARGES

@<TRIPOS>ATOM
      1 C1         -0.0187    1.5258    0.0104 C.3       1 <0>        -0.1680
      2 C2          0.0021   -0.0041    0.0020 C.3       1 <0>         0.1152
      3 N1          0.6878   -0.4765   -1.2033 N.am      1 <0>        -0.5082
      4 C3         -0.0334   -0.7052   -2.3651 C.2       1 <0>         0.3290
      5 C4          0.6423   -1.1532   -3.4958 C.2       1 <0>        -0.1457
      6 C5          2.0362   -1.3610   -3.4264 C.2       1 <0>         0.5940
      7 O1          2.6500   -1.7525   -4.4030 O.2       1 <0>        -0.5110
      8 N2          2.6815   -1.1207   -2.2662 N.am      1 <0>        -0.5483
      9 C6          2.0179   -0.6826   -1.1826 C.2       1 <0>         0.7080
     10 O2          2.6341   -0.4721   -0.1556 O.2       1 <0>        -0.5290
     11 C7          4.1286   -1.3351   -2.1880 C.3       1 <0>         0.1102
     12 C8          4.8567   -0.0443   -2.5684 C.3       1 <0>        -0.1672
     13 N3         -0.3074   -1.2946   -4.4889 N.pl3     1 <0>        -0.5144
     14 H1         -0.1525   -1.5921   -5.3991 H         1 <0>         0.4365
     15 C9         -1.5027   -0.9366   -3.9443 C.2       1 <0>         0.3420
     16 N4         -1.3216   -0.5903   -2.6853 N.2       1 <0>        -0.4822
     17 C10        -2.7998   -0.9359   -4.6534 C.ar      1 <0>        -0.0386
     18 C11        -2.8676   -1.3299   -5.9908 C.ar      1 <0>        -0.0983
     19 C12        -4.0813   -1.3274   -6.6466 C.ar      1 <0>        -0.1167
     20 C13        -5.2296   -0.9352   -5.9818 C.ar      1 <0>        -0.0959
     21 C14        -5.1693   -0.5436   -4.6561 C.ar      1 <0>        -0.1189
     22 C15        -3.9628   -0.5469   -3.9870 C.ar      1 <0>        -0.0637
     23 H2          1.0039    1.9031    0.0027 H         1 <0>         0.0615
     24 H3         -0.5459    1.8868   -0.8726 H         1 <0>         0.0612
     25 H4         -0.5289    1.8773    0.9072 H         1 <0>         0.0787
     26 H5          0.5293   -0.3651    0.8851 H         1 <0>         0.1011
     27 H6         -1.0205   -0.3814    0.0098 H         1 <0>         0.0989
     28 H7          4.3995   -1.6188   -1.1711 H         1 <0>         0.1038
     29 H8          4.4158   -2.1304   -2.8759 H         1 <0>         0.1018
     30 H9          4.5859    0.2395   -3.5854 H         1 <0>         0.0605
     31 H10         4.5696    0.7510   -1.8806 H         1 <0>         0.0627
     32 H11         5.9334   -0.2038   -2.5102 H         1 <0>         0.0801
     33 H12        -1.9720   -1.6356   -6.5111 H         1 <0>         0.1225
     34 H13        -4.1353   -1.6320   -7.6814 H         1 <0>         0.1325
     35 H14        -6.1772   -0.9344   -6.5000 H         1 <0>         0.1304
     36 H15        -6.0692   -0.2385   -4.1429 H         1 <0>         0.1340
     37 H16        -3.9177   -0.2449   -2.9510 H         1 <0>         0.1415
@<TRIPOS>BOND
     1    1    2 1
     2    1   23 1
     3    1   24 1
     4    1   25 1
     5    2    3 1
     6    2   26 1
     7    2   27 1
     8    3    9 am
     9    3    4 1
    10    4   16 1
    11    4    5 2
    12    5    6 1
    13    5   13 1
    14    6    7 2
    15    6    8 am
    16    8    9 am
    17    8   11 1
    18    9   10 2
    19   11   12 1
    20   11   28 1
    21   11   29 1
    22   12   30 1
    23   12   31 1
    24   12   32 1
    25   13   14 1
    26   13   15 1
    27   15   16 2
    28   15   17 1
    29   17   22 ar
    30   17   18 ar
    31   18   19 ar
    32   18   33 1
    33   19   20 ar
    34   19   34 1
    35   20   21 ar
    36   20   35 1
    37   21   22 ar
    38   21   36 1
    39   22   37 1
@<TRIPOS>MOLECULE
ZINC12405300
   35    37     0     0     0
SMALL
USER_CHARGES

@<TRIPOS>ATOM
      1 C1         -0.0127    1.0858    0.0080 C.3       1 <0>         0.0878
      2 N1         -0.7213    1.5711   -1.1789 N.am      1 <0>        -0.5106
      3 C2         -2.0905    1.7830   -1.1291 C.2       1 <0>         0.3274
      4 C3         -2.7389    2.2446   -2.2701 C.2       1 <0>        -0.1418
      5 C4         -1.9863    2.4821   -3.4399 C.2       1 <0>         0.5942
      6 O1         -2.5313    2.8868   -4.4514 O.2       1 <0>        -0.5114
      7 N2         -0.6563    2.2564   -3.4252 N.am      1 <0>        -0.5508
      8 C5         -0.0409    1.8159   -2.3144 C.2       1 <0>         0.7076
      9 O2          1.1604    1.6289   -2.3372 O.2       1 <0>        -0.5280
     10 C6          0.1302    2.5007   -4.6368 C.3       1 <0>         0.0827
     11 N3         -4.0749    2.3640   -1.9400 N.pl3     1 <0>        -0.5112
     12 C7         -4.1946    1.9804   -0.6392 C.2       1 <0>         0.3419
     13 N4         -3.0090    1.6394   -0.1746 N.2       1 <0>        -0.4787
     14 H1         -4.7901    2.6638   -2.5227 H         1 <0>         0.4378
     15 C8         -5.4559    1.9515    0.1314 C.ar      1 <0>         0.0026
     16 C9         -6.6552    2.3329   -0.4733 C.ar      1 <0>        -0.1363
     17 C10        -7.8304    2.3048    0.2488 C.ar      1 <0>        -0.0741
     18 C11        -7.8251    1.8998    1.5710 C.ar      1 <0>        -0.1872
     19 C12        -6.6374    1.5192    2.1808 C.ar      1 <0>         0.1305
     20 C13        -5.4530    1.5377    1.4634 C.ar      1 <0>        -0.0976
     21 O3         -6.6380    1.1229    3.4808 O.3       1 <0>        -0.3120
     22 C14        -7.8962    1.1225    4.1584 C.3       1 <0>         0.0249
     23 H2          0.0021   -0.0041    0.0020 H         1 <0>         0.0748
     24 H3          1.0099    1.4631    0.0003 H         1 <0>         0.0948
     25 H4         -0.5229    1.4373    0.9048 H         1 <0>         0.0930
     26 H5         -0.5267    2.8558   -5.4309 H         1 <0>         0.1040
     27 H6          0.8908    3.2536   -4.4305 H         1 <0>         0.0835
     28 H7          0.6115    1.5744   -4.9504 H         1 <0>         0.0834
     29 H8         -6.6628    2.6501   -1.5056 H         1 <0>         0.1255
     30 H9         -8.7574    2.6004   -0.2199 H         1 <0>         0.1363
     31 H10        -8.7481    1.8798    2.1314 H         1 <0>         0.1359
     32 H11        -4.5292    1.2370    1.9352 H         1 <0>         0.1503
     33 H12        -8.5842    0.4495    3.6467 H         1 <0>         0.0582
     34 H13        -7.7556    0.7862    5.1856 H         1 <0>         0.1044
     35 H14        -8.3085    2.1315    4.1596 H         1 <0>         0.0582
@<TRIPOS>BOND
     1    1   23 1
     2    1   24 1
     3    1   25 1
     4    1    2 1
     5    2    3 1
     6    2    8 am
     7    3   13 1
     8    3    4 2
     9    4    5 1
    10    4   11 1
    11    5    7 am
    12    5    6 2
    13    7    8 am
    14    7   10 1
    15    8    9 2
    16   10   26 1
    17   10   27 1
    18   10   28 1
    19   11   14 1
    20   11   12 1
    21   12   15 1
    22   12   13 2
    23   15   20 ar
    24   15   16 ar
    25   16   17 ar
    26   16   29 1
    27   17   18 ar
    28   17   30 1
    29   18   19 ar
    30   18   31 1
    31   19   20 ar
    32   19   21 1
    33   20   32 1
    34   21   22 1
    35   22   33 1
    36   22   34 1
    37   22   35 1
@<TRIPOS>MOLECULE
ZINC12405300
   36    38     0     0     0
SMALL
USER_CHARGES
8-(3-methoxyphenyl)-1,3-dimethyl-7H-purine-2,6-dione
@<TRIPOS>ATOM
      1 C1         -1.5766    4.8088    2.7080 C.3       1 <0>         0.0620
      2 N1         -1.4532    3.3616    2.5163 N.am      1 <0>        -0.5123
      3 C2         -1.9771    2.4914    3.4600 C.2       1 <0>         0.3565
      4 C3         -1.8463    1.1217    3.2538 C.2       1 <0>        -0.0678
      5 C4         -1.1868    0.6610    2.0946 C.2       1 <0>         0.5888
      6 O1         -1.0601   -0.5334    1.8916 O.2       1 <0>        -0.4648
      7 N2         -0.6984    1.5583    1.2133 N.am      1 <0>        -0.5410
      8 C5         -0.8266    2.8790    1.4270 C.2       1 <0>         0.7080
      9 O2         -0.3693    3.6580    0.6129 O.2       1 <0>        -0.4795
     10 C6         -0.0127    1.0858    0.0080 C.3       1 <0>         0.0745
     11 N3         -2.4491    0.5042    4.3324 N.pl3     1 <0>        -0.4576
     12 H1         -2.5271   -0.4804    4.4886 H         1 <0>         0.4839
     13 C7         -2.9166    1.4940    5.1418 C.cat     1 <0>         0.4431
     14 C8         -3.6349    1.2879    6.4174 C.ar      1 <0>        -0.0601
     15 C9         -3.8830   -0.0055    6.8807 C.ar      1 <0>        -0.1029
     16 C10        -4.5532   -0.1941    8.0717 C.ar      1 <0>        -0.0628
     17 C11        -4.9804    0.8946    8.8097 C.ar      1 <0>        -0.1509
     18 C12        -4.7382    2.1844    8.3571 C.ar      1 <0>         0.1463
     19 C13        -4.0621    2.3852    7.1653 C.ar      1 <0>        -0.1101
     20 O3         -5.1603    3.2506    9.0865 O.3       1 <0>        -0.3070
     21 C14        -5.8463    2.9702   10.3083 C.3       1 <0>         0.0194
     22 H2         -0.7125    5.1771    3.2609 H         1 <0>         0.0972
     23 H3         -1.6233    5.3013    1.7367 H         1 <0>         0.1217
     24 H4         -2.4859    5.0248    3.2690 H         1 <0>         0.0906
     25 H5          0.0021   -0.0041    0.0020 H         1 <0>         0.1139
     26 H6          1.0099    1.4631    0.0003 H         1 <0>         0.0953
     27 H7         -0.5399    1.4469   -0.8751 H         1 <0>         0.0954
     28 H8         -3.5508   -0.8580    6.3068 H         1 <0>         0.1387
     29 H9         -4.7446   -1.1952    8.4291 H         1 <0>         0.1535
     30 H10        -5.5039    0.7409    9.7417 H         1 <0>         0.1515
     31 H11        -3.8692    3.3881    6.8142 H         1 <0>         0.1418
     32 H12        -6.7426    2.3872   10.0961 H         1 <0>         0.0658
     33 H13        -5.1922    2.4029   10.9703 H         1 <0>         0.0658
     34 H14        -6.1276    3.9065   10.7902 H         1 <0>         0.1144
     35 N4         -2.6288    2.6671    4.6105 N.pl3     1 <0>        -0.4948
     36 H15        -2.8699    3.5771    5.0204 H         1 <0>         0.4837
@<TRIPOS>BOND
     1    1    2 1
     2    1   22 1
     3    1   23 1
     4    1   24 1
     5    2    8 am
     6    2    3 1
     7    3    4 2
     8    3   35 1
     9    4    5 1
    10    4   11 1
    11    5    6 2
    12    5    7 am
    13    7    8 am
    14    7   10 1
    15    8    9 2
    16   10   25 1
    17   10   26 1
    18   10   27 1
    19   11   12 1
    20   11   13 1
    21   13   14 1
    22   13   35 2
    23   14   19 ar
    24   14   15 ar
    25   15   16 ar
    26   15   28 1
    27   16   17 ar
    28   16   29 1
    29   17   18 ar
    30   17   30 1
    31   18   19 ar
    32   18   20 1
    33   19   31 1
    34   20   21 1
    35   21   32 1
    36   21   33 1
    37   21   34 1
    38   35   36 1
@<TRIPOS>MOLECULE
ZINC12405693
   39    40     0     0     0
SMALL
USER_CHARGES

@<TRIPOS>ATOM
      1 C1         -0.0187    1.5258    0.0104 C.3       1 <0>        -0.1522
      2 C2          0.0021   -0.0041    0.0020 C.3       1 <0>        -0.1192
      3 C3         -1.4333   -0.5336    0.0129 C.3       1 <0>        -0.1341
      4 C4         -1.4126   -2.0635    0.0045 C.3       1 <0>         0.1189
      5 N1         -2.7870   -2.5706    0.0149 N.am      1 <0>        -0.5080
      6 C5         -3.4264   -2.8111    1.2202 C.2       1 <0>         0.3230
      7 C6         -4.7297   -3.2918    1.2037 C.2       1 <0>        -0.1552
      8 C7         -5.3626   -3.5206   -0.0371 C.2       1 <0>         0.5933
      9 O1         -6.5048   -3.9414   -0.0777 O.2       1 <0>        -0.5118
     10 N2         -4.6876   -3.2672   -1.1776 N.am      1 <0>        -0.5485
     11 C8         -3.4287   -2.7970   -1.1469 C.2       1 <0>         0.7069
     12 O2         -2.8532   -2.5749   -2.1949 O.2       1 <0>        -0.5285
     13 C9         -5.3386   -3.5024   -2.4688 C.3       1 <0>         0.1137
     14 C10        -6.0645   -2.2310   -2.9131 C.3       1 <0>        -0.1336
     15 C11        -6.7444   -2.4767   -4.2615 C.3       1 <0>        -0.1193
     16 C12        -7.4703   -1.2052   -4.7058 C.3       1 <0>        -0.1523
     17 N3         -5.1052   -3.4354    2.5244 N.pl3     1 <0>        -0.5183
     18 H1         -5.9621   -3.7533    2.8493 H         1 <0>         0.4383
     19 C13        -4.0554   -3.0510    3.2762 C.2       1 <0>         0.2769
     20 N4         -3.0677   -2.6836    2.5003 N.2       1 <0>        -0.4988
     21 H2          1.0039    1.9031    0.0027 H         1 <0>         0.0568
     22 H3         -0.5459    1.8868   -0.8726 H         1 <0>         0.0540
     23 H4         -0.5289    1.8773    0.9072 H         1 <0>         0.0539
     24 H5          0.5123   -0.3556   -0.8948 H         1 <0>         0.0661
     25 H6          0.5293   -0.3651    0.8851 H         1 <0>         0.0663
     26 H7         -1.9435   -0.1821    0.9097 H         1 <0>         0.0684
     27 H8         -1.9605   -0.1726   -0.8702 H         1 <0>         0.0681
     28 H9         -0.9024   -2.4150   -0.8923 H         1 <0>         0.1002
     29 H10        -0.8854   -2.4246    0.8875 H         1 <0>         0.0990
     30 H11        -4.5868   -3.7699   -3.2113 H         1 <0>         0.1033
     31 H12        -6.0575   -4.3157   -2.3703 H         1 <0>         0.1015
     32 H13        -6.8162   -1.9635   -2.1705 H         1 <0>         0.0675
     33 H14        -5.3455   -1.4177   -3.0115 H         1 <0>         0.0697
     34 H15        -5.9926   -2.7442   -5.0041 H         1 <0>         0.0671
     35 H16        -7.4634   -3.2900   -4.1631 H         1 <0>         0.0662
     36 H17        -7.9546   -1.3803   -5.6665 H         1 <0>         0.0573
     37 H18        -8.2220   -0.9377   -3.9633 H         1 <0>         0.0539
     38 H19        -6.7513   -0.3919   -4.8043 H         1 <0>         0.0545
     39 H20        -4.0327   -3.0461    4.3560 H         1 <0>         0.2347
@<TRIPOS>BOND
     1    1    2 1
     2    1   21 1
     3    1   22 1
     4    1   23 1
     5    2    3 1
     6    2   24 1
     7    2   25 1
     8    3    4 1
     9    3   26 1
    10    3   27 1
    11    4    5 1
    12    4   28 1
    13    4   29 1
    14    5   11 am
    15    5    6 1
    16    6   20 1
    17    6    7 2
    18    7    8 1
    19    7   17 1
    20    8    9 2
    21    8   10 am
    22   10   11 am
    23   10   13 1
    24   11   12 2
    25   13   14 1
    26   13   30 1
    27   13   31 1
    28   14   15 1
    29   14   32 1
    30   14   33 1
    31   15   16 1
    32   15   34 1
    33   15   35 1
    34   16   36 1
    35   16   37 1
    36   16   38 1
    37   17   18 1
    38   17   19 1
    39   19   20 2
    40   19   39 1
@<TRIPOS>MOLECULE
ZINC12405693
   40    41     0     0     0
SMALL
USER_CHARGES
1,3-dibutyl-7H-purine-2,6-dione
@<TRIPOS>ATOM
      1 C1          5.3562    4.3375   -2.9127 C.3       1 <0>        -0.1564
      2 C2          4.8600    4.3313   -1.4654 C.3       1 <0>        -0.1216
      3 C3          3.3301    4.3321   -1.4508 C.3       1 <0>        -0.1413
      4 C4          2.8338    4.3259   -0.0036 C.3       1 <0>         0.0957
      5 N1          1.3689    4.3267    0.0104 N.am      1 <0>        -0.5101
      6 C5          0.6765    3.1266    0.0116 C.2       1 <0>         0.3492
      7 C6         -0.7124    3.1538    0.0245 C.2       1 <0>        -0.0767
      8 C7         -1.3758    4.3997    0.0363 C.2       1 <0>         0.5864
      9 O1         -2.5926    4.4497    0.0477 O.2       1 <0>        -0.4626
     10 N2         -0.6460    5.5347    0.0341 N.am      1 <0>        -0.5390
     11 C8          0.6974    5.4937    0.0215 C.2       1 <0>         0.7072
     12 O2          1.3222    6.5369    0.0207 O.2       1 <0>        -0.4789
     13 C9         -1.3282    6.8311    0.0459 C.3       1 <0>         0.1068
     14 C10        -1.5790    7.2886   -1.3924 C.3       1 <0>        -0.1346
     15 C11        -2.2914    8.6425   -1.3801 C.3       1 <0>        -0.1209
     16 C12        -2.5422    9.1000   -2.8184 C.3       1 <0>        -0.1543
     17 N3         -1.1247    1.8363    0.0168 N.pl3     1 <0>        -0.4544
     18 H1         -2.0695    1.5086    0.0176 H         1 <0>         0.4879
     19 C13        -0.0126    1.0758    0.0080 C.cat     1 <0>         0.3646
     20 H2          4.9886    5.2299   -3.4190 H         1 <0>         0.0589
     21 H3          6.4462    4.3369   -2.9230 H         1 <0>         0.0648
     22 H4          4.9875    3.4500   -3.4270 H         1 <0>         0.0545
     23 H5          5.2287    5.2188   -0.9511 H         1 <0>         0.0746
     24 H6          5.2277    3.4388   -0.9590 H         1 <0>         0.0674
     25 H7          2.9613    3.4446   -1.9652 H         1 <0>         0.0650
     26 H8          2.9624    5.2246   -1.9572 H         1 <0>         0.0833
     27 H9          3.2025    5.2134    0.5108 H         1 <0>         0.1275
     28 H10         3.2015    3.4334    0.5028 H         1 <0>         0.0979
     29 H11        -2.2803    6.7359    0.5681 H         1 <0>         0.1127
     30 H12        -0.7051    7.5649    0.5572 H         1 <0>         0.1136
     31 H13        -0.6269    7.3837   -1.9146 H         1 <0>         0.0716
     32 H14        -2.2021    6.5548   -1.9037 H         1 <0>         0.0701
     33 H15        -3.2435    8.5474   -0.8579 H         1 <0>         0.0695
     34 H16        -1.6683    9.3763   -0.8688 H         1 <0>         0.0702
     35 H17        -1.5901    9.1952   -3.3406 H         1 <0>         0.0555
     36 H18        -3.1652    8.3662   -3.3297 H         1 <0>         0.0550
     37 H19        -3.0497   10.0646   -2.8096 H         1 <0>         0.0622
     38 H20         0.0021   -0.0041    0.0020 H         1 <0>         0.2874
     39 N4          1.0492    1.8429    0.0020 N.pl3     1 <0>        -0.4966
     40 H21         2.0201    1.5090   -0.0085 H         1 <0>         0.4878
@<TRIPOS>BOND
     1    1    2 1
     2    1   20 1
     3    1   21 1
     4    1   22 1
     5    2    3 1
     6    2   23 1
     7    2   24 1
     8    3    4 1
     9    3   25 1
    10    3   26 1
    11    4    5 1
    12    4   27 1
    13    4   28 1
    14    5   11 am
    15    5    6 1
    16    6    7 2
    17    6   39 1
    18    7    8 1
    19    7   17 1
    20    8    9 2
    21    8   10 am
    22   10   11 am
    23   10   13 1
    24   11   12 2
    25   13   14 1
    26   13   29 1
    27   13   30 1
    28   14   15 1
    29   14   31 1
    30   14   32 1
    31   15   16 1
    32   15   33 1
    33   15   34 1
    34   16   35 1
    35   16   36 1
    36   16   37 1
    37   17   18 1
    38   17   19 1
    39   19   38 1
    40   19   39 2
    41   39   40 1
@<TRIPOS>MOLECULE
ZINC00531038
   39    41     0     0     0
SMALL
USER_CHARGES

@<TRIPOS>ATOM
      1 C1         -0.0127    1.0858    0.0080 C.3       1 <0>         0.0883
      2 N1         -0.7213    1.5711   -1.1789 N.am      1 <0>        -0.5110
      3 C2         -2.0905    1.7830   -1.1292 C.2       1 <0>         0.3287
      4 C3         -2.7388    2.2447   -2.2704 C.2       1 <0>        -0.1449
      5 C4         -1.9866    2.4824   -3.4394 C.2       1 <0>         0.5938
      6 O1         -2.5318    2.8872   -4.4509 O.2       1 <0>        -0.5123
      7 N2         -0.6566    2.2571   -3.4249 N.am      1 <0>        -0.5509
      8 C5         -0.0410    1.8159   -2.3145 C.2       1 <0>         0.7075
      9 O2          1.1603    1.6290   -2.3375 O.2       1 <0>        -0.5283
     10 C6          0.1297    2.5019   -4.6365 C.3       1 <0>         0.0827
     11 N3         -4.0758    2.3642   -1.9402 N.pl3     1 <0>        -0.5141
     12 C7         -4.1952    1.9804   -0.6389 C.2       1 <0>         0.3501
     13 N4         -3.0088    1.6393   -0.1746 N.2       1 <0>        -0.4855
     14 H1         -4.7910    2.6642   -2.5228 H         1 <0>         0.4372
     15 C8         -5.4551    1.9506    0.1312 C.ar      1 <0>        -0.0387
     16 C9         -6.6546    2.3315   -0.4743 C.ar      1 <0>        -0.0886
     17 C10        -7.8298    2.3033    0.2459 C.ar      1 <0>        -0.1727
     18 C11        -7.8245    1.8969    1.5727 C.ar      1 <0>         0.1270
     19 C12        -6.6312    1.5156    2.1831 C.ar      1 <0>         0.1013
     20 C13        -5.4505    1.5361    1.4650 C.ar      1 <0>        -0.1193
     21 O3         -6.6294    1.1178    3.4836 O.3       1 <0>        -0.3017
     22 C14        -5.3705    0.7408    4.0449 C.3       1 <0>         0.0223
     23 O4         -8.9853    1.8712    2.2785 O.3       1 <0>        -0.2999
     24 C15       -10.1714    2.2753    1.5914 C.3       1 <0>         0.0222
     25 H2          0.0021   -0.0041    0.0020 H         1 <0>         0.0744
     26 H3          1.0099    1.4631    0.0003 H         1 <0>         0.0947
     27 H4         -0.5229    1.4373    0.9048 H         1 <0>         0.0921
     28 H5         -0.5273    2.8570   -5.4305 H         1 <0>         0.1040
     29 H6          0.8901    3.2551   -4.4302 H         1 <0>         0.0833
     30 H7          0.6113    1.5759   -4.9504 H         1 <0>         0.0833
     31 H8         -6.6614    2.6485   -1.5067 H         1 <0>         0.1290
     32 H9         -8.7566    2.5984   -0.2235 H         1 <0>         0.1462
     33 H10        -4.5257    1.2366    1.9355 H         1 <0>         0.1548
     34 H11        -4.9578   -0.0965    3.4820 H         1 <0>         0.0590
     35 H12        -4.6833    1.5854    3.9960 H         1 <0>         0.0590
     36 H13        -5.5101    0.4457    5.0849 H         1 <0>         0.1043
     37 H14       -11.0237    2.2081    2.2676 H         1 <0>         0.1050
     38 H15       -10.0599    3.3038    1.2483 H         1 <0>         0.0588
     39 H16       -10.3352    1.6221    0.7343 H         1 <0>         0.0588
@<TRIPOS>BOND
     1    1   25 1
     2    1   26 1
     3    1   27 1
     4    1    2 1
     5    2    3 1
     6    2    8 am
     7    3   13 1
     8    3    4 2
     9    4    5 1
    10    4   11 1
    11    5    7 am
    12    5    6 2
    13    7    8 am
    14    7   10 1
    15    8    9 2
    16   10   28 1
    17   10   29 1
    18   10   30 1
    19   11   14 1
    20   11   12 1
    21   12   15 1
    22   12   13 2
    23   15   20 ar
    24   15   16 ar
    25   16   17 ar
    26   16   31 1
    27   17   18 ar
    28   17   32 1
    29   18   19 ar
    30   18   23 1
    31   19   20 ar
    32   19   21 1
    33   20   33 1
    34   21   22 1
    35   22   34 1
    36   22   35 1
    37   22   36 1
    38   23   24 1
    39   24   37 1
    40   24   38 1
    41   24   39 1
@<TRIPOS>MOLECULE
ZINC03778381
   51    54     0     0     0
SMALL
USER_CHARGES
5-(6-cyclohexylaminopurin-9-yl)-2-(hydroxymethyl)-4-methoxy-tetrahydrofuran-3-ol
@<TRIPOS>ATOM
      1 C1          3.7742    2.8477    3.1314 C.3       1 <0>         0.0372
      2 O1          3.7988    2.4989    1.7459 O.3       1 <0>        -0.3432
      3 C2          3.0385    1.3317    1.4268 C.3       1 <0>         0.0605
      4 H1          2.2249    1.1981    2.1397 H         1 <0>         0.0906
      5 C3          3.9471    0.0801    1.4012 C.3       1 <0>         0.0594
      6 H2          3.5826   -0.6723    2.1006 H         1 <0>         0.0859
      7 C4          3.8383   -0.4335   -0.0516 C.3       1 <0>         0.0503
      8 H3          4.6575   -0.0438   -0.6560 H         1 <0>         0.1007
      9 O2          2.5743    0.0760   -0.5295 O.3       1 <0>        -0.3458
     10 C5          2.4869    1.4220   -0.0133 C.3       1 <0>         0.3085
     11 H4          3.0974    2.0983   -0.6118 H         1 <0>         0.1242
     12 N1          1.0932    1.8730    0.0017 N.pl3     1 <0>        -0.4733
     13 C6         -0.0126    1.0758    0.0080 C.2       1 <0>         0.2726
     14 N2         -1.0885    1.8079    0.0165 N.2       1 <0>        -0.4536
     15 C7         -0.7426    3.1177    0.0259 C.ar      1 <0>        -0.0664
     16 C8          0.6614    3.1753    0.0128 C.ar      1 <0>         0.3002
     17 N3          1.2592    4.3622    0.0131 N.ar      1 <0>        -0.5297
     18 C9          0.5494    5.4708    0.0255 C.ar      1 <0>         0.3457
     19 N4         -0.7709    5.4670    0.0385 N.ar      1 <0>        -0.5670
     20 C10        -1.4560    4.3281    0.0393 C.ar      1 <0>         0.4437
     21 N5         -2.8398    4.3343    0.0534 N.pl3     1 <0>        -0.5987
     22 C11        -3.5666    5.6062    0.0677 C.3       1 <0>         0.0921
     23 C12        -3.6958    6.1036    1.5088 C.3       1 <0>        -0.1054
     24 C13        -4.4548    7.4320    1.5237 C.3       1 <0>        -0.1178
     25 C14        -5.8491    7.2294    0.9272 C.3       1 <0>        -0.1222
     26 C15        -5.7199    6.7321   -0.5140 C.3       1 <0>        -0.1144
     27 C16        -4.9609    5.4037   -0.5289 C.3       1 <0>        -0.1236
     28 C17         3.8400   -1.9633   -0.0772 C.3       1 <0>         0.0819
     29 O3          3.7818   -2.4171   -1.4310 O.3       1 <0>        -0.5628
     30 O4          5.2972    0.4342    1.7074 O.3       1 <0>        -0.5311
     31 H5          4.1832    2.0266    3.7202 H         1 <0>         0.0469
     32 H6          4.3744    3.7435    3.2913 H         1 <0>         0.0934
     33 H7          2.7464    3.0392    3.4398 H         1 <0>         0.0373
     34 H8          0.0021   -0.0041    0.0020 H         1 <0>         0.2254
     35 H9          1.0665    6.4190    0.0253 H         1 <0>         0.2055
     36 H10        -3.1835    3.8688   -0.7622 H         1 <0>         0.3676
     37 H11        -3.0220    6.3425   -0.5234 H         1 <0>         0.0730
     38 H12        -4.2404    5.3673    2.0998 H         1 <0>         0.0661
     39 H13        -2.7025    6.2479    1.9338 H         1 <0>         0.0639
     40 H14        -3.9102    8.1683    0.9327 H         1 <0>         0.0634
     41 H15        -4.5469    7.7863    2.5504 H         1 <0>         0.0641
     42 H16        -6.3898    8.1758    0.9378 H         1 <0>         0.0632
     43 H17        -6.3937    6.4931    1.5182 H         1 <0>         0.0633
     44 H18        -5.1752    7.4684   -1.1050 H         1 <0>         0.0640
     45 H19        -6.7132    6.5878   -0.9390 H         1 <0>         0.0675
     46 H20        -4.8688    5.0493   -1.5556 H         1 <0>         0.0643
     47 H21        -5.5055    4.6674    0.0622 H         1 <0>         0.0755
     48 H22         4.7518   -2.3336    0.3912 H         1 <0>         0.0676
     49 H23         2.9736   -2.3367    0.4686 H         1 <0>         0.0603
     50 H24         3.7795   -3.3797   -1.5234 H         1 <0>         0.3865
     51 H25         5.9204   -0.3027    1.6474 H         1 <0>         0.3828
@<TRIPOS>BOND
     1    1    2 1
     2    1   31 1
     3    1   32 1
     4    1   33 1
     5    2    3 1
     6    3    4 1
     7    3   10 1
     8    3    5 1
     9    5    6 1
    10    5    7 1
    11    5   30 1
    12    7    8 1
    13    7    9 1
    14    7   28 1
    15    9   10 1
    16   10   11 1
    17   10   12 1
    18   12   16 1
    19   12   13 1
    20   13   14 2
    21   13   34 1
    22   14   15 1
    23   15   20 ar
    24   15   16 ar
    25   16   17 ar
    26   17   18 ar
    27   18   19 ar
    28   18   35 1
    29   19   20 ar
    30   20   21 1
    31   21   22 1
    32   21   36 1
    33   22   27 1
    34   22   23 1
    35   22   37 1
    36   23   24 1
    37   23   38 1
    38   23   39 1
    39   24   25 1
    40   24   40 1
    41   24   41 1
    42   25   26 1
    43   25   42 1
    44   25   43 1
    45   26   27 1
    46   26   44 1
    47   26   45 1
    48   27   46 1
    49   27   47 1
    50   28   29 1
    51   28   48 1
    52   28   49 1
    53   29   50 1
    54   30   51 1
@<TRIPOS>MOLECULE
ZINC27092697
   39    42     0     0     0
SMALL
USER_CHARGES

@<TRIPOS>ATOM
      1 C1         -0.0187    1.5258    0.0104 C.3       1 <0>        -0.1459
      2 C2          0.0021   -0.0041    0.0020 C.3       1 <0>        -0.1101
      3 C3          0.7182   -0.4975   -1.2568 C.3       1 <0>         0.0540
      4 H1          0.2641   -0.0635   -2.1476 H         1 <0>         0.1098
      5 C4          0.6832   -2.0350   -1.3288 C.3       1 <0>         0.1003
      6 N1          2.1056   -2.4144   -1.3000 N.am      1 <0>        -0.5744
      7 C5          2.8677   -1.2615   -1.2221 C.2       1 <0>         0.4219
      8 N2          2.1459   -0.1690   -1.1968 N.2       1 <0>        -0.5227
      9 C6          4.3294   -1.4157   -1.1821 C.2       1 <0>        -0.0419
     10 C7          4.8739   -2.6883   -1.2235 C.2       1 <0>         0.3051
     11 N3          6.2014   -2.5587   -1.1748 N.2       1 <0>        -0.4750
     12 C8          6.5227   -1.2825   -1.1054 C.2       1 <0>         0.3232
     13 N4          5.3839   -0.5331   -1.1073 N.pl3     1 <0>        -0.5201
     14 H2          5.3273    0.4343   -1.0641 H         1 <0>         0.4358
     15 C9          7.8993   -0.7483   -1.0359 C.ar      1 <0>        -0.0319
     16 C10         8.1139    0.6287   -0.9589 C.ar      1 <0>        -0.1008
     17 C11         9.4011    1.1206   -0.8939 C.ar      1 <0>        -0.1163
     18 C12        10.4782    0.2522   -0.9052 C.ar      1 <0>        -0.0992
     19 C13        10.2725   -1.1139   -0.9814 C.ar      1 <0>        -0.1183
     20 C14         8.9902   -1.6192   -1.0411 C.ar      1 <0>        -0.0670
     21 N5          4.0240   -3.7848   -1.3020 N.am      1 <0>        -0.5148
     22 C15         2.6916   -3.6253   -1.3363 C.2       1 <0>         0.7251
     23 O1          1.9865   -4.6137   -1.4044 O.2       1 <0>        -0.5447
     24 C16         4.5905   -5.1351   -1.3467 C.3       1 <0>         0.0920
     25 H3          1.0039    1.9031    0.0027 H         1 <0>         0.0628
     26 H4         -0.5459    1.8868   -0.8726 H         1 <0>         0.0547
     27 H5         -0.5289    1.8773    0.9072 H         1 <0>         0.0547
     28 H6          0.5293   -0.3651    0.8851 H         1 <0>         0.0640
     29 H7         -1.0205   -0.3814    0.0098 H         1 <0>         0.0755
     30 H8          0.1586   -2.4475   -0.4670 H         1 <0>         0.0974
     31 H9          0.2168   -2.3650   -2.2571 H         1 <0>         0.0966
     32 H10         7.2740    1.3077   -0.9507 H         1 <0>         0.1219
     33 H11         9.5685    2.1859   -0.8343 H         1 <0>         0.1314
     34 H12        11.4840    0.6424   -0.8548 H         1 <0>         0.1293
     35 H13        11.1175   -1.7864   -0.9898 H         1 <0>         0.1330
     36 H14         8.8308   -2.6860   -1.0960 H         1 <0>         0.1407
     37 H15         4.6979   -5.5178   -0.3318 H         1 <0>         0.0711
     38 H16         3.9272   -5.7887   -1.9132 H         1 <0>         0.0918
     39 H17         5.5677   -5.1033   -1.8284 H         1 <0>         0.0912
@<TRIPOS>BOND
     1    1    2 1
     2    1   25 1
     3    1   26 1
     4    1   27 1
     5    2    3 1
     6    2   28 1
     7    2   29 1
     8    3    4 1
     9    3    8 1
    10    3    5 1
    11    5    6 1
    12    5   30 1
    13    5   31 1
    14    6   22 am
    15    6    7 1
    16    7    8 2
    17    7    9 1
    18    9   13 1
    19    9   10 2
    20   10   11 1
    21   10   21 1
    22   11   12 2
    23   12   13 1
    24   12   15 1
    25   13   14 1
    26   15   20 ar
    27   15   16 ar
    28   16   17 ar
    29   16   32 1
    30   17   18 ar
    31   17   33 1
    32   18   19 ar
    33   18   34 1
    34   19   20 ar
    35   19   35 1
    36   20   36 1
    37   21   22 am
    38   21   24 1
    39   22   23 2
    40   24   37 1
    41   24   38 1
    42   24   39 1
@<TRIPOS>MOLECULE
ZINC27092697
   39    42     0     0     0
SMALL
USER_CHARGES

@<TRIPOS>ATOM
      1 C1         -0.0187    1.5258    0.0104 C.3       1 <0>        -0.1470
      2 C2          0.0021   -0.0041    0.0020 C.3       1 <0>        -0.1088
      3 C3          0.7421   -0.5109    1.2415 C.3       1 <0>         0.0484
      4 H1          1.7338   -0.0627    1.3026 H         1 <0>         0.1111
      5 C4          0.8455   -2.0470    1.2169 C.3       1 <0>         0.0995
      6 N1          0.1151   -2.4602    2.4271 N.am      1 <0>        -0.5777
      7 C5         -0.3496   -1.3275    3.0685 C.2       1 <0>         0.4223
      8 N2         -0.0286   -0.2191    2.4545 N.2       1 <0>        -0.4916
      9 C6         -1.1171   -1.5183    4.3185 C.2       1 <0>         0.0068
     10 C7         -1.3277   -2.8089    4.7761 C.2       1 <0>         0.2660
     11 N3         -2.0499   -2.6997    5.9257 N.pl3     1 <0>        -0.5511
     12 H2         -2.3559   -3.4313    6.4842 H         1 <0>         0.4289
     13 C8         -2.2646   -1.3626    6.1468 C.2       1 <0>         0.2675
     14 N4         -1.7036   -0.6722    5.1822 N.2       1 <0>        -0.3971
     15 C9         -3.0091   -0.7911    7.2894 C.ar      1 <0>        -0.0172
     16 C10        -3.5578   -1.6315    8.2592 C.ar      1 <0>        -0.1094
     17 C11        -4.2513   -1.0919    9.3228 C.ar      1 <0>        -0.1154
     18 C12        -4.4037    0.2791    9.4290 C.ar      1 <0>        -0.1058
     19 C13        -3.8622    1.1178    8.4711 C.ar      1 <0>        -0.1149
     20 C14        -3.1611    0.5913    7.4058 C.ar      1 <0>        -0.0729
     21 N5         -0.8222   -3.8748    4.0628 N.am      1 <0>        -0.5215
     22 C15        -0.1279   -3.6848    2.9296 C.2       1 <0>         0.7313
     23 O1          0.2980   -4.6561    2.3348 O.2       1 <0>        -0.5417
     24 C16        -1.0464   -5.2382    4.5499 C.3       1 <0>         0.0781
     25 H3          1.0039    1.9031    0.0027 H         1 <0>         0.0543
     26 H4         -0.5459    1.8868   -0.8726 H         1 <0>         0.0540
     27 H5         -0.5289    1.8773    0.9072 H         1 <0>         0.0664
     28 H6         -1.0205   -0.3814    0.0098 H         1 <0>         0.0641
     29 H7          0.5123   -0.3556   -0.8948 H         1 <0>         0.0742
     30 H8          0.3675   -2.4496    0.3239 H         1 <0>         0.0969
     31 H9          1.8875   -2.3624    1.2711 H         1 <0>         0.0961
     32 H10        -3.4400   -2.7019    8.1770 H         1 <0>         0.1179
     33 H11        -4.6764   -1.7412   10.0739 H         1 <0>         0.1292
     34 H12        -4.9481    0.6965   10.2632 H         1 <0>         0.1279
     35 H13        -3.9848    2.1871    8.5598 H         1 <0>         0.1322
     36 H14        -2.7348    1.2472    6.6613 H         1 <0>         0.1410
     37 H15        -1.9735   -5.6267    4.1283 H         1 <0>         0.0770
     38 H16        -0.2147   -5.8739    4.2461 H         1 <0>         0.1030
     39 H17        -1.1179   -5.2284    5.6375 H         1 <0>         0.0780
@<TRIPOS>BOND
     1    1    2 1
     2    1   25 1
     3    1   26 1
     4    1   27 1
     5    2    3 1
     6    2   28 1
     7    2   29 1
     8    3    4 1
     9    3    8 1
    10    3    5 1
    11    5    6 1
    12    5   30 1
    13    5   31 1
    14    6   22 am
    15    6    7 1
    16    7    8 2
    17    7    9 1
    18    9   14 1
    19    9   10 2
    20   10   11 1
    21   10   21 1
    22   11   12 1
    23   11   13 1
    24   13   14 2
    25   13   15 1
    26   15   20 ar
    27   15   16 ar
    28   16   17 ar
    29   16   32 1
    30   17   18 ar
    31   17   33 1
    32   18   19 ar
    33   18   34 1
    34   19   20 ar
    35   19   35 1
    36   20   36 1
    37   21   22 am
    38   21   24 1
    39   22   23 2
    40   24   37 1
    41   24   38 1
    42   24   39 1
@<TRIPOS>MOLECULE
ZINC27092703
   39    42     0     0     0
SMALL
USER_CHARGES

@<TRIPOS>ATOM
      1 C1         -0.0187    1.5258    0.0104 C.3       1 <0>        -0.1459
      2 C2          0.0021   -0.0041    0.0020 C.3       1 <0>        -0.1101
      3 C3          0.7182   -0.4975   -1.2568 C.3       1 <0>         0.0540
      4 H1          1.7086   -0.0484   -1.3318 H         1 <0>         0.1098
      5 C4          0.8223   -2.0335   -1.2502 C.3       1 <0>         0.1003
      6 N1          0.0695   -2.4357   -2.4500 N.am      1 <0>        -0.5745
      7 C5         -0.4089   -1.2958   -3.0727 C.2       1 <0>         0.4219
      8 N2         -0.0753   -0.1923   -2.4514 N.2       1 <0>        -0.5227
      9 C6         -1.1959   -1.4735   -4.3020 C.2       1 <0>        -0.0420
     10 C7         -1.4219   -2.7542   -4.7779 C.2       1 <0>         0.3052
     11 N3         -2.1514   -2.6462   -5.8902 N.2       1 <0>        -0.4750
     12 C8         -2.3968   -1.3758   -6.1411 C.2       1 <0>         0.3231
     13 N4         -1.8184   -0.6084   -5.1741 N.pl3     1 <0>        -0.5200
     14 H2         -1.8408    0.3593   -5.1124 H         1 <0>         0.4358
     15 C9         -3.1751   -0.8642   -7.2890 C.ar      1 <0>        -0.0319
     16 C10        -3.3627    0.5093   -7.4524 C.ar      1 <0>        -0.1008
     17 C11        -4.0897    0.9801   -8.5261 C.ar      1 <0>        -0.1163
     18 C12        -4.6327    0.0942   -9.4398 C.ar      1 <0>        -0.0992
     19 C13        -4.4504   -1.2685   -9.2837 C.ar      1 <0>        -0.1183
     20 C14        -3.7206   -1.7522   -8.2176 C.ar      1 <0>        -0.0670
     21 N5         -0.8991   -3.8363   -4.0804 N.am      1 <0>        -0.5148
     22 C15        -0.1820   -3.6553   -2.9602 C.2       1 <0>         0.7251
     23 O1          0.2566   -4.6317   -2.3831 O.2       1 <0>        -0.5447
     24 C16        -1.1332   -5.1951   -4.5756 C.3       1 <0>         0.0920
     25 H3          1.0039    1.9031    0.0027 H         1 <0>         0.0546
     26 H4         -0.5459    1.8868   -0.8726 H         1 <0>         0.0628
     27 H5         -0.5289    1.8773    0.9072 H         1 <0>         0.0547
     28 H6          0.5293   -0.3651    0.8851 H         1 <0>         0.0755
     29 H7         -1.0205   -0.3814    0.0098 H         1 <0>         0.0640
     30 H8          1.8632   -2.3478   -1.3272 H         1 <0>         0.0966
     31 H9          0.3616   -2.4454   -0.3523 H         1 <0>         0.0974
     32 H10        -2.9400    1.2018   -6.7395 H         1 <0>         0.1219
     33 H11        -4.2357    2.0426   -8.6537 H         1 <0>         0.1314
     34 H12        -5.2016    0.4679  -10.2782 H         1 <0>         0.1293
     35 H13        -4.8768   -1.9547  -10.0004 H         1 <0>         0.1330
     36 H14        -3.5753   -2.8158   -8.0993 H         1 <0>         0.1407
     37 H15        -0.3307   -5.4766   -5.2573 H         1 <0>         0.0711
     38 H16        -1.1563   -5.8891   -3.7353 H         1 <0>         0.0918
     39 H17        -2.0867   -5.2305   -5.1025 H         1 <0>         0.0912
@<TRIPOS>BOND
     1    1    2 1
     2    1   25 1
     3    1   26 1
     4    1   27 1
     5    2    3 1
     6    2   28 1
     7    2   29 1
     8    3    4 1
     9    3    8 1
    10    3    5 1
    11    5    6 1
    12    5   30 1
    13    5   31 1
    14    6   22 am
    15    6    7 1
    16    7    8 2
    17    7    9 1
    18    9   13 1
    19    9   10 2
    20   10   11 1
    21   10   21 1
    22   11   12 2
    23   12   13 1
    24   12   15 1
    25   13   14 1
    26   15   20 ar
    27   15   16 ar
    28   16   17 ar
    29   16   32 1
    30   17   18 ar
    31   17   33 1
    32   18   19 ar
    33   18   34 1
    34   19   20 ar
    35   19   35 1
    36   20   36 1
    37   21   22 am
    38   21   24 1
    39   22   23 2
    40   24   37 1
    41   24   38 1
    42   24   39 1
@<TRIPOS>MOLECULE
ZINC00048044
   34    36     0     0     0
SMALL
USER_CHARGES
N-(1-methyl-2-phenyl-ethyl)-9H-purin-6-amine
@<TRIPOS>ATOM
      1 C1          6.2358    0.0336   -1.4950 C.3       1 <0>        -0.1790
      2 C2          5.7584   -0.1588   -0.0542 C.3       1 <0>         0.1009
      3 H1          6.0248    0.7174    0.5369 H         1 <0>         0.0998
      4 C3          6.4261   -1.3991    0.5430 C.3       1 <0>        -0.0718
      5 C4          6.0524   -1.5195    1.9979 C.ar      1 <0>        -0.0758
      6 C5          6.8383   -0.9215    2.9652 C.ar      1 <0>        -0.1199
      7 C6          6.4928   -1.0278    4.2994 C.ar      1 <0>        -0.1233
      8 C7          5.3672   -1.7409    4.6672 C.ar      1 <0>        -0.1259
      9 C8          4.5841   -2.3433    3.7003 C.ar      1 <0>        -0.1226
     10 C9          4.9267   -2.2326    2.3657 C.ar      1 <0>        -0.0926
     11 N1          4.3039   -0.3330   -0.0408 N.pl3     1 <0>        -0.5888
     12 C10         3.4744    0.7747   -0.0274 C.ar      1 <0>         0.4409
     13 C11         2.0768    0.6264   -0.0144 C.ar      1 <0>        -0.0716
     14 C12         1.2867    1.7880   -0.0006 C.ar      1 <0>         0.2892
     15 N2         -0.0164    1.3589    0.0095 N.pl3     1 <0>        -0.5841
     16 H2         -0.8305    1.9395    0.0204 H         1 <0>         0.4389
     17 C13         0.0021   -0.0041    0.0020 C.2       1 <0>         0.2617
     18 N3          1.2311   -0.4319   -0.0120 N.2       1 <0>        -0.4569
     19 N4          1.8839    2.9755   -0.0003 N.ar      1 <0>        -0.5429
     20 C14         3.1969    3.0661   -0.0128 C.ar      1 <0>         0.3468
     21 N5          3.9808    2.0032   -0.0260 N.ar      1 <0>        -0.5706
     22 H3          5.9693   -0.8426   -2.0861 H         1 <0>         0.0592
     23 H4          5.7601    0.9172   -1.9205 H         1 <0>         0.0629
     24 H5          7.3180    0.1632   -1.5050 H         1 <0>         0.0729
     25 H6          6.0897   -2.2865    0.0068 H         1 <0>         0.0771
     26 H7          7.5085   -1.3083    0.4522 H         1 <0>         0.0843
     27 H8          7.7203   -0.3681    2.6782 H         1 <0>         0.1183
     28 H9          7.1048   -0.5575    5.0549 H         1 <0>         0.1183
     29 H10         5.0997   -1.8278    5.7100 H         1 <0>         0.1172
     30 H11         3.7049   -2.9008    3.9877 H         1 <0>         0.1179
     31 H12         4.3151   -2.7035    1.6103 H         1 <0>         0.1222
     32 H13         4.0210   -0.8368   -0.8570 H         1 <0>         0.3646
     33 H14        -0.8739   -0.6357    0.0070 H         1 <0>         0.2283
     34 H15         3.6503    4.0463   -0.0118 H         1 <0>         0.2044
@<TRIPOS>BOND
     1    1    2 1
     2    1   22 1
     3    1   23 1
     4    1   24 1
     5    2    3 1
     6    2    4 1
     7    2   11 1
     8    4    5 1
     9    4   25 1
    10    4   26 1
    11    5   10 ar
    12    5    6 ar
    13    6    7 ar
    14    6   27 1
    15    7    8 ar
    16    7   28 1
    17    8    9 ar
    18    8   29 1
    19    9   10 ar
    20    9   30 1
    21   10   31 1
    22   11   12 1
    23   11   32 1
    24   12   21 ar
    25   12   13 ar
    26   13   18 1
    27   13   14 ar
    28   14   15 1
    29   14   19 ar
    30   15   16 1
    31   15   17 1
    32   17   18 2
    33   17   33 1
    34   19   20 ar
    35   20   21 ar
    36   20   34 1
@<TRIPOS>MOLECULE
ZINC03811810
   48    51     0     0     0
SMALL
USER_CHARGES

@<TRIPOS>ATOM
      1 C1         -0.0178    1.4608    0.0101 C.3       1 <0>         0.0858
      2 N1          0.0021   -0.0041    0.0020 N.am      1 <0>        -0.7308
      3 C2         -1.1558   -0.6938    0.0094 C.2       1 <0>         0.5149
      4 O1         -2.2142   -0.1017    0.0227 O.2       1 <0>        -0.5024
      5 C3         -1.1354   -2.2006    0.0011 C.3       1 <0>         0.0320
      6 H1         -0.5471   -2.5799    0.8366 H         1 <0>         0.1225
      7 C4         -0.5782   -2.7315   -1.3443 C.3       1 <0>         0.0506
      8 H2         -0.9118   -2.1105   -2.1757 H         1 <0>         0.0948
      9 C5         -1.2083   -4.1435   -1.4217 C.3       1 <0>         0.0832
     10 H3         -1.5347   -4.3603   -2.4388 H         1 <0>         0.0899
     11 C6         -2.4187   -4.0695   -0.4709 C.3       1 <0>         0.3144
     12 H4         -2.2882   -4.7738    0.3507 H         1 <0>         0.1316
     13 O2         -2.4789   -2.7275    0.0446 O.3       1 <0>        -0.3270
     14 N2         -3.6479   -4.3821   -1.2041 N.pl3     1 <0>        -0.4753
     15 C7         -4.4978   -3.4819   -1.7747 C.2       1 <0>         0.2660
     16 N3         -5.4881   -4.1049   -2.3448 N.2       1 <0>        -0.4586
     17 C8         -5.3371   -5.4406   -2.1768 C.ar      1 <0>        -0.1040
     18 C9         -4.1517   -5.6348   -1.4476 C.ar      1 <0>         0.3101
     19 N4         -3.7707   -6.8732   -1.1522 N.ar      1 <0>        -0.5538
     20 C10        -4.4895   -7.9064   -1.5380 C.ar      1 <0>         0.3661
     21 N5         -5.6079   -7.7739   -2.2273 N.ar      1 <0>        -0.5871
     22 C11        -6.0726   -6.5743   -2.5614 C.ar      1 <0>         0.5073
     23 N6         -7.2452   -6.4456   -3.2850 N.pl3     1 <0>        -0.6904
     24 C12        -7.9987   -7.6392   -3.6772 C.3       1 <0>         0.1703
     25 C13        -9.2253   -7.2276   -4.4499 C.ar      1 <0>        -0.1092
     26 C14       -10.4099   -6.9750   -3.7831 C.ar      1 <0>        -0.0788
     27 C15       -11.5351   -6.5975   -4.4915 C.ar      1 <0>        -0.1155
     28 C16       -11.4764   -6.4722   -5.8670 C.ar      1 <0>        -0.0754
     29 C17       -10.2918   -6.7247   -6.5341 C.ar      1 <0>        -0.1026
     30 C18        -9.1645   -7.0970   -5.8244 C.ar      1 <0>        -0.0641
     31 I1        -10.2026   -6.5356   -8.6187 I         1 <0>        -0.0379
     32 O3         -0.2777   -5.1316   -0.9750 O.3       1 <0>        -0.5314
     33 O4          0.8483   -2.8101   -1.3100 O.3       1 <0>        -0.5362
     34 H5          1.0048    1.8381    0.0023 H         1 <0>         0.0830
     35 H6         -0.5450    1.8219   -0.8730 H         1 <0>         0.0653
     36 H7         -0.5280    1.8123    0.9069 H         1 <0>         0.0657
     37 H8          0.8486   -0.4776   -0.0086 H         1 <0>         0.3996
     38 H9         -4.3686   -2.4098   -1.7561 H         1 <0>         0.2242
     39 H10        -4.1517   -8.8996   -1.2813 H         1 <0>         0.2060
     40 H11        -7.5682   -5.5651   -3.5326 H         1 <0>         0.4195
     41 H12        -7.3721   -8.2754   -4.3023 H         1 <0>         0.0825
     42 H13        -8.2988   -8.1888   -2.7851 H         1 <0>         0.0840
     43 H14       -10.4561   -7.0732   -2.7086 H         1 <0>         0.1321
     44 H15       -12.4604   -6.4006   -3.9704 H         1 <0>         0.1349
     45 H16       -12.3557   -6.1775   -6.4205 H         1 <0>         0.1316
     46 H17        -8.2379   -7.2896   -6.3447 H         1 <0>         0.1313
     47 H18         0.5294   -5.1801   -1.5054 H         1 <0>         0.3970
     48 H19         1.2858   -1.9588   -1.1720 H         1 <0>         0.3844
@<TRIPOS>BOND
     1    1    2 1
     2    1   34 1
     3    1   35 1
     4    1   36 1
     5    2    3 am
     6    2   37 1
     7    3    4 2
     8    3    5 1
     9    5    6 1
    10    5   13 1
    11    5    7 1
    12    7    8 1
    13    7    9 1
    14    7   33 1
    15    9   10 1
    16    9   11 1
    17    9   32 1
    18   11   12 1
    19   11   13 1
    20   11   14 1
    21   14   18 1
    22   14   15 1
    23   15   16 2
    24   15   38 1
    25   16   17 1
    26   17   22 ar
    27   17   18 ar
    28   18   19 ar
    29   19   20 ar
    30   20   21 ar
    31   20   39 1
    32   21   22 ar
    33   22   23 1
    34   23   24 1
    35   23   40 1
    36   24   25 1
    37   24   41 1
    38   24   42 1
    39   25   30 ar
    40   25   26 ar
    41   26   27 ar
    42   26   43 1
    43   27   28 ar
    44   27   44 1
    45   28   29 ar
    46   28   45 1
    47   29   30 ar
    48   29   31 1
    49   30   46 1
    50   32   47 1
    51   33   48 1
@<TRIPOS>MOLECULE
ZINC01661889
   33    35     0     0     0
SMALL
USER_CHARGES
(2-amino-4,5,6,7-tetrahydrobenzothiophen-3-yl)-(3,4-dichlorophenyl)-methanone
@<TRIPOS>ATOM
      1 C1         -2.0382    3.1983    5.3777 C.ar      1 <0>        -0.0481
      2 C2         -2.0011    4.5106    5.8007 C.ar      1 <0>        -0.1105
      3 C3         -2.5036    5.5162    4.9923 C.ar      1 <0>        -0.0040
      4 C4         -3.0463    5.2110    3.7535 C.ar      1 <0>        -0.0465
      5 C5         -3.0842    3.9022    3.3180 C.ar      1 <0>        -0.0417
      6 C6         -2.5836    2.8841    4.1318 C.ar      1 <0>        -0.1493
      7 C7         -2.6255    1.4789    3.6730 C.2       1 <0>         0.4752
      8 O1         -2.2708    0.5841    4.4188 O.2       1 <0>        -0.4365
      9 C8         -3.0931    1.1639    2.3233 C.2       1 <0>        -0.3166
     10 C9         -2.1926    1.2082    1.1819 C.2       1 <0>        -0.0386
     11 C10        -2.7527    0.8965   -0.0055 C.2       1 <0>        -0.1966
     12 S1         -4.4474    0.5464    0.3684 S.3       1 <0>         0.1117
     13 C11        -4.4177    0.8103    2.0805 C.2       1 <0>         0.1575
     14 N1         -5.4549    0.6978    2.9840 N.pl3     1 <0>        -0.8152
     15 C12        -2.0759    0.8589   -1.3413 C.3       1 <0>        -0.0326
     16 C13        -0.7315    1.5914   -1.2235 C.3       1 <0>        -0.1137
     17 C14        -0.0008    1.0833    0.0228 C.3       1 <0>        -0.1193
     18 C15        -0.7187    1.5750    1.2809 C.3       1 <0>        -0.0645
     19 Cl1        -3.6730    6.4782    2.7460 Cl        1 <0>        -0.0386
     20 Cl2        -2.4533    7.1655    5.5317 Cl        1 <0>        -0.0369
     21 H1         -1.6461    2.4151    6.0095 H         1 <0>         0.1501
     22 H2         -1.5795    4.7543    6.7647 H         1 <0>         0.1513
     23 H3         -3.5037    3.6654    2.3514 H         1 <0>         0.1504
     24 H4         -5.3191    0.9460    3.9118 H         1 <0>         0.4092
     25 H5         -6.3198    0.3704    2.6912 H         1 <0>         0.4136
     26 H6         -2.7008    1.3556   -2.0835 H         1 <0>         0.0787
     27 H7         -1.9055   -0.1759   -1.6382 H         1 <0>         0.0796
     28 H8         -0.9062    2.6635   -1.1330 H         1 <0>         0.0686
     29 H9         -0.1263    1.3932   -2.1081 H         1 <0>         0.0740
     30 H10         0.0122   -0.0066    0.0159 H         1 <0>         0.0676
     31 H11         1.0229    1.4577    0.0203 H         1 <0>         0.0703
     32 H12        -0.2837    1.0988    2.1595 H         1 <0>         0.0729
     33 H13        -0.6159    2.6572    1.3608 H         1 <0>         0.0785
@<TRIPOS>BOND
     1    1    6 ar
     2    1    2 ar
     3    1   21 1
     4    2    3 ar
     5    2   22 1
     6    3    4 ar
     7    3   20 1
     8    4    5 ar
     9    4   19 1
    10    5    6 ar
    11    5   23 1
    12    6    7 1
    13    7    8 2
    14    7    9 1
    15    9   13 2
    16    9   10 1
    17   10   18 1
    18   10   11 2
    19   11   12 1
    20   11   15 1
    21   12   13 1
    22   13   14 1
    23   14   24 1
    24   14   25 1
    25   15   16 1
    26   15   26 1
    27   15   27 1
    28   16   17 1
    29   16   28 1
    30   16   29 1
    31   17   18 1
    32   17   30 1
    33   17   31 1
    34   18   32 1
    35   18   33 1
@<TRIPOS>MOLECULE
ZINC13517144
   18    19     0     0     0
SMALL
USER_CHARGES

@<TRIPOS>ATOM
      1 C1         -0.0127    1.0858    0.0080 C.3       1 <0>         0.0811
      2 N1         -0.7213    1.5711   -1.1789 N.am      1 <0>        -0.5505
      3 C2         -0.8540    2.8992   -1.3768 C.2       1 <0>         0.5933
      4 O1         -0.3888    3.6909   -0.5766 O.2       1 <0>        -0.5088
      5 C3         -1.5378    3.3603   -2.5224 C.2       1 <0>        -0.1520
      6 C4         -2.0577    2.4349   -3.4185 C.2       1 <0>         0.3174
      7 N2         -2.6471    3.1223   -4.4001 N.2       1 <0>        -0.5006
      8 H1         -1.6266    5.4627   -2.6323 H         1 <0>         0.4394
      9 C5         -2.5289    4.4061   -4.1753 C.2       1 <0>         0.2794
     10 N3         -1.8516    4.6060   -3.0278 N.pl3     1 <0>        -0.5173
     11 N4         -1.8883    1.0845   -3.1590 N.am      1 <0>        -0.6108
     12 H2         -2.2446    0.4246   -3.7742 H         1 <0>         0.4399
     13 C6         -1.2246    0.6867   -2.0571 C.2       1 <0>         0.7128
     14 O2         -1.0815   -0.5027   -1.8484 O.2       1 <0>        -0.5318
     15 H3          0.0021   -0.0041    0.0020 H         1 <0>         0.1069
     16 H4          1.0099    1.4631    0.0003 H         1 <0>         0.0827
     17 H5         -0.5229    1.4373    0.9048 H         1 <0>         0.0828
     18 H6         -2.9152    5.1872   -4.8133 H         1 <0>         0.2363
@<TRIPOS>BOND
     1    1   15 1
     2    1   16 1
     3    1   17 1
     4    1    2 1
     5    2   13 am
     6    2    3 am
     7    3    4 2
     8    3    5 1
     9    5   10 1
    10    5    6 2
    11    6    7 1
    12    6   11 1
    13    7    9 2
    14    8   10 1
    15    9   10 1
    16    9   18 1
    17   11   12 1
    18   11   13 am
    19   13   14 2
@<TRIPOS>MOLECULE
ZINC13517144
   17    18     0     0     0
SMALL
USER_CHARGES

@<TRIPOS>ATOM
      1 C1         -0.0127    1.0858    0.0080 C.3       1 <0>         0.0896
      2 N1         -0.7213    1.5711   -1.1789 N.am      1 <0>        -0.5382
      3 C2         -0.8540    2.9126   -1.3766 C.2       1 <0>         0.5517
      4 O1         -0.3393    3.7848   -0.4912 O.3       1 <0>        -0.6043
      5 C3         -1.5299    3.3720   -2.5089 C.2       1 <0>        -0.1655
      6 C4         -2.0578    2.4286   -3.4188 C.2       1 <0>         0.2144
      7 N2         -2.6381    3.1209   -4.3836 N.2       1 <0>        -0.5572
      8 C5         -2.5013    4.4189   -4.1262 C.2       1 <0>         0.1218
      9 N3         -1.8390    4.5925   -3.0054 N.2       1 <0>        -0.4745
     10 N4         -1.8874    1.0794   -3.1590 N.am      1 <0>        -0.6054
     11 H1         -2.2435    0.4184   -3.7731 H         1 <0>         0.4198
     12 C6         -1.2236    0.6851   -2.0554 C.2       1 <0>         0.7095
     13 O2         -1.0791   -0.5038   -1.8444 O.2       1 <0>        -0.5806
     14 H2          0.0021   -0.0041    0.0020 H         1 <0>         0.0950
     15 H3          1.0099    1.4631    0.0003 H         1 <0>         0.0723
     16 H4         -0.5229    1.4373    0.9048 H         1 <0>         0.0723
     17 H5         -2.8800    5.2154   -4.7495 H         1 <0>         0.1793
@<TRIPOS>BOND
     1    1   14 1
     2    1   15 1
     3    1   16 1
     4    1    2 1
     5    2   12 am
     6    2    3 1
     7    3    4 1
     8    3    5 2
     9    5    9 1
    10    5    6 1
    11    6    7 2
    12    6   10 1
    13    7    8 1
    14    8    9 2
    15    8   17 1
    16   10   11 1
    17   10   12 am
    18   12   13 2
@<TRIPOS>MOLECULE
ZINC04284547
   40    41     0     0     0
SMALL
USER_CHARGES
ethyl 9-butylsulfanyl-2-oxo-8-thiabicyclo[4.3.0]nona-6,9-diene-7-carboxylate
@<TRIPOS>ATOM
      1 C1          0.8946    8.5898    0.0444 C.3       1 <0>        -0.1545
      2 C2          0.3985    7.1425    0.0406 C.3       1 <0>        -0.1188
      3 C3          1.5976    6.1923    0.0229 C.3       1 <0>        -0.1040
      4 C4          1.1014    4.7450    0.0191 C.3       1 <0>        -0.1674
      5 S1          2.5200    3.6210   -0.0019 S.3       1 <0>         0.1047
      6 C5          1.6822    2.0710   -0.0029 C.2       1 <0>        -0.1408
      7 C6          2.2408    0.7775   -0.0169 C.2       1 <0>        -0.2291
      8 C7          1.3402   -0.3071   -0.0120 C.2       1 <0>         0.0393
      9 C8          0.0021   -0.0041    0.0020 C.2       1 <0>        -0.2627
     10 S2         -0.0221    1.7748    0.0118 S.3       1 <0>         0.2353
     11 C9         -1.1338   -0.9242    0.0075 C.2       1 <0>         0.5565
     12 O1         -0.9433   -2.1258   -0.0002 O.2       1 <0>        -0.4910
     13 O2         -2.3935   -0.4409    0.0213 O.3       1 <0>        -0.3494
     14 C10        -3.4553   -1.3973    0.0259 C.3       1 <0>         0.0627
     15 C11        -4.7996   -0.6668    0.0417 C.3       1 <0>        -0.1534
     16 C12         1.8374   -1.7497   -0.0203 C.3       1 <0>        -0.0790
     17 C13         3.2122   -1.7815    0.6520 C.3       1 <0>        -0.1174
     18 C14         4.1740   -0.8505   -0.0856 C.3       1 <0>        -0.1538
     19 C15         3.6588    0.5650   -0.0403 C.2       1 <0>         0.4106
     20 O3          4.4275    1.5049   -0.0244 O.2       1 <0>        -0.4497
     21 H1          1.5073    8.7615    0.9294 H         1 <0>         0.0563
     22 H2          1.4895    8.7723   -0.8505 H         1 <0>         0.0563
     23 H3          0.0403    9.2667    0.0571 H         1 <0>         0.0583
     24 H4         -0.2143    6.9707   -0.8443 H         1 <0>         0.0661
     25 H5         -0.1965    6.9600    0.9355 H         1 <0>         0.0661
     26 H6          2.2103    6.3641    0.9078 H         1 <0>         0.0768
     27 H7          2.1925    6.3748   -0.8720 H         1 <0>         0.0767
     28 H8          0.4887    4.5733   -0.8658 H         1 <0>         0.0975
     29 H9          0.5065    4.5625    0.9140 H         1 <0>         0.0976
     30 H10        -3.3894   -2.0177   -0.8678 H         1 <0>         0.0714
     31 H11        -3.3734   -2.0267    0.9121 H         1 <0>         0.0713
     32 H12        -5.6094   -1.3963    0.0452 H         1 <0>         0.0828
     33 H13        -4.8655   -0.0463    0.9354 H         1 <0>         0.0676
     34 H14        -4.8814   -0.0374   -0.8445 H         1 <0>         0.0676
     35 H15         1.1425   -2.3819    0.5324 H         1 <0>         0.1066
     36 H16         1.9207   -2.1045   -1.0476 H         1 <0>         0.0953
     37 H17         3.1163   -1.4561    1.6878 H         1 <0>         0.0714
     38 H18         3.6041   -2.7984    0.6268 H         1 <0>         0.0857
     39 H19         5.0729   -0.8860    0.3511 H         1 <0>         0.0879
     40 H20         4.2620   -1.1703   -1.1239 H         1 <0>         0.1028
@<TRIPOS>BOND
     1    1    2 1
     2    1   21 1
     3    1   22 1
     4    1   23 1
     5    2    3 1
     6    2   24 1
     7    2   25 1
     8    3    4 1
     9    3   26 1
    10    3   27 1
    11    4    5 1
    12    4   28 1
    13    4   29 1
    14    5    6 1
    15    6   10 1
    16    6    7 2
    17    7   19 1
    18    7    8 1
    19    8    9 2
    20    8   16 1
    21    9   10 1
    22    9   11 1
    23   11   12 2
    24   11   13 1
    25   13   14 1
    26   14   15 1
    27   14   30 1
    28   14   31 1
    29   15   32 1
    30   15   33 1
    31   15   34 1
    32   16   17 1
    33   16   35 1
    34   16   36 1
    35   17   18 1
    36   17   37 1
    37   17   38 1
    38   18   19 1
    39   18   39 1
    40   18   40 1
    41   19   20 2
@<TRIPOS>MOLECULE
ZINC04286237
   40    41     0     0     0
SMALL
USER_CHARGES
ethyl 9-(ethoxycarbonylmethylsulfanyl)-2-oxo-8-thiabicyclo[4.3.0]nona-6,9-diene-7-carboxylate
@<TRIPOS>ATOM
      1 C1          0.1025    9.5410    0.0581 C.3       1 <0>        -0.1543
      2 C2          1.2502    8.5294    0.0405 C.3       1 <0>         0.0620
      3 O1          0.7082    7.1823    0.0378 O.3       1 <0>        -0.3492
      4 C3          1.5901    6.1706    0.0228 C.2       1 <0>         0.4881
      5 O2          2.7758    6.4028    0.0124 O.2       1 <0>        -0.4854
      6 C4          1.1014    4.7450    0.0191 C.3       1 <0>        -0.1907
      7 S1          2.5200    3.6210   -0.0019 S.3       1 <0>         0.1908
      8 C5          1.6822    2.0710   -0.0029 C.2       1 <0>        -0.1628
      9 C6          2.2408    0.7775   -0.0169 C.2       1 <0>        -0.2193
     10 C7          1.3402   -0.3071   -0.0120 C.2       1 <0>         0.0387
     11 C8          0.0021   -0.0041    0.0020 C.2       1 <0>        -0.2566
     12 S2         -0.0221    1.7748    0.0118 S.3       1 <0>         0.2346
     13 C9         -1.1338   -0.9242    0.0075 C.2       1 <0>         0.5561
     14 O3         -0.9433   -2.1258   -0.0002 O.2       1 <0>        -0.4895
     15 O4         -2.3935   -0.4409    0.0213 O.3       1 <0>        -0.3492
     16 C10        -3.4553   -1.3973    0.0259 C.3       1 <0>         0.0627
     17 C11        -4.7996   -0.6668    0.0417 C.3       1 <0>        -0.1536
     18 C12         1.8374   -1.7497   -0.0203 C.3       1 <0>        -0.0790
     19 C13         3.2122   -1.7815    0.6520 C.3       1 <0>        -0.1179
     20 C14         4.1740   -0.8505   -0.0856 C.3       1 <0>        -0.1535
     21 C15         3.6588    0.5650   -0.0403 C.2       1 <0>         0.4095
     22 O5          4.4275    1.5049   -0.0244 O.2       1 <0>        -0.4475
     23 H1         -0.5187    9.4011   -0.8266 H         1 <0>         0.0687
     24 H2         -0.5009    9.3903    0.9533 H         1 <0>         0.0687
     25 H3          0.5094   10.5521    0.0601 H         1 <0>         0.0844
     26 H4          1.8714    8.6692    0.9252 H         1 <0>         0.0754
     27 H5          1.8536    8.6800   -0.8547 H         1 <0>         0.0754
     28 H6          0.4887    4.5733   -0.8658 H         1 <0>         0.1387
     29 H7          0.5065    4.5625    0.9140 H         1 <0>         0.1388
     30 H8         -3.3894   -2.0177   -0.8678 H         1 <0>         0.0716
     31 H9         -3.3734   -2.0267    0.9121 H         1 <0>         0.0716
     32 H10        -4.8655   -0.0463    0.9354 H         1 <0>         0.0678
     33 H11        -4.8814   -0.0374   -0.8445 H         1 <0>         0.0677
     34 H12        -5.6094   -1.3963    0.0452 H         1 <0>         0.0829
     35 H13         1.1425   -2.3819    0.5324 H         1 <0>         0.1073
     36 H14         1.9207   -2.1045   -1.0476 H         1 <0>         0.0962
     37 H15         3.1163   -1.4561    1.6878 H         1 <0>         0.0720
     38 H16         3.6041   -2.7984    0.6268 H         1 <0>         0.0864
     39 H17         5.0729   -0.8860    0.3511 H         1 <0>         0.0886
     40 H18         4.2620   -1.1703   -1.1239 H         1 <0>         0.1037
@<TRIPOS>BOND
     1    1    2 1
     2    1   23 1
     3    1   24 1
     4    1   25 1
     5    2    3 1
     6    2   26 1
     7    2   27 1
     8    3    4 1
     9    4    5 2
    10    4    6 1
    11    6    7 1
    12    6   28 1
    13    6   29 1
    14    7    8 1
    15    8   12 1
    16    8    9 2
    17    9   21 1
    18    9   10 1
    19   10   11 2
    20   10   18 1
    21   11   12 1
    22   11   13 1
    23   13   14 2
    24   13   15 1
    25   15   16 1
    26   16   17 1
    27   16   30 1
    28   16   31 1
    29   17   32 1
    30   17   33 1
    31   17   34 1
    32   18   19 1
    33   18   35 1
    34   18   36 1
    35   19   20 1
    36   19   37 1
    37   19   38 1
    38   20   21 1
    39   20   39 1
    40   20   40 1
    41   21   22 2
@<TRIPOS>MOLECULE
ZINC04284552
   35    36     0     0     0
SMALL
USER_CHARGES
ethyl 7-allylsulfanyl-5-oxo-8-thiabicyclo[4.3.0]nona-6,9-diene-9-carboxylate
@<TRIPOS>ATOM
      1 C1         -4.7996   -0.6668    0.0417 C.3       1 <0>        -0.1535
      2 C2         -3.4553   -1.3973    0.0259 C.3       1 <0>         0.0627
      3 O1         -2.3935   -0.4409    0.0213 O.3       1 <0>        -0.3494
      4 C3         -1.1338   -0.9242    0.0075 C.2       1 <0>         0.5565
      5 O2         -0.9433   -2.1258   -0.0002 O.2       1 <0>        -0.4908
      6 C4          0.0021   -0.0041    0.0020 C.2       1 <0>        -0.2618
      7 C5          1.3402   -0.3071   -0.0120 C.2       1 <0>         0.0394
      8 C6          2.2408    0.7775   -0.0169 C.2       1 <0>        -0.2282
      9 C7          1.6822    2.0710   -0.0029 C.2       1 <0>        -0.1436
     10 S1         -0.0221    1.7748    0.0118 S.3       1 <0>         0.2342
     11 S2          2.5200    3.6210   -0.0019 S.3       1 <0>         0.1135
     12 C8          1.1014    4.7450    0.0191 C.3       1 <0>        -0.1382
     13 C9          1.5901    6.1706    0.0228 C.2       1 <0>        -0.1543
     14 C10         1.3387    6.9519   -0.9982 C.2       1 <0>        -0.1515
     15 C11         3.6588    0.5650   -0.0403 C.2       1 <0>         0.4109
     16 O3          4.4275    1.5049   -0.0244 O.2       1 <0>        -0.4496
     17 C12         4.1740   -0.8505   -0.0856 C.3       1 <0>        -0.1539
     18 C13         3.2122   -1.7815    0.6520 C.3       1 <0>        -0.1178
     19 C14         1.8374   -1.7497   -0.0203 C.3       1 <0>        -0.0791
     20 H1         -5.6094   -1.3963    0.0452 H         1 <0>         0.0829
     21 H2         -4.8655   -0.0463    0.9354 H         1 <0>         0.0676
     22 H3         -4.8814   -0.0374   -0.8445 H         1 <0>         0.0676
     23 H4         -3.3894   -2.0177   -0.8678 H         1 <0>         0.0714
     24 H5         -3.3734   -2.0267    0.9121 H         1 <0>         0.0714
     25 H6          0.4887    4.5733   -0.8658 H         1 <0>         0.1002
     26 H7          0.5065    4.5625    0.9140 H         1 <0>         0.1059
     27 H8          2.1476    6.5481    0.8673 H         1 <0>         0.1243
     28 H9          1.6889    7.9735   -0.9955 H         1 <0>         0.1111
     29 H10         0.7812    6.5743   -1.8426 H         1 <0>         0.1022
     30 H11         5.0717   -0.8927    0.3530 H         1 <0>         0.0880
     31 H12         4.2620   -1.1703   -1.1239 H         1 <0>         0.1029
     32 H13         3.1163   -1.4561    1.6878 H         1 <0>         0.0715
     33 H14         3.6041   -2.7984    0.6268 H         1 <0>         0.0858
     34 H15         1.1425   -2.3819    0.5324 H         1 <0>         0.1067
     35 H16         1.9207   -2.1045   -1.0476 H         1 <0>         0.0954
@<TRIPOS>BOND
     1    1    2 1
     2    1   20 1
     3    1   21 1
     4    1   22 1
     5    2    3 1
     6    2   23 1
     7    2   24 1
     8    3    4 1
     9    4    5 2
    10    4    6 1
    11    6   10 1
    12    6    7 2
    13    7   19 1
    14    7    8 1
    15    8    9 2
    16    8   15 1
    17    9   10 1
    18    9   11 1
    19   11   12 1
    20   12   13 1
    21   12   25 1
    22   12   26 1
    23   13   14 2
    24   13   27 1
    25   14   28 1
    26   14   29 1
    27   15   16 2
    28   15   17 1
    29   17   18 1
    30   17   30 1
    31   17   31 1
    32   18   19 1
    33   18   32 1
    34   18   33 1
    35   19   34 1
    36   19   35 1
@<TRIPOS>MOLECULE
ZINC04286360
   37    38     0     0     0
SMALL
USER_CHARGES
ethyl 2-oxo-9-propylsulfanyl-8-thiabicyclo[4.3.0]nona-6,9-diene-7-carboxylate
@<TRIPOS>ATOM
      1 C1          0.3985    7.1425    0.0406 C.3       1 <0>        -0.1483
      2 C2          1.5976    6.1923    0.0229 C.3       1 <0>        -0.1075
      3 C3          1.1014    4.7450    0.0191 C.3       1 <0>        -0.1675
      4 S1          2.5200    3.6210   -0.0019 S.3       1 <0>         0.1040
      5 C4          1.6822    2.0710   -0.0029 C.2       1 <0>        -0.1407
      6 C5          2.2408    0.7775   -0.0169 C.2       1 <0>        -0.2291
      7 C6          1.3402   -0.3071   -0.0120 C.2       1 <0>         0.0393
      8 C7          0.0021   -0.0041    0.0020 C.2       1 <0>        -0.2626
      9 S2         -0.0221    1.7748    0.0118 S.3       1 <0>         0.2353
     10 C8         -1.1338   -0.9242    0.0075 C.2       1 <0>         0.5565
     11 O1         -0.9433   -2.1258   -0.0002 O.2       1 <0>        -0.4910
     12 O2         -2.3935   -0.4409    0.0213 O.3       1 <0>        -0.3495
     13 C9         -3.4553   -1.3973    0.0259 C.3       1 <0>         0.0627
     14 C10        -4.7996   -0.6668    0.0417 C.3       1 <0>        -0.1534
     15 C11         1.8374   -1.7497   -0.0203 C.3       1 <0>        -0.0790
     16 C12         3.2122   -1.7815    0.6520 C.3       1 <0>        -0.1175
     17 C13         4.1740   -0.8505   -0.0856 C.3       1 <0>        -0.1538
     18 C14         3.6588    0.5650   -0.0403 C.2       1 <0>         0.4106
     19 O3          4.4275    1.5049   -0.0244 O.2       1 <0>        -0.4497
     20 H1         -0.2143    6.9707   -0.8443 H         1 <0>         0.0590
     21 H2         -0.1965    6.9600    0.9355 H         1 <0>         0.0590
     22 H3          0.7519    8.1736    0.0433 H         1 <0>         0.0651
     23 H4          2.2103    6.3641    0.9078 H         1 <0>         0.0764
     24 H5          2.1925    6.3748   -0.8720 H         1 <0>         0.0763
     25 H6          0.4887    4.5733   -0.8658 H         1 <0>         0.0975
     26 H7          0.5065    4.5625    0.9140 H         1 <0>         0.0976
     27 H8         -3.3894   -2.0177   -0.8678 H         1 <0>         0.0714
     28 H9         -3.3734   -2.0267    0.9121 H         1 <0>         0.0713
     29 H10        -4.8655   -0.0463    0.9354 H         1 <0>         0.0676
     30 H11        -4.8814   -0.0374   -0.8445 H         1 <0>         0.0676
     31 H12        -5.6094   -1.3963    0.0452 H         1 <0>         0.0828
     32 H13         1.1425   -2.3819    0.5324 H         1 <0>         0.1066
     33 H14         1.9207   -2.1045   -1.0476 H         1 <0>         0.0953
     34 H15         3.1163   -1.4561    1.6878 H         1 <0>         0.0714
     35 H16         3.6041   -2.7984    0.6268 H         1 <0>         0.0857
     36 H17         5.0729   -0.8860    0.3511 H         1 <0>         0.0879
     37 H18         4.2620   -1.1703   -1.1239 H         1 <0>         0.1028
@<TRIPOS>BOND
     1    1    2 1
     2    1   20 1
     3    1   21 1
     4    1   22 1
     5    2    3 1
     6    2   23 1
     7    2   24 1
     8    3    4 1
     9    3   25 1
    10    3   26 1
    11    4    5 1
    12    5    9 1
    13    5    6 2
    14    6   18 1
    15    6    7 1
    16    7    8 2
    17    7   15 1
    18    8    9 1
    19    8   10 1
    20   10   11 2
    21   10   12 1
    22   12   13 1
    23   13   14 1
    24   13   27 1
    25   13   28 1
    26   14   29 1
    27   14   30 1
    28   14   31 1
    29   15   16 1
    30   15   32 1
    31   15   33 1
    32   16   17 1
    33   16   34 1
    34   16   35 1
    35   17   18 1
    36   17   36 1
    37   17   37 1
    38   18   19 2
@<TRIPOS>MOLECULE
ZINC04349538
   37    38     0     0     0
SMALL
USER_CHARGES
ethyl 7-isopropylsulfanyl-5-oxo-8-thiabicyclo[4.3.0]nona-6,9-diene-9-carboxylate
@<TRIPOS>ATOM
      1 C1         -4.7996   -0.6668    0.0417 C.3       1 <0>        -0.1534
      2 C2         -3.4553   -1.3973    0.0259 C.3       1 <0>         0.0626
      3 O1         -2.3935   -0.4409    0.0213 O.3       1 <0>        -0.3496
      4 C3         -1.1338   -0.9242    0.0075 C.2       1 <0>         0.5563
      5 O2         -0.9433   -2.1258   -0.0002 O.2       1 <0>        -0.4917
      6 C4          0.0021   -0.0041    0.0020 C.2       1 <0>        -0.2699
      7 C5          1.3402   -0.3071   -0.0120 C.2       1 <0>         0.0387
      8 C6          2.2408    0.7775   -0.0169 C.2       1 <0>        -0.2288
      9 C7          1.6822    2.0710   -0.0029 C.2       1 <0>        -0.1402
     10 S1         -0.0221    1.7748    0.0118 S.3       1 <0>         0.2432
     11 S2          2.5200    3.6210   -0.0019 S.3       1 <0>         0.1054
     12 C8          1.1014    4.7450    0.0191 C.3       1 <0>        -0.1380
     13 C9          0.3362    4.5760    1.3332 C.3       1 <0>        -0.1578
     14 C10         1.5929    6.1888   -0.1028 C.3       1 <0>        -0.1341
     15 C11         3.6588    0.5650   -0.0403 C.2       1 <0>         0.4109
     16 O3          4.4275    1.5049   -0.0244 O.2       1 <0>        -0.4498
     17 C12         4.1740   -0.8505   -0.0856 C.3       1 <0>        -0.1540
     18 C13         3.2122   -1.7815    0.6520 C.3       1 <0>        -0.1177
     19 C14         1.8374   -1.7497   -0.0203 C.3       1 <0>        -0.0793
     20 H1         -4.8655   -0.0463    0.9354 H         1 <0>         0.0675
     21 H2         -4.8814   -0.0374   -0.8445 H         1 <0>         0.0675
     22 H3         -5.6094   -1.3963    0.0452 H         1 <0>         0.0827
     23 H4         -3.3894   -2.0177   -0.8678 H         1 <0>         0.0712
     24 H5         -3.3734   -2.0267    0.9121 H         1 <0>         0.0712
     25 H6          0.4422    4.5137   -0.8176 H         1 <0>         0.1018
     26 H7         -0.0139    3.5474    1.4200 H         1 <0>         0.0621
     27 H8          0.9955    4.8073    2.1698 H         1 <0>         0.0756
     28 H9         -0.5180    5.2529    1.3458 H         1 <0>         0.0785
     29 H10         2.1380    6.3092   -1.0390 H         1 <0>         0.0697
     30 H11         0.7386    6.8657   -0.0902 H         1 <0>         0.0812
     31 H12         2.2521    6.4201    0.7338 H         1 <0>         0.0699
     32 H13         5.0717   -0.8927    0.3530 H         1 <0>         0.0878
     33 H14         4.2620   -1.1703   -1.1239 H         1 <0>         0.1026
     34 H15         3.1163   -1.4561    1.6878 H         1 <0>         0.0713
     35 H16         3.6041   -2.7984    0.6268 H         1 <0>         0.0854
     36 H17         1.1425   -2.3819    0.5324 H         1 <0>         0.1063
     37 H18         1.9207   -2.1045   -1.0476 H         1 <0>         0.0948
@<TRIPOS>BOND
     1    1    2 1
     2    1   20 1
     3    1   21 1
     4    1   22 1
     5    2    3 1
     6    2   23 1
     7    2   24 1
     8    3    4 1
     9    4    5 2
    10    4    6 1
    11    6   10 1
    12    6    7 2
    13    7   19 1
    14    7    8 1
    15    8    9 2
    16    8   15 1
    17    9   10 1
    18    9   11 1
    19   11   12 1
    20   12   13 1
    21   12   14 1
    22   12   25 1
    23   13   26 1
    24   13   27 1
    25   13   28 1
    26   14   29 1
    27   14   30 1
    28   14   31 1
    29   15   16 2
    30   15   17 1
    31   17   18 1
    32   17   32 1
    33   17   33 1
    34   18   19 1
    35   18   34 1
    36   18   35 1
    37   19   36 1
    38   19   37 1
@<TRIPOS>MOLECULE
ZINC00602847
   48    52     0     0     0
SMALL
USER_CHARGES

@<TRIPOS>ATOM
      1 C1         -0.0173    1.4248    0.0099 C.3       1 <0>         0.0269
      2 O1          0.0021   -0.0041    0.0020 O.3       1 <0>        -0.3182
      3 C2          0.6258   -0.6184    1.0415 C.ar      1 <0>         0.1243
      4 C3          1.2022    0.1384    2.0513 C.ar      1 <0>        -0.2068
      5 C4          1.8353   -0.4884    3.1070 C.ar      1 <0>        -0.0750
      6 C5          1.8951   -1.8688    3.1577 C.ar      1 <0>        -0.1214
      7 C6          1.3218   -2.6253    2.1523 C.ar      1 <0>        -0.0748
      8 C7          0.6822   -2.0034    1.0976 C.ar      1 <0>        -0.1496
      9 C8          2.5867   -2.5500    4.3104 C.3       1 <0>        -0.0706
     10 C9          1.5771   -2.8076    5.4307 C.3       1 <0>        -0.1307
     11 C10         2.2793   -3.4992    6.6010 C.3       1 <0>         0.1366
     12 N1          1.3125   -3.7459    7.6738 N.pl3     1 <0>        -0.3534
     13 C11         1.0184   -2.8933    8.6954 C.2       1 <0>         0.3698
     14 C12         0.0463   -3.5315    9.4806 C.2       1 <0>        -0.2674
     15 C13        -0.2172   -4.7794    8.8878 C.2       1 <0>         0.1302
     16 N2          0.5272   -4.8958    7.8225 N.2       1 <0>        -0.2626
     17 C14        -0.4546   -2.8267   10.6611 C.2       1 <0>         0.4067
     18 N3         -1.3368   -3.1079   11.5974 N.2       1 <0>        -0.5163
     19 C15        -1.4144   -2.0890   12.4629 C.2       1 <0>         0.3505
     20 N4         -0.5791   -1.1375   12.0907 N.2       1 <0>        -0.3000
     21 N5          0.0588   -1.5837   10.9262 N.pl3     1 <0>        -0.3765
     22 C16         1.0032   -1.0458   10.1009 C.2       1 <0>         0.6913
     23 N6          1.4538   -1.6744    9.0431 N.2       1 <0>        -0.5609
     24 N7          1.5011    0.2031   10.3906 N.pl3     1 <0>        -0.8026
     25 C17        -2.2961   -2.0382   13.6479 C.2       1 <0>         0.0425
     26 C18        -2.3879   -1.0082   14.5304 C.2       1 <0>        -0.1373
     27 C19        -3.3441   -1.3838   15.4947 C.2       1 <0>        -0.2200
     28 C20        -3.7842   -2.6118   15.1567 C.2       1 <0>        -0.0041
     29 O2         -3.1527   -3.0019   14.0378 O.3       1 <0>        -0.1521
     30 H1          1.0053    1.8021    0.0021 H         1 <0>         0.0559
     31 H2         -0.5445    1.7859   -0.8732 H         1 <0>         0.1012
     32 H3         -0.5275    1.7763    0.9067 H         1 <0>         0.0554
     33 H4          1.1564    1.2167    2.0118 H         1 <0>         0.1276
     34 H5          2.2842    0.1003    3.8934 H         1 <0>         0.1242
     35 H6          1.3701   -3.7035    2.1940 H         1 <0>         0.1301
     36 H7          0.2307   -2.5948    0.3148 H         1 <0>         0.1312
     37 H8          3.0056   -3.4983    3.9736 H         1 <0>         0.0778
     38 H9          3.3874   -1.9109    4.6827 H         1 <0>         0.0761
     39 H10         1.1582   -1.8593    5.7675 H         1 <0>         0.0709
     40 H11         0.7764   -3.4467    5.0584 H         1 <0>         0.0759
     41 H12         2.6982   -4.4475    6.2643 H         1 <0>         0.1031
     42 H13         3.0799   -2.8601    6.9733 H         1 <0>         0.1002
     43 H14        -0.9200   -5.5149    9.2505 H         1 <0>         0.2021
     44 H15         1.1805    0.6844   11.1693 H         1 <0>         0.4262
     45 H16         2.1729    0.6026    9.8161 H         1 <0>         0.4302
     46 H17        -1.8346   -0.0812   14.4987 H         1 <0>         0.1599
     47 H18        -3.6636   -0.7985   16.3442 H         1 <0>         0.1594
     48 H19        -4.5248   -3.1853   15.6942 H         1 <0>         0.2142
@<TRIPOS>BOND
     1    1    2 1
     2    1   30 1
     3    1   31 1
     4    1   32 1
     5    2    3 1
     6    3    8 ar
     7    3    4 ar
     8    4    5 ar
     9    4   33 1
    10    5    6 ar
    11    5   34 1
    12    6    7 ar
    13    6    9 1
    14    7    8 ar
    15    7   35 1
    16    8   36 1
    17    9   10 1
    18    9   37 1
    19    9   38 1
    20   10   11 1
    21   10   39 1
    22   10   40 1
    23   11   12 1
    24   11   41 1
    25   11   42 1
    26   12   16 1
    27   12   13 1
    28   13   23 1
    29   13   14 2
    30   14   15 1
    31   14   17 1
    32   15   16 2
    33   15   43 1
    34   17   21 1
    35   17   18 2
    36   18   19 1
    37   19   20 2
    38   19   25 1
    39   20   21 1
    40   21   22 1
    41   22   23 2
    42   22   24 1
    43   24   44 1
    44   24   45 1
    45   25   29 1
    46   25   26 2
    47   26   27 1
    48   26   46 1
    49   27   28 2
    50   27   47 1
    51   28   29 1
    52   28   48 1
@<TRIPOS>MOLECULE
ZINC03838320
   54    56     0     0     0
SMALL
USER_CHARGES

@<TRIPOS>ATOM
      1 C1         -0.0178    1.4608    0.0101 C.3       1 <0>         0.0746
      2 N1          0.0021   -0.0041    0.0020 N.pl3     1 <0>        -0.4150
      3 C2          0.0086   -0.8126   -1.0981 C.2       1 <0>         0.3227
      4 N2          0.0273   -2.0761   -0.7087 N.2       1 <0>        -0.4786
      5 C3          0.0336   -2.1396    0.6207 C.2       1 <0>         0.3423
      6 C4          0.0238   -0.8345    1.1065 C.2       1 <0>        -0.1603
      7 C5          0.0341   -0.6204    2.5005 C.2       1 <0>         0.6026
      8 O1          0.0226    0.5120    2.9498 O.2       1 <0>        -0.5252
      9 N3          0.0564   -1.6834    3.3309 N.am      1 <0>        -0.5493
     10 C6          0.0694   -2.9382    2.8497 C.2       1 <0>         0.7047
     11 O2          0.0898   -3.8713    3.6292 O.2       1 <0>        -0.5178
     12 N4          0.0514   -3.1889    1.5272 N.am      1 <0>        -0.5014
     13 C7          0.0683   -4.5721    1.0446 C.3       1 <0>         0.1178
     14 C8          1.5165   -5.0340    0.8709 C.3       1 <0>        -0.1355
     15 C9          1.5340   -6.4785    0.3669 C.3       1 <0>         0.1382
     16 O3          2.8867   -6.9100    0.2047 O.3       1 <0>        -0.7585
     17 P1          3.2812   -8.3827   -0.3124 P.3       1 <0>         2.1289
     18 O4          2.5979   -9.4571    0.6003 O.2       1 <0>        -1.1890
     19 O5          2.7930   -8.5657   -1.7898 O.3       1 <0>        -1.1875
     20 O6          4.8368   -8.5584   -0.2509 O.3       1 <0>        -1.1692
     21 C10         0.0671   -1.4665    4.7797 C.3       1 <0>         0.2276
     22 C11        -1.3169   -1.4128    5.2780 C.1       1 <0>        -0.2009
     23 C12        -2.4207   -1.3699    5.6755 C.1       1 <0>        -0.1754
     24 C13        -0.0032   -0.3532   -2.4893 C.2       1 <0>        -0.1115
     25 C14         0.0049   -1.2498   -3.4949 C.2       1 <0>        -0.0280
     26 C15        -0.0070   -0.7881   -4.8930 C.ar      1 <0>        -0.0269
     27 C16        -0.0209    0.5805   -5.1806 C.ar      1 <0>        -0.1435
     28 C17        -0.0321    1.0083   -6.4915 C.ar      1 <0>        -0.0845
     29 C18        -0.0295    0.0882   -7.5244 C.ar      1 <0>        -0.2032
     30 C19        -0.0162   -1.2729   -7.2497 C.ar      1 <0>         0.1272
     31 C20         0.0014   -1.7154   -5.9382 C.ar      1 <0>        -0.1229
     32 O7         -0.0147   -2.1713   -8.2695 O.3       1 <0>        -0.3129
     33 C21        -0.0272   -1.6449   -9.5979 C.3       1 <0>         0.0280
     34 H1          1.0048    1.8381    0.0023 H         1 <0>         0.0838
     35 H2         -0.5450    1.8219   -0.8730 H         1 <0>         0.0911
     36 H3         -0.5280    1.8123    0.9069 H         1 <0>         0.0987
     37 H4         -0.4340   -5.2151    1.7673 H         1 <0>         0.1036
     38 H5         -0.4487   -4.6290    0.0867 H         1 <0>         0.1023
     39 H6          2.0187   -4.3909    0.1482 H         1 <0>         0.0685
     40 H7          2.0334   -4.9771    1.8288 H         1 <0>         0.0690
     41 H8          1.0318   -7.1216    1.0896 H         1 <0>         0.0380
     42 H9          1.0171   -6.5354   -0.5910 H         1 <0>         0.0353
     43 H10         0.5968   -2.2858    5.2658 H         1 <0>         0.1281
     44 H11         0.5704   -0.5257    5.0025 H         1 <0>         0.1230
     45 H12        -3.4080   -1.3315    6.0310 H         1 <0>         0.2202
     46 H13        -0.0185    0.7042   -2.7087 H         1 <0>         0.1403
     47 H14         0.0201   -2.3072   -3.2755 H         1 <0>         0.1487
     48 H15        -0.0233    1.3017   -4.3766 H         1 <0>         0.1268
     49 H16        -0.0432    2.0654   -6.7125 H         1 <0>         0.1253
     50 H17        -0.0383    0.4299   -8.5489 H         1 <0>         0.1270
     51 H18         0.0166   -2.7737   -5.7235 H         1 <0>         0.1438
     52 H19        -0.0245   -2.4664  -10.3144 H         1 <0>         0.1007
     53 H20        -0.9233   -1.0410   -9.7410 H         1 <0>         0.0534
     54 H21         0.8566   -1.0257   -9.7518 H         1 <0>         0.0547
@<TRIPOS>BOND
     1    1    2 1
     2    1   34 1
     3    1   35 1
     4    1   36 1
     5    2    6 1
     6    2    3 1
     7    3    4 2
     8    3   24 1
     9    4    5 1
    10    5   12 1
    11    5    6 2
    12    6    7 1
    13    7    8 2
    14    7    9 am
    15    9   10 am
    16    9   21 1
    17   10   11 2
    18   10   12 am
    19   12   13 1
    20   13   14 1
    21   13   37 1
    22   13   38 1
    23   14   15 1
    24   14   39 1
    25   14   40 1
    26   15   16 1
    27   15   41 1
    28   15   42 1
    29   16   17 1
    30   17   18 2
    31   17   19 1
    32   17   20 1
    33   21   22 1
    34   21   43 1
    35   21   44 1
    36   22   23 3
    37   23   45 1
    38   24   25 2
    39   24   46 1
    40   25   26 1
    41   25   47 1
    42   26   31 ar
    43   26   27 ar
    44   27   28 ar
    45   27   48 1
    46   28   29 ar
    47   28   49 1
    48   29   30 ar
    49   29   50 1
    50   30   31 ar
    51   30   32 1
    52   31   51 1
    53   32   33 1
    54   33   52 1
    55   33   53 1
    56   33   54 1
@<TRIPOS>MOLECULE
ZINC03838320
   55    57     0     0     0
SMALL
USER_CHARGES

@<TRIPOS>ATOM
      1 C1         -0.0178    1.4608    0.0101 C.3       1 <0>         0.0716
      2 N1          0.0021   -0.0041    0.0020 N.pl3     1 <0>        -0.4114
      3 C2          0.0086   -0.8126   -1.0981 C.2       1 <0>         0.3239
      4 N2          0.0273   -2.0761   -0.7087 N.2       1 <0>        -0.4823
      5 C3          0.0336   -2.1396    0.6207 C.2       1 <0>         0.3343
      6 C4          0.0238   -0.8345    1.1065 C.2       1 <0>        -0.1544
      7 C5          0.0341   -0.6204    2.5005 C.2       1 <0>         0.5999
      8 O1          0.0226    0.5120    2.9498 O.2       1 <0>        -0.5168
      9 N3          0.0564   -1.6834    3.3309 N.am      1 <0>        -0.5491
     10 C6          0.0694   -2.9382    2.8497 C.2       1 <0>         0.7075
     11 O2          0.0898   -3.8713    3.6292 O.2       1 <0>        -0.5209
     12 N4          0.0514   -3.1889    1.5272 N.am      1 <0>        -0.5039
     13 C7          0.0683   -4.5721    1.0446 C.3       1 <0>         0.1192
     14 C8          1.5165   -5.0340    0.8709 C.3       1 <0>        -0.1389
     15 C9          1.5340   -6.4785    0.3669 C.3       1 <0>         0.1426
     16 O3          2.8867   -6.9100    0.2047 O.3       1 <0>        -0.7602
     17 P1          3.2812   -8.3827   -0.3124 P.3       1 <0>         2.2109
     18 O4          2.5877   -8.6564   -1.6656 O.2       1 <0>        -1.1081
     19 O5          4.8777   -8.4762   -0.4990 O.3       1 <0>        -0.8976
     20 O6          2.8215   -9.4326    0.7236 O.3       1 <0>        -1.1067
     21 C10         0.0671   -1.4665    4.7797 C.3       1 <0>         0.2291
     22 C11        -1.3169   -1.4128    5.2780 C.1       1 <0>        -0.2090
     23 C12        -2.4207   -1.3699    5.6755 C.1       1 <0>        -0.1664
     24 C13        -0.0032   -0.3532   -2.4893 C.2       1 <0>        -0.1140
     25 C14         0.0049   -1.2498   -3.4949 C.2       1 <0>        -0.0252
     26 C15        -0.0070   -0.7881   -4.8930 C.ar      1 <0>        -0.0311
     27 C16        -0.0209    0.5805   -5.1806 C.ar      1 <0>        -0.1424
     28 C17        -0.0321    1.0083   -6.4915 C.ar      1 <0>        -0.0824
     29 C18        -0.0295    0.0882   -7.5244 C.ar      1 <0>        -0.2005
     30 C19        -0.0162   -1.2729   -7.2497 C.ar      1 <0>         0.1272
     31 C20         0.0014   -1.7154   -5.9382 C.ar      1 <0>        -0.1247
     32 O7         -0.0147   -2.1713   -8.2695 O.3       1 <0>        -0.3143
     33 C21        -0.0272   -1.6449   -9.5979 C.3       1 <0>         0.0271
     34 H1          1.0048    1.8381    0.0023 H         1 <0>         0.0863
     35 H2         -0.5450    1.8219   -0.8730 H         1 <0>         0.0938
     36 H3         -0.5280    1.8123    0.9069 H         1 <0>         0.1008
     37 H4         -0.4340   -5.2151    1.7673 H         1 <0>         0.1057
     38 H5         -0.4487   -4.6290    0.0867 H         1 <0>         0.1046
     39 H6          2.0187   -4.3909    0.1482 H         1 <0>         0.0749
     40 H7          2.0334   -4.9771    1.8288 H         1 <0>         0.0753
     41 H8          1.0318   -7.1216    1.0896 H         1 <0>         0.0558
     42 H9          1.0171   -6.5354   -0.5910 H         1 <0>         0.0579
     43 H10         0.5968   -2.2858    5.2658 H         1 <0>         0.1275
     44 H11         0.5704   -0.5257    5.0025 H         1 <0>         0.1239
     45 H12        -3.4080   -1.3315    6.0310 H         1 <0>         0.2214
     46 H13        -0.0185    0.7042   -2.7087 H         1 <0>         0.1416
     47 H14         0.0201   -2.3072   -3.2755 H         1 <0>         0.1461
     48 H15        -0.0233    1.3017   -4.3766 H         1 <0>         0.1273
     49 H16        -0.0432    2.0654   -6.7125 H         1 <0>         0.1272
     50 H17        -0.0383    0.4299   -8.5489 H         1 <0>         0.1287
     51 H18         0.0166   -2.7737   -5.7235 H         1 <0>         0.1413
     52 H19        -0.9233   -1.0410   -9.7410 H         1 <0>         0.0551
     53 H20         0.8566   -1.0257   -9.7518 H         1 <0>         0.0556
     54 H21        -0.0245   -2.4664  -10.3144 H         1 <0>         0.1017
     55 H22         5.1876   -9.3380   -0.8093 H         1 <0>         0.4142
@<TRIPOS>BOND
     1    1    2 1
     2    1   34 1
     3    1   35 1
     4    1   36 1
     5    2    6 1
     6    2    3 1
     7    3    4 2
     8    3   24 1
     9    4    5 1
    10    5   12 1
    11    5    6 2
    12    6    7 1
    13    7    8 2
    14    7    9 am
    15    9   10 am
    16    9   21 1
    17   10   11 2
    18   10   12 am
    19   12   13 1
    20   13   14 1
    21   13   37 1
    22   13   38 1
    23   14   15 1
    24   14   39 1
    25   14   40 1
    26   15   16 1
    27   15   41 1
    28   15   42 1
    29   16   17 1
    30   17   18 2
    31   17   19 1
    32   17   20 1
    33   19   55 1
    34   21   22 1
    35   21   43 1
    36   21   44 1
    37   22   23 3
    38   23   45 1
    39   24   25 2
    40   24   46 1
    41   25   26 1
    42   25   47 1
    43   26   31 ar
    44   26   27 ar
    45   27   28 ar
    46   27   48 1
    47   28   29 ar
    48   28   49 1
    49   29   30 ar
    50   29   50 1
    51   30   31 ar
    52   30   32 1
    53   31   51 1
    54   32   33 1
    55   33   52 1
    56   33   53 1
    57   33   54 1
@<TRIPOS>MOLECULE
ZINC03814423
   58    62     0     0     0
SMALL
USER_CHARGES

@<TRIPOS>ATOM
      1 C1         -0.3495    1.1419    0.1565 C.3       1 <0>        -0.2092
      2 C2          0.5123   -0.0432   -0.1956 C.2       1 <0>         0.3555
      3 O1          1.4945   -0.2919    0.4614 O.2       1 <0>        -0.4322
      4 C3          0.1483   -0.9179   -1.3675 C.3       1 <0>         0.0885
      5 C4          1.4042   -1.6523   -1.8999 C.3       1 <0>        -0.1306
      6 C5          1.0874   -3.1711   -1.8263 C.3       1 <0>        -0.1197
      7 C6         -0.4442   -3.2049   -1.8665 C.3       1 <0>        -0.0741
      8 H1         -0.8032   -3.0148   -2.8779 H         1 <0>         0.0895
      9 C7         -0.8066   -2.0212   -0.9267 C.3       1 <0>        -0.0418
     10 C8         -2.2879   -1.7430   -1.0734 C.3       1 <0>        -0.0999
     11 C9         -3.0484   -2.9897   -0.5829 C.3       1 <0>        -0.1142
     12 C10        -2.6175   -4.2238   -1.3633 C.3       1 <0>        -0.0695
     13 H2         -2.8921   -4.0887   -2.4095 H         1 <0>         0.0789
     14 C11        -1.0985   -4.4463   -1.2980 C.3       1 <0>        -0.0570
     15 H3         -0.8122   -4.5485   -0.2513 H         1 <0>         0.1098
     16 C12        -0.6950   -5.6905   -2.0209 C.2       1 <0>        -0.0846
     17 C13        -1.5320   -6.7000   -2.2521 C.2       1 <0>        -0.0701
     18 C14        -2.9357   -6.6244   -1.8124 C.2       1 <0>         0.0207
     19 C15        -3.7999   -7.5601   -2.2489 C.2       1 <0>        -0.2256
     20 C16        -5.1738   -7.5324   -1.9791 C.2       1 <0>         0.4168
     21 O2         -5.8804   -8.4610   -2.3164 O.2       1 <0>        -0.4511
     22 C17        -5.7723   -6.3449   -1.2675 C.3       1 <0>        -0.2014
     23 H4         -6.6716   -6.5474   -0.6859 H         1 <0>         0.1324
     24 C18        -5.6703   -4.9881   -1.9702 C.3       1 <0>        -0.1405
     25 C19        -4.8001   -5.2994   -0.7282 C.3       1 <0>        -0.1250
     26 H5         -5.0902   -4.8025    0.1976 H         1 <0>         0.1198
     27 C20        -3.2955   -5.4856   -0.8402 C.3       1 <0>         0.0141
     28 C21        -2.7140   -5.7800    0.5440 C.3       1 <0>        -0.1492
     29 Cl1        -0.9642   -8.1168   -3.0793 Cl        1 <0>        -0.0614
     30 C22        -0.5095   -2.4082    0.5234 C.3       1 <0>        -0.1637
     31 O3         -0.4458   -0.1338   -2.4041 O.3       1 <0>        -0.3274
     32 C23         0.2993    0.8546   -2.9235 C.2       1 <0>         0.4524
     33 O4          1.4427    1.0029   -2.5624 O.2       1 <0>        -0.5012
     34 C24        -0.2905    1.7793   -3.9570 C.3       1 <0>        -0.1484
     35 H6          0.0609    2.0397   -0.3058 H         1 <0>         0.0951
     36 H7         -1.3628    0.9757   -0.2091 H         1 <0>         0.0891
     37 H8         -0.3698    1.2675    1.2391 H         1 <0>         0.0930
     38 H9          1.5991   -1.3604   -2.9318 H         1 <0>         0.0778
     39 H10         2.2667   -1.4194   -1.2754 H         1 <0>         0.0930
     40 H11         1.5073   -3.6947   -2.6852 H         1 <0>         0.0761
     41 H12         1.4582   -3.5977   -0.8943 H         1 <0>         0.0774
     42 H13        -2.5635   -0.8798   -0.4676 H         1 <0>         0.0713
     43 H14        -2.5263   -1.5525   -2.1198 H         1 <0>         0.0795
     44 H15        -2.8405   -3.1437    0.4760 H         1 <0>         0.0733
     45 H16        -4.1186   -2.8342   -0.7191 H         1 <0>         0.0786
     46 H17         0.3228   -5.7746   -2.3724 H         1 <0>         0.1320
     47 H18        -3.4122   -8.3768   -2.8399 H         1 <0>         0.1411
     48 H19        -5.1793   -4.9604   -2.9430 H         1 <0>         0.1012
     49 H20        -6.4978   -4.2904   -1.8406 H         1 <0>         0.1122
     50 H21        -2.9118   -4.9382    1.2077 H         1 <0>         0.0750
     51 H22        -3.1781   -6.6791    0.9493 H         1 <0>         0.0645
     52 H23        -1.6379   -5.9322    0.4611 H         1 <0>         0.0686
     53 H24        -0.7307   -1.5645    1.1772 H         1 <0>         0.0601
     54 H25        -1.1287   -3.2594    0.8065 H         1 <0>         0.0820
     55 H26         0.5426   -2.6763    0.6197 H         1 <0>         0.0703
     56 H27        -1.3235    1.4925   -4.1539 H         1 <0>         0.0937
     57 H28        -0.2622    2.8039   -3.5862 H         1 <0>         0.1074
     58 H29         0.2877    1.7103   -4.8784 H         1 <0>         0.1070
@<TRIPOS>BOND
     1    1    2 1
     2    1   35 1
     3    1   36 1
     4    1   37 1
     5    2    3 2
     6    2    4 1
     7    4    9 1
     8    4    5 1
     9    4   31 1
    10    5    6 1
    11    5   38 1
    12    5   39 1
    13    6    7 1
    14    6   40 1
    15    6   41 1
    16    7    8 1
    17    7   14 1
    18    7    9 1
    19    9   10 1
    20    9   30 1
    21   10   11 1
    22   10   42 1
    23   10   43 1
    24   11   12 1
    25   11   44 1
    26   11   45 1
    27   12   13 1
    28   12   27 1
    29   12   14 1
    30   14   15 1
    31   14   16 1
    32   16   17 2
    33   16   46 1
    34   17   18 1
    35   17   29 1
    36   18   27 1
    37   18   19 2
    38   19   20 1
    39   19   47 1
    40   20   21 2
    41   20   22 1
    42   22   23 1
    43   22   25 1
    44   22   24 1
    45   24   25 1
    46   24   48 1
    47   24   49 1
    48   25   26 1
    49   25   27 1
    50   27   28 1
    51   28   50 1
    52   28   51 1
    53   28   52 1
    54   30   53 1
    55   30   54 1
    56   30   55 1
    57   31   32 1
    58   32   33 2
    59   32   34 1
    60   34   56 1
    61   34   57 1
    62   34   58 1
@<TRIPOS>MOLECULE
ZINC17539659
   50    51     0     0     0
SMALL
USER_CHARGES

@<TRIPOS>ATOM
      1 C1         -0.9338    1.3855   -0.5035 C.3       1 <0>        -0.1498
      2 C2         -0.7468   -0.1315   -0.4332 C.3       1 <0>         0.0662
      3 O1          0.1172   -0.5544   -1.4900 O.3       1 <0>        -0.3257
      4 C3          0.3862   -1.8731   -1.5700 C.2       1 <0>         0.4854
      5 O2         -0.1466   -2.7165   -0.6867 O.2       1 <0>        -0.6297
      6 C4          1.2195   -2.3529   -2.5742 C.2       1 <0>        -0.3731
      7 C5          1.6238   -3.6782   -2.6033 C.2       1 <0>         0.3018
      8 N1          2.4134   -4.1484   -3.5491 N.2       1 <0>        -0.6461
      9 C6          2.9036   -3.4477   -4.5528 C.2       1 <0>         0.2824
     10 C7          2.6246   -2.0998   -4.7145 C.2       1 <0>        -0.3745
     11 C8          3.1497   -1.3753   -5.7786 C.2       1 <0>         0.4780
     12 O3          2.8640   -0.0803   -5.9084 O.3       1 <0>        -0.6183
     13 O4          3.9480   -1.9831   -6.6792 O.3       1 <0>        -0.3342
     14 C9          4.4521   -1.1780   -7.7468 C.3       1 <0>         0.0603
     15 C10         5.3314   -2.0345   -8.6602 C.3       1 <0>        -0.1494
     16 C11         1.7179   -1.4475   -3.6863 C.3       1 <0>         0.1161
     17 H1          2.2627   -0.6194   -3.2328 H         1 <0>         0.0409
     18 C12         0.5203   -0.8780   -4.4022 C.2       1 <0>        -0.0824
     19 C13         0.3352    0.4340   -4.4441 C.2       1 <0>        -0.1299
     20 C14        -0.8395    0.9925   -5.1463 C.ar      1 <0>        -0.0153
     21 C15        -1.7584    0.1413   -5.7611 C.ar      1 <0>        -0.1273
     22 C16        -2.8527    0.6690   -6.4150 C.ar      1 <0>        -0.1172
     23 C17        -3.0397    2.0389   -6.4622 C.ar      1 <0>        -0.1442
     24 C18        -2.1321    2.8883   -5.8551 C.ar      1 <0>        -0.1195
     25 C19        -1.0372    2.3730   -5.1923 C.ar      1 <0>        -0.1225
     26 C20         3.7955   -4.1339   -5.5551 C.3       1 <0>        -0.1038
     27 C21         1.1466   -4.6110   -1.5202 C.3       1 <0>        -0.1131
     28 H2          0.0341    1.8760   -0.3998 H         1 <0>         0.0617
     29 H3         -1.3758    1.6530   -1.4632 H         1 <0>         0.0641
     30 H4         -1.5928    1.7080    0.3026 H         1 <0>         0.0690
     31 H5         -0.3048   -0.3990    0.5265 H         1 <0>         0.0574
     32 H6         -1.7146   -0.6220   -0.5369 H         1 <0>         0.0576
     33 H7          3.6190   -0.7723   -8.3207 H         1 <0>         0.0585
     34 H8          5.0435   -0.3594   -7.3366 H         1 <0>         0.0586
     35 H9          5.7159   -1.4205   -9.4745 H         1 <0>         0.0696
     36 H10         6.1646   -2.4402   -8.0863 H         1 <0>         0.0622
     37 H11         4.7400   -2.8531   -9.0704 H         1 <0>         0.0620
     38 H12        -0.1871   -1.5388   -4.8810 H         1 <0>         0.0899
     39 H13         1.0426    1.0947   -3.9652 H         1 <0>         0.1105
     40 H14        -1.6131   -0.9283   -5.7255 H         1 <0>         0.1197
     41 H15        -3.5647    0.0112   -6.8913 H         1 <0>         0.1150
     42 H16        -3.8978    2.4470   -6.9756 H         1 <0>         0.1131
     43 H17        -2.2834    3.9569   -5.8961 H         1 <0>         0.1149
     44 H18        -0.3321    3.0369   -4.7143 H         1 <0>         0.1186
     45 H19         3.9106   -5.1826   -5.2811 H         1 <0>         0.0627
     46 H20         3.3484   -4.0644   -6.5468 H         1 <0>         0.0772
     47 H21         4.7727   -3.6509   -5.5625 H         1 <0>         0.0776
     48 H22         0.1592   -4.9933   -1.7790 H         1 <0>         0.0714
     49 H23         1.8444   -5.4427   -1.4234 H         1 <0>         0.0493
     50 H24         1.0909   -4.0715   -0.5747 H         1 <0>         0.1043
@<TRIPOS>BOND
     1    1    2 1
     2    1   28 1
     3    1   29 1
     4    1   30 1
     5    2    3 1
     6    2   31 1
     7    2   32 1
     8    3    4 1
     9    4    5 2
    10    4    6 1
    11    6   16 1
    12    6    7 2
    13    7    8 1
    14    7   27 1
    15    8    9 2
    16    9   10 1
    17    9   26 1
    18   10   11 2
    19   10   16 1
    20   11   12 1
    21   11   13 1
    22   13   14 1
    23   14   15 1
    24   14   33 1
    25   14   34 1
    26   15   35 1
    27   15   36 1
    28   15   37 1
    29   16   17 1
    30   16   18 1
    31   18   19 2
    32   18   38 1
    33   19   20 1
    34   19   39 1
    35   20   25 ar
    36   20   21 ar
    37   21   22 ar
    38   21   40 1
    39   22   23 ar
    40   22   41 1
    41   23   24 ar
    42   23   42 1
    43   24   25 ar
    44   24   43 1
    45   25   44 1
    46   26   45 1
    47   26   46 1
    48   26   47 1
    49   27   48 1
    50   27   49 1
    51   27   50 1
@<TRIPOS>MOLECULE
ZINC18185774
   31    33     0     0     0
SMALL
USER_CHARGES

@<TRIPOS>ATOM
      1 C1         -0.0169    1.3929    0.0097 C.ar      1 <0>        -0.0705
      2 C2          1.1675    2.0983    0.0022 C.ar      1 <0>        -0.1309
      3 C3          2.3803    1.4240   -0.0135 C.ar      1 <0>         0.1099
      4 C4          2.4067    0.0300   -0.0212 C.ar      1 <0>         0.0792
      5 C5          1.2240   -0.6832   -0.0138 C.ar      1 <0>        -0.0904
      6 C6          0.0021   -0.0041    0.0020 C.ar      1 <0>        -0.0661
      7 C7         -1.2642   -0.7606    0.0105 C.2       1 <0>         0.2069
      8 C8         -2.4374   -0.0724    0.0203 C.2       1 <0>        -0.3067
      9 C9         -3.6620   -0.7813    0.0286 C.2       1 <0>         0.4226
     10 O1         -4.7331   -0.1964    0.0371 O.2       1 <0>        -0.4521
     11 C10        -3.5935   -2.2524    0.0260 C.ar      1 <0>        -0.2661
     12 C11        -4.7554   -3.0344    0.0332 C.ar      1 <0>         0.2196
     13 C12        -4.6484   -4.4128    0.0300 C.ar      1 <0>        -0.2046
     14 C13        -3.3955   -5.0163    0.0203 C.ar      1 <0>         0.1928
     15 C14        -2.2415   -4.2483    0.0131 C.ar      1 <0>        -0.1829
     16 C15        -2.3286   -2.8648    0.0157 C.ar      1 <0>         0.1832
     17 O2         -1.2147   -2.1022    0.0028 O.3       1 <0>        -0.2181
     18 O3         -3.3016   -6.3705    0.0182 O.3       1 <0>        -0.4872
     19 O4         -5.9771   -2.4436    0.0436 O.3       1 <0>        -0.4722
     20 O5          3.5971   -0.6274   -0.0366 O.3       1 <0>        -0.4831
     21 O6          3.5446    2.1239   -0.0217 O.3       1 <0>        -0.4848
     22 H1         -0.9593    1.9201    0.0260 H         1 <0>         0.1451
     23 H2          1.1515    3.1781    0.0081 H         1 <0>         0.1468
     24 H3          1.2430   -1.7630   -0.0205 H         1 <0>         0.1466
     25 H4         -2.4342    1.0076    0.0222 H         1 <0>         0.1649
     26 H5         -5.5400   -5.0224    0.0355 H         1 <0>         0.1504
     27 H6         -1.2739   -4.7281    0.0059 H         1 <0>         0.1535
     28 H7         -3.2809   -6.7620   -0.8658 H         1 <0>         0.4041
     29 H8         -6.3379   -2.2705   -0.8367 H         1 <0>         0.4034
     30 H9          3.9502   -0.8223    0.8423 H         1 <0>         0.3919
     31 H10         3.8907    2.3221    0.8592 H         1 <0>         0.3948
@<TRIPOS>BOND
     1    1    6 ar
     2    1    2 ar
     3    1   22 1
     4    2    3 ar
     5    2   23 1
     6    3    4 ar
     7    3   21 1
     8    4    5 ar
     9    4   20 1
    10    5    6 ar
    11    5   24 1
    12    6    7 1
    13    7   17 1
    14    7    8 2
    15    8    9 1
    16    8   25 1
    17    9   10 2
    18    9   11 1
    19   11   16 ar
    20   11   12 ar
    21   12   13 ar
    22   12   19 1
    23   13   14 ar
    24   13   26 1
    25   14   15 ar
    26   14   18 1
    27   15   16 ar
    28   15   27 1
    29   16   17 1
    30   18   28 1
    31   19   29 1
    32   20   30 1
    33   21   31 1
@<TRIPOS>MOLECULE
ZINC04216238
   32    34     0     0     0
SMALL
USER_CHARGES

@<TRIPOS>ATOM
      1 C1         -0.0164    1.3595    0.0095 C.2       1 <0>         0.2905
      2 N1          1.2004    1.8202    0.0004 N.2       1 <0>        -0.4603
      3 C2          2.0746    0.7848   -0.0135 C.ar      1 <0>        -0.1082
      4 C3          3.4758    0.6755   -0.0279 C.ar      1 <0>         0.5404
      5 N2          4.0170   -0.5380   -0.0400 N.ar      1 <0>        -0.6055
      6 C4          3.2621   -1.6244   -0.0386 C.ar      1 <0>         0.5657
      7 N3          1.9447   -1.5690   -0.0253 N.ar      1 <0>        -0.5772
      8 C5          1.3163   -0.3974   -0.0126 C.ar      1 <0>         0.3358
      9 N4          0.0021   -0.0041    0.0020 N.pl3     1 <0>        -0.4529
     10 C6         -1.1670   -0.8869    0.0089 C.3       1 <0>         0.3167
     11 H1         -0.9749   -1.7745   -0.5939 H         1 <0>         0.1268
     12 C7         -1.5297   -1.2878    1.4560 C.3       1 <0>         0.0723
     13 H2         -1.1286   -2.2737    1.6911 H         1 <0>         0.1020
     14 C8         -3.0745   -1.3163    1.4617 C.3       1 <0>         0.0477
     15 H3         -3.4673   -0.5878    2.1709 H         1 <0>         0.0923
     16 C9         -3.4624   -0.9293    0.0174 C.3       1 <0>         0.0511
     17 H4         -3.6242   -1.8235   -0.5846 H         1 <0>         0.0998
     18 O1         -2.3293   -0.1859   -0.4847 O.3       1 <0>        -0.3483
     19 C10        -4.7182   -0.0552    0.0192 C.3       1 <0>         0.0831
     20 O2         -5.1265    0.1947   -1.3272 O.3       1 <0>        -0.5638
     21 O3         -3.5499   -2.6266    1.7767 O.3       1 <0>        -0.5480
     22 O4         -1.0407   -0.3158    2.3823 O.3       1 <0>        -0.5407
     23 F1          3.8626   -2.8345   -0.0517 F         1 <0>        -0.0712
     24 N5          4.2737    1.8060   -0.0299 N.pl3     1 <0>        -0.8069
     25 H5         -0.9091    1.9671    0.0254 H         1 <0>         0.2239
     26 H6         -5.5181   -0.5695    0.5519 H         1 <0>         0.0666
     27 H7         -4.5015    0.8911    0.5147 H         1 <0>         0.0620
     28 H8         -5.9187    0.7441   -1.4024 H         1 <0>         0.3872
     29 H9         -4.5139   -2.7016    1.7941 H         1 <0>         0.3898
     30 H10        -1.2406   -0.5178    3.3066 H         1 <0>         0.3905
     31 H11         3.8670    2.6866   -0.0213 H         1 <0>         0.4243
     32 H12         5.2396    1.7179   -0.0399 H         1 <0>         0.4143
@<TRIPOS>BOND
     1    1    9 1
     2    1    2 2
     3    1   25 1
     4    2    3 1
     5    3    8 ar
     6    3    4 ar
     7    4    5 ar
     8    4   24 1
     9    5    6 ar
    10    6    7 ar
    11    6   23 1
    12    7    8 ar
    13    8    9 1
    14    9   10 1
    15   10   11 1
    16   10   18 1
    17   10   12 1
    18   12   13 1
    19   12   14 1
    20   12   22 1
    21   14   15 1
    22   14   16 1
    23   14   21 1
    24   16   17 1
    25   16   18 1
    26   16   19 1
    27   19   20 1
    28   19   26 1
    29   19   27 1
    30   20   28 1
    31   21   29 1
    32   22   30 1
    33   24   31 1
    34   24   32 1
@<TRIPOS>MOLECULE
ZINC04654890
   33    34     0     0     0
SMALL
USER_CHARGES
1,3-dipropyl-7H-purine-2,6-dione
@<TRIPOS>ATOM
      1 C1          4.8600    4.3313   -1.4654 C.3       1 <0>        -0.1475
      2 C2          3.3301    4.3321   -1.4508 C.3       1 <0>        -0.1381
      3 C3          2.8338    4.3259   -0.0036 C.3       1 <0>         0.1189
      4 N1          1.3689    4.3267    0.0104 N.am      1 <0>        -0.5084
      5 C4          0.6765    3.1266    0.0116 C.2       1 <0>         0.3217
      6 C5         -0.7124    3.1538    0.0245 C.2       1 <0>        -0.1544
      7 C6         -1.3758    4.3997    0.0363 C.2       1 <0>         0.5935
      8 O1         -2.5926    4.4497    0.0477 O.2       1 <0>        -0.5123
      9 N2         -0.6460    5.5347    0.0341 N.am      1 <0>        -0.5489
     10 C7          0.6974    5.4937    0.0215 C.2       1 <0>         0.7070
     11 O2          1.3222    6.5369    0.0207 O.2       1 <0>        -0.5292
     12 C8         -1.3282    6.8311    0.0459 C.3       1 <0>         0.1135
     13 C9         -1.5790    7.2886   -1.3924 C.3       1 <0>        -0.1376
     14 C10        -2.2914    8.6425   -1.3801 C.3       1 <0>        -0.1474
     15 N3         -1.1247    1.8363    0.0168 N.pl3     1 <0>        -0.5215
     16 H1         -2.0695    1.5086    0.0176 H         1 <0>         0.4452
     17 C11        -0.0126    1.0758    0.0080 C.2       1 <0>         0.2766
     18 N4          1.0472    1.8436    0.0020 N.2       1 <0>        -0.4997
     19 H2          5.2135    4.3357   -2.4965 H         1 <0>         0.0608
     20 H3          5.2287    5.2188   -0.9511 H         1 <0>         0.0590
     21 H4          5.2277    3.4388   -0.9590 H         1 <0>         0.0591
     22 H5          2.9613    3.4446   -1.9652 H         1 <0>         0.0678
     23 H6          2.9624    5.2246   -1.9572 H         1 <0>         0.0676
     24 H7          3.2025    5.2134    0.5108 H         1 <0>         0.1001
     25 H8          3.2015    3.4334    0.5028 H         1 <0>         0.0990
     26 H9         -2.2803    6.7359    0.5681 H         1 <0>         0.1015
     27 H10        -0.7051    7.5649    0.5572 H         1 <0>         0.1034
     28 H11        -0.6269    7.3837   -1.9146 H         1 <0>         0.0691
     29 H12        -2.2021    6.5548   -1.9037 H         1 <0>         0.0670
     30 H13        -2.4700    8.9685   -2.4047 H         1 <0>         0.0615
     31 H14        -3.2435    8.5474   -0.8579 H         1 <0>         0.0590
     32 H15        -1.6683    9.3763   -0.8688 H         1 <0>         0.0599
     33 H16         0.0021   -0.0041    0.0020 H         1 <0>         0.2343
@<TRIPOS>BOND
     1    1    2 1
     2    1   19 1
     3    1   20 1
     4    1   21 1
     5    2    3 1
     6    2   22 1
     7    2   23 1
     8    3    4 1
     9    3   24 1
    10    3   25 1
    11    4   10 am
    12    4    5 1
    13    5   18 1
    14    5    6 2
    15    6    7 1
    16    6   15 1
    17    7    8 2
    18    7    9 am
    19    9   10 am
    20    9   12 1
    21   10   11 2
    22   12   13 1
    23   12   26 1
    24   12   27 1
    25   13   14 1
    26   13   28 1
    27   13   29 1
    28   14   30 1
    29   14   31 1
    30   14   32 1
    31   15   16 1
    32   15   17 1
    33   17   18 2
    34   17   33 1
@<TRIPOS>MOLECULE
ZINC03995438
   43    45     0     0     0
SMALL
USER_CHARGES

@<TRIPOS>ATOM
      1 C1         -0.0187    1.5258    0.0104 C.3       1 <0>        -0.1472
      2 C2          0.0021   -0.0041    0.0020 C.3       1 <0>        -0.1385
      3 C3         -1.4333   -0.5336    0.0129 C.3       1 <0>         0.1187
      4 N1         -1.4134   -1.9985    0.0048 N.am      1 <0>        -0.5081
      5 C4         -1.3926   -2.6970    1.2023 C.2       1 <0>         0.3288
      6 C5         -1.3740   -4.0877    1.1665 C.2       1 <0>        -0.1455
      7 C6         -1.3765   -4.7432   -0.0830 C.2       1 <0>         0.5937
      8 O1         -1.3609   -5.9599   -0.1403 O.2       1 <0>        -0.5103
      9 N2         -1.3969   -4.0072   -1.2136 N.am      1 <0>        -0.5482
     10 C7         -1.4210   -2.6642   -1.1652 C.2       1 <0>         0.7077
     11 O2         -1.4444   -2.0343   -2.2051 O.2       1 <0>        -0.5279
     12 C8         -1.3996   -4.6823   -2.5137 C.3       1 <0>         0.1137
     13 C9         -2.8428   -4.9369   -2.9532 C.3       1 <0>        -0.1381
     14 C10        -2.8456   -5.6420   -4.3111 C.3       1 <0>        -0.1473
     15 N3         -1.3558   -4.5129    2.4806 N.pl3     1 <0>        -0.5143
     16 C11        -1.3636   -3.3942    3.2564 C.2       1 <0>         0.3419
     17 N4         -1.3855   -2.3272    2.4824 N.2       1 <0>        -0.4816
     18 H1         -1.3408   -5.4318    2.7909 H         1 <0>         0.4365
     19 C12        -1.3506   -3.3783    4.7345 C.ar      1 <0>        -0.0386
     20 C13        -1.3225   -4.5776    5.4481 C.ar      1 <0>        -0.0983
     21 C14        -1.3099   -4.5557    6.8275 C.ar      1 <0>        -0.1167
     22 C15        -1.3257   -3.3486    7.5035 C.ar      1 <0>        -0.0959
     23 C16        -1.3536   -2.1562    6.8021 C.ar      1 <0>        -0.1189
     24 C17        -1.3605   -2.1639    5.4226 C.ar      1 <0>        -0.0636
     25 H2          1.0039    1.9031    0.0027 H         1 <0>         0.0609
     26 H3         -0.5459    1.8868   -0.8726 H         1 <0>         0.0590
     27 H4         -0.5289    1.8773    0.9072 H         1 <0>         0.0589
     28 H5          0.5123   -0.3556   -0.8948 H         1 <0>         0.0682
     29 H6          0.5293   -0.3651    0.8851 H         1 <0>         0.0680
     30 H7         -1.9435   -0.1821    0.9097 H         1 <0>         0.0988
     31 H8         -1.9605   -0.1726   -0.8702 H         1 <0>         0.1010
     32 H9         -0.9010   -4.0530   -3.2509 H         1 <0>         0.1037
     33 H10        -0.8720   -5.6325   -2.4309 H         1 <0>         0.1018
     34 H11        -3.3414   -5.5663   -2.2160 H         1 <0>         0.0672
     35 H12        -3.3704   -3.9867   -3.0361 H         1 <0>         0.0695
     36 H13        -3.8738   -5.8234   -4.6241 H         1 <0>         0.0616
     37 H14        -2.3470   -5.0126   -5.0482 H         1 <0>         0.0599
     38 H15        -2.3180   -6.5922   -4.2282 H         1 <0>         0.0589
     39 H16        -1.3109   -5.5205    4.9217 H         1 <0>         0.1224
     40 H17        -1.2882   -5.4829    7.3809 H         1 <0>         0.1324
     41 H18        -1.3165   -3.3370    8.5834 H         1 <0>         0.1304
     42 H19        -1.3657   -1.2174    7.3358 H         1 <0>         0.1340
     43 H20        -1.3782   -1.2324    4.8763 H         1 <0>         0.1414
@<TRIPOS>BOND
     1    1    2 1
     2    1   25 1
     3    1   26 1
     4    1   27 1
     5    2    3 1
     6    2   28 1
     7    2   29 1
     8    3   30 1
     9    3   31 1
    10    3    4 1
    11    4    5 1
    12    4   10 am
    13    5   17 1
    14    5    6 2
    15    6    7 1
    16    6   15 1
    17    7    9 am
    18    7    8 2
    19    9   10 am
    20    9   12 1
    21   10   11 2
    22   12   13 1
    23   12   32 1
    24   12   33 1
    25   13   14 1
    26   13   34 1
    27   13   35 1
    28   14   36 1
    29   14   37 1
    30   14   38 1
    31   15   18 1
    32   15   16 1
    33   16   19 1
    34   16   17 2
    35   19   24 ar
    36   19   20 ar
    37   20   21 ar
    38   20   39 1
    39   21   22 ar
    40   21   40 1
    41   22   23 ar
    42   22   41 1
    43   23   24 ar
    44   23   42 1
    45   24   43 1
@<TRIPOS>MOLECULE
ZINC06919103
   41    43     0     0     0
SMALL
USER_CHARGES
4-isopropoxy-N-[4-(2-pyridyl)thiazol-2-yl]benzamide
@<TRIPOS>ATOM
      1 C1          9.2180   12.0630   -1.3080 C.3       1 <0>        -0.1840
      2 C2          8.6609   11.8036    0.0932 C.3       1 <0>         0.0743
      3 C3          8.7330   13.0908    0.9170 C.3       1 <0>        -0.1518
      4 O1          7.3005   11.3774   -0.0065 O.3       1 <0>        -0.3089
      5 C4          7.0835   10.0560   -0.2269 C.ar      1 <0>         0.1726
      6 C5          8.1589    9.2057   -0.4561 C.ar      1 <0>        -0.2214
      7 C6          7.9430    7.8644   -0.6801 C.ar      1 <0>        -0.0064
      8 C7          6.6403    7.3582   -0.6767 C.ar      1 <0>        -0.1796
      9 C8          5.5614    8.2175   -0.4516 C.ar      1 <0>        -0.0393
     10 C9          5.7863    9.5565   -0.2222 C.ar      1 <0>        -0.1600
     11 C10         6.4043    5.9215   -0.9163 C.2       1 <0>         0.5705
     12 O2          7.3438    5.1762   -1.1170 O.2       1 <0>        -0.5009
     13 N1          5.1473    5.4353   -0.9126 N.am      1 <0>        -0.6208
     14 C11         4.9252    4.0834   -1.1380 C.2       1 <0>         0.3242
     15 N2          3.7854    3.4194   -1.1746 N.2       1 <0>        -0.5315
     16 C12         3.7560    2.1147   -1.4054 C.2       1 <0>         0.1050
     17 C13         4.9308    1.4427   -1.6046 C.2       1 <0>        -0.1928
     18 S1          6.1073    2.7809   -1.4557 S.3       1 <0>         0.1159
     19 C14         2.4642    1.3902   -1.4413 C.ar      1 <0>         0.1912
     20 C15         1.2742    2.0867   -1.2318 C.ar      1 <0>        -0.1383
     21 C16         0.0762    1.3965   -1.2692 C.ar      1 <0>        -0.0780
     22 C17         0.1054    0.0301   -1.5148 C.ar      1 <0>        -0.1718
     23 C18         1.3204   -0.5974   -1.7133 C.ar      1 <0>         0.1032
     24 N3          2.4484    0.0833   -1.6730 N.ar      1 <0>        -0.4772
     25 H1          9.1662   11.1375   -1.9003 H         1 <0>         0.0649
     26 H2         10.2651   12.3911   -1.2313 H         1 <0>         0.0773
     27 H3          8.6232   12.8469   -1.7997 H         1 <0>         0.0718
     28 H4          9.1973   10.9817    0.5899 H         1 <0>         0.0777
     29 H5          8.3325   12.9043    1.9244 H         1 <0>         0.0673
     30 H6          8.1382   13.8746    0.4252 H         1 <0>         0.0706
     31 H7          9.7801   13.4189    0.9937 H         1 <0>         0.0816
     32 H8          9.1653    9.5977   -0.4589 H         1 <0>         0.1416
     33 H9          8.7791    7.2043   -0.8578 H         1 <0>         0.1429
     34 H10         4.5529    7.8311   -0.4529 H         1 <0>         0.1345
     35 H11         4.9535   10.2203   -0.0433 H         1 <0>         0.1419
     36 H12         4.2973    6.1095   -0.7310 H         1 <0>         0.4512
     37 H13         5.1006    0.3941   -1.7994 H         1 <0>         0.2052
     38 H14         1.2880    3.1500   -1.0433 H         1 <0>         0.1432
     39 H15        -0.8615    1.9097   -1.1154 H         1 <0>         0.1369
     40 H16        -0.8130   -0.5370   -1.5499 H         1 <0>         0.1369
     41 H17         1.3461   -1.6600   -1.9045 H         1 <0>         0.1603
@<TRIPOS>BOND
     1    1    2 1
     2    1   25 1
     3    1   26 1
     4    1   27 1
     5    2    3 1
     6    2    4 1
     7    2   28 1
     8    3   29 1
     9    3   30 1
    10    3   31 1
    11    4    5 1
    12    5   10 ar
    13    5    6 ar
    14    6    7 ar
    15    6   32 1
    16    7    8 ar
    17    7   33 1
    18    8    9 ar
    19    8   11 1
    20    9   10 ar
    21    9   34 1
    22   10   35 1
    23   11   12 2
    24   11   13 am
    25   13   14 1
    26   13   36 1
    27   14   18 1
    28   14   15 2
    29   15   16 1
    30   16   17 2
    31   16   19 1
    32   17   18 1
    33   17   37 1
    34   19   24 ar
    35   19   20 ar
    36   20   21 ar
    37   20   38 1
    38   21   22 ar
    39   21   39 1
    40   22   23 ar
    41   22   40 1
    42   23   24 ar
    43   23   41 1
@<TRIPOS>MOLECULE
ZINC06347223
   33    35     0     0     0
SMALL
USER_CHARGES

@<TRIPOS>ATOM
      1 C1         -0.0167    1.3789    0.0096 C.ar      1 <0>        -0.0775
      2 C2          1.1942    2.0586    0.0017 C.ar      1 <0>        -0.1695
      3 C3          2.3748    1.3407   -0.0134 C.ar      1 <0>         0.1041
      4 N1          2.3655    0.0227   -0.0204 N.ar      1 <0>        -0.4765
      5 C4          1.2301   -0.6649   -0.0133 C.ar      1 <0>         0.1884
      6 C5          0.0021   -0.0041    0.0020 C.ar      1 <0>        -0.1378
      7 C6          1.2677   -2.1460   -0.0216 C.2       1 <0>         0.1042
      8 C7          2.4656   -2.8066   -0.0314 C.2       1 <0>        -0.1828
      9 S1          1.9071   -4.5052   -0.0379 S.3       1 <0>         0.1306
     10 C8          0.1527   -4.1636   -0.0269 C.2       1 <0>         0.3052
     11 N2          0.1413   -2.8441   -0.0141 N.2       1 <0>        -0.5208
     12 N3         -0.9149   -5.0511   -0.0267 N.am      1 <0>        -0.6015
     13 C9         -0.6870   -6.3795   -0.0351 C.2       1 <0>         0.5620
     14 O1          0.4534   -6.8004   -0.0430 O.2       1 <0>        -0.4783
     15 C10        -1.8235   -7.3243   -0.0349 C.ar      1 <0>        -0.0850
     16 C11        -3.1343   -6.8442   -0.0317 C.ar      1 <0>        -0.0826
     17 C12        -4.1906   -7.7316   -0.0314 C.ar      1 <0>        -0.0582
     18 C13        -3.9530   -9.0947   -0.0338 C.ar      1 <0>        -0.0195
     19 C14        -2.6562   -9.5772   -0.0366 C.ar      1 <0>        -0.0579
     20 C15        -1.5909   -8.7008   -0.0436 C.ar      1 <0>        -0.0496
     21 N4         -5.0912  -10.0409   -0.0331 N.pl3     1 <0>         0.0256
     22 O2         -6.2254   -9.6222   -0.0303 O.2       1 <0>        -0.1456
     23 O3         -4.8867  -11.2325   -0.0352 O.3       1 <0>        -0.1444
     24 H1         -0.9523    1.9182    0.0259 H         1 <0>         0.1378
     25 H2          1.2130    3.1384    0.0070 H         1 <0>         0.1379
     26 H3          3.3180    1.8667   -0.0200 H         1 <0>         0.1614
     27 H4         -0.9212   -0.5643    0.0082 H         1 <0>         0.1430
     28 H5          3.4707   -2.4115   -0.0344 H         1 <0>         0.2087
     29 H6         -1.8249   -4.7152   -0.0205 H         1 <0>         0.4271
     30 H7         -3.3211   -5.7805   -0.0291 H         1 <0>         0.1529
     31 H8         -5.2052   -7.3615   -0.0289 H         1 <0>         0.1656
     32 H9         -2.4777  -10.6423   -0.0381 H         1 <0>         0.1669
     33 H10        -0.5792   -9.0787   -0.0506 H         1 <0>         0.1664
@<TRIPOS>BOND
     1    1    6 ar
     2    1    2 ar
     3    1   24 1
     4    2    3 ar
     5    2   25 1
     6    3    4 ar
     7    3   26 1
     8    4    5 ar
     9    5    6 ar
    10    5    7 1
    11    6   27 1
    12    7   11 1
    13    7    8 2
    14    8    9 1
    15    8   28 1
    16    9   10 1
    17   10   11 2
    18   10   12 1
    19   12   13 am
    20   12   29 1
    21   13   14 2
    22   13   15 1
    23   15   20 ar
    24   15   16 ar
    25   16   17 ar
    26   16   30 1
    27   17   18 ar
    28   17   31 1
    29   18   19 ar
    30   18   21 1
    31   19   20 ar
    32   19   32 1
    33   20   33 1
    34   21   22 2
    35   21   23 1
@<TRIPOS>MOLECULE
ZINC12476360
   34    36     0     0     0
SMALL
USER_CHARGES

@<TRIPOS>ATOM
      1 C1         -0.0167    1.3789    0.0096 C.ar      1 <0>        -0.0779
      2 C2          1.1942    2.0586    0.0017 C.ar      1 <0>        -0.1712
      3 C3          2.3748    1.3407   -0.0134 C.ar      1 <0>         0.1033
      4 N1          2.3655    0.0226   -0.0208 N.ar      1 <0>        -0.4769
      5 C4          1.2301   -0.6649   -0.0137 C.ar      1 <0>         0.1904
      6 C5          0.0021   -0.0041    0.0020 C.ar      1 <0>        -0.1382
      7 C6          1.2677   -2.1460   -0.0230 C.2       1 <0>         0.1042
      8 C7          2.4656   -2.8066   -0.0337 C.2       1 <0>        -0.1902
      9 S1          1.9069   -4.5052   -0.0411 S.3       1 <0>         0.1203
     10 C8          0.1525   -4.1634   -0.0293 C.2       1 <0>         0.3136
     11 N2          0.1413   -2.8441   -0.0155 N.2       1 <0>        -0.5285
     12 N3         -0.9160   -5.0515   -0.0288 N.am      1 <0>        -0.6087
     13 C9         -0.6882   -6.3799   -0.0377 C.2       1 <0>         0.5211
     14 O1          0.4495   -6.7999   -0.0462 O.2       1 <0>        -0.4927
     15 C10        -1.8471   -7.3431   -0.0372 C.3       1 <0>        -0.1040
     16 C11        -2.6697   -7.1795    1.2576 C.3       1 <0>        -0.1202
     17 C12        -3.1023   -8.6225    1.6176 C.3       1 <0>        -0.1238
     18 C13        -1.8539   -9.4579    1.2400 C.3       1 <0>        -0.1260
     19 C14        -1.3284   -8.7918   -0.0484 C.3       1 <0>        -0.1205
     20 H1         -0.9523    1.9182    0.0259 H         1 <0>         0.1372
     21 H2          1.2130    3.1384    0.0070 H         1 <0>         0.1373
     22 H3          3.3180    1.8667   -0.0196 H         1 <0>         0.1607
     23 H4         -0.9212   -0.5643    0.0082 H         1 <0>         0.1430
     24 H5          3.4707   -2.4115   -0.0372 H         1 <0>         0.2062
     25 H6         -1.8259   -4.7155   -0.0221 H         1 <0>         0.4274
     26 H7         -2.4796   -7.1663   -0.9071 H         1 <0>         0.1106
     27 H8         -2.0527   -6.7572    2.0507 H         1 <0>         0.0726
     28 H9         -3.5433   -6.5529    1.0779 H         1 <0>         0.0791
     29 H10        -3.3160   -8.7072    2.6831 H         1 <0>         0.0726
     30 H11        -3.9646   -8.9267    1.0242 H         1 <0>         0.0731
     31 H12        -1.1052   -9.4035    2.0303 H         1 <0>         0.0684
     32 H13        -2.1322  -10.4941    1.0476 H         1 <0>         0.0714
     33 H14        -1.7099   -9.3183   -0.9232 H         1 <0>         0.0747
     34 H15        -0.2385   -8.7981   -0.0542 H         1 <0>         0.0918
@<TRIPOS>BOND
     1    1    6 ar
     2    1    2 ar
     3    1   20 1
     4    2    3 ar
     5    2   21 1
     6    3    4 ar
     7    3   22 1
     8    4    5 ar
     9    5    6 ar
    10    5    7 1
    11    6   23 1
    12    7   11 1
    13    7    8 2
    14    8    9 1
    15    8   24 1
    16    9   10 1
    17   10   11 2
    18   10   12 1
    19   12   13 am
    20   12   25 1
    21   13   14 2
    22   13   15 1
    23   15   19 1
    24   15   16 1
    25   15   26 1
    26   16   17 1
    27   16   27 1
    28   16   28 1
    29   17   18 1
    30   17   29 1
    31   17   30 1
    32   18   19 1
    33   18   31 1
    34   18   32 1
    35   19   33 1
    36   19   34 1
@<TRIPOS>MOLECULE
ZINC06347226
   31    33     0     0     0
SMALL
USER_CHARGES
3-chloro-N-[4-(2-pyridyl)thiazol-2-yl]benzamide
@<TRIPOS>ATOM
      1 C1         -0.0168    1.3844    0.0097 C.ar      1 <0>        -0.0777
      2 C2          0.0021   -0.0041    0.0020 C.ar      1 <0>        -0.1707
      3 C3          1.2151   -0.6658   -0.0131 C.ar      1 <0>         0.1035
      4 N1          2.3509    0.0030   -0.0208 N.ar      1 <0>        -0.4767
      5 C4          2.3767    1.3300   -0.0139 C.ar      1 <0>         0.1900
      6 C5          1.1893    2.0614    0.0018 C.ar      1 <0>        -0.1380
      7 C6          3.6771    2.0400   -0.0235 C.2       1 <0>         0.1043
      8 C7          4.8492    1.3346   -0.0343 C.2       1 <0>        -0.1873
      9 S1          6.0390    2.6694   -0.0449 S.3       1 <0>         0.1270
     10 C8          4.8640    4.0161   -0.0247 C.2       1 <0>         0.3118
     11 N2          3.7165    3.3646   -0.0163 N.2       1 <0>        -0.5251
     12 N3          5.0969    5.3848   -0.0197 N.am      1 <0>        -0.6051
     13 C9          6.3605    5.8534   -0.0303 C.2       1 <0>         0.5671
     14 O1          7.2963    5.0777   -0.0442 O.2       1 <0>        -0.4875
     15 C10         6.6084    7.3105   -0.0249 C.ar      1 <0>        -0.1237
     16 C11         7.9162    7.7991   -0.0358 C.ar      1 <0>        -0.0460
     17 C12         8.1414    9.1600   -0.0312 C.ar      1 <0>        -0.1099
     18 C13         7.0746   10.0411   -0.0163 C.ar      1 <0>        -0.0748
     19 C14         5.7750    9.5638   -0.0059 C.ar      1 <0>        -0.0425
     20 C15         5.5361    8.2037   -0.0148 C.ar      1 <0>        -0.0758
     21 Cl1         4.4432   10.6773    0.0117 Cl        1 <0>        -0.0535
     22 H1         -0.9524    1.9237    0.0171 H         1 <0>         0.1373
     23 H2         -0.9228   -0.5617    0.0082 H         1 <0>         0.1373
     24 H3          1.2327   -1.7456   -0.0191 H         1 <0>         0.1609
     25 H4          1.2113    3.1412    0.0070 H         1 <0>         0.1432
     26 H5          5.0112    0.2668   -0.0371 H         1 <0>         0.2074
     27 H6          4.3501    6.0038   -0.0086 H         1 <0>         0.4263
     28 H7          8.7501    7.1129   -0.0482 H         1 <0>         0.1488
     29 H8          9.1527    9.5387   -0.0397 H         1 <0>         0.1468
     30 H9          7.2565   11.1056   -0.0131 H         1 <0>         0.1440
     31 H10         4.5220    7.8321   -0.0104 H         1 <0>         0.1385
@<TRIPOS>BOND
     1    1    6 ar
     2    1    2 ar
     3    1   22 1
     4    2    3 ar
     5    2   23 1
     6    3    4 ar
     7    3   24 1
     8    4    5 ar
     9    5    6 ar
    10    5    7 1
    11    6   25 1
    12    7   11 1
    13    7    8 2
    14    8    9 1
    15    8   26 1
    16    9   10 1
    17   10   11 2
    18   10   12 1
    19   12   13 am
    20   12   27 1
    21   13   14 2
    22   13   15 1
    23   15   20 ar
    24   15   16 ar
    25   16   17 ar
    26   16   28 1
    27   17   18 ar
    28   17   29 1
    29   18   19 ar
    30   18   30 1
    31   19   20 ar
    32   19   21 1
    33   20   31 1
@<TRIPOS>MOLECULE
ZINC06346108
   31    33     0     0     0
SMALL
USER_CHARGES
N-[4-(2-pyridyl)thiazol-2-yl]benzamide
@<TRIPOS>ATOM
      1 C1         -0.0167    1.3794    0.0096 C.ar      1 <0>        -0.0834
      2 C2          1.1683    2.0936    0.0021 C.ar      1 <0>        -0.1248
      3 C3          2.3774    1.4296   -0.0130 C.ar      1 <0>        -0.0829
      4 C4          2.4035    0.0338   -0.0213 C.ar      1 <0>        -0.1383
      5 C5          1.2042   -0.6806   -0.0136 C.ar      1 <0>        -0.0505
      6 C6          0.0021   -0.0041    0.0020 C.ar      1 <0>        -0.1254
      7 C7          3.6952   -0.6843   -0.0385 C.2       1 <0>         0.5647
      8 O1          3.7148   -1.8997   -0.0460 O.2       1 <0>        -0.4923
      9 N1          4.8513    0.0084   -0.0458 N.am      1 <0>        -0.6058
     10 C8          6.0646   -0.6662   -0.0620 C.2       1 <0>         0.3139
     11 N2          7.2908   -0.1785   -0.0713 N.2       1 <0>        -0.5273
     12 C9          8.3487   -0.9765   -0.0867 C.2       1 <0>         0.1042
     13 C10         8.1657   -2.3322   -0.0930 C.2       1 <0>        -0.1892
     14 S1          6.3802   -2.4255   -0.0679 S.3       1 <0>         0.1253
     15 C11         9.7161   -0.4060   -0.0964 C.ar      1 <0>         0.1905
     16 C12         9.8884    0.9779   -0.0898 C.ar      1 <0>        -0.1382
     17 C13        11.1711    1.4953   -0.0986 C.ar      1 <0>        -0.0778
     18 C14        12.2424    0.6120   -0.1137 C.ar      1 <0>        -0.1711
     19 C15        11.9997   -0.7484   -0.1194 C.ar      1 <0>         0.1035
     20 N3         10.7675   -1.2162   -0.1058 N.ar      1 <0>        -0.4768
     21 H1         -0.9606    1.9042    0.0169 H         1 <0>         0.1322
     22 H2          1.1467    3.1734    0.0078 H         1 <0>         0.1341
     23 H3          3.3017    1.9882   -0.0193 H         1 <0>         0.1278
     24 H4          1.2175   -1.7605   -0.0202 H         1 <0>         0.1409
     25 H5         -0.9265   -0.5555    0.0080 H         1 <0>         0.1355
     26 H6          4.8356    0.9783   -0.0398 H         1 <0>         0.4260
     27 H7          8.8973   -3.1265   -0.1046 H         1 <0>         0.2068
     28 H8          9.0324    1.6363   -0.0784 H         1 <0>         0.1431
     29 H9         11.3358    2.5626   -0.0942 H         1 <0>         0.1372
     30 H10        13.2560    0.9847   -0.1211 H         1 <0>         0.1372
     31 H11        12.8310   -1.4377   -0.1312 H         1 <0>         0.1608
@<TRIPOS>BOND
     1    1    6 ar
     2    1    2 ar
     3    1   21 1
     4    2    3 ar
     5    2   22 1
     6    3    4 ar
     7    3   23 1
     8    4    5 ar
     9    4    7 1
    10    5    6 ar
    11    5   24 1
    12    6   25 1
    13    7    8 2
    14    7    9 am
    15    9   10 1
    16    9   26 1
    17   10   14 1
    18   10   11 2
    19   11   12 1
    20   12   13 2
    21   12   15 1
    22   13   14 1
    23   13   27 1
    24   15   20 ar
    25   15   16 ar
    26   16   17 ar
    27   16   28 1
    28   17   18 ar
    29   17   29 1
    30   18   19 ar
    31   18   30 1
    32   19   20 ar
    33   19   31 1
@<TRIPOS>MOLECULE
ZINC13862048
   37    39     0     0     0
SMALL
USER_CHARGES

@<TRIPOS>ATOM
      1 C1         -0.0167    1.3790    0.0096 C.ar      1 <0>        -0.0990
      2 C2          1.1686    2.0920    0.0021 C.ar      1 <0>        -0.1261
      3 C3          2.3774    1.4260   -0.0134 C.ar      1 <0>        -0.0758
      4 C4          2.4022    0.0328   -0.0211 C.ar      1 <0>        -0.0303
      5 C5          1.2051   -0.6804   -0.0130 C.ar      1 <0>        -0.0717
      6 C6          0.0021   -0.0041    0.0020 C.ar      1 <0>        -0.1280
      7 C7          3.6986   -0.6887   -0.0383 C.2       1 <0>         0.3203
      8 N1          3.7439   -2.0095   -0.0508 N.2       1 <0>        -0.5547
      9 C8          4.9334   -2.5821   -0.0662 C.2       1 <0>         0.2543
     10 S1          5.9774   -1.2657   -0.0630 S.3       1 <0>         0.3751
     11 N2          4.8416   -0.0331   -0.0470 N.2       1 <0>        -0.4989
     12 N3          5.2441   -3.9345   -0.0810 N.am      1 <0>        -0.6074
     13 C9          6.5325   -4.3299   -0.0957 C.2       1 <0>         0.5178
     14 O1          7.4203   -3.5038   -0.0960 O.2       1 <0>        -0.4890
     15 C10         6.8698   -5.7986   -0.1117 C.3       1 <0>        -0.0949
     16 C11         6.2919   -6.4682    1.1367 C.3       1 <0>        -0.1159
     17 C12         6.6344   -7.9593    1.1204 C.3       1 <0>        -0.1177
     18 C13         8.1544   -8.1333    1.1057 C.3       1 <0>        -0.1251
     19 C14         8.7323   -7.4637   -0.1427 C.3       1 <0>        -0.1202
     20 C15         8.3898   -5.9726   -0.1264 C.3       1 <0>        -0.1028
     21 H1         -0.9603    1.9042    0.0260 H         1 <0>         0.1270
     22 H2          1.1482    3.1718    0.0081 H         1 <0>         0.1298
     23 H3          3.3023    1.9837   -0.0199 H         1 <0>         0.1339
     24 H4          1.2186   -1.7603   -0.0192 H         1 <0>         0.1349
     25 H5         -0.9264   -0.5557    0.0079 H         1 <0>         0.1290
     26 H6          4.5340   -4.5953   -0.0807 H         1 <0>         0.4279
     27 H7          6.4427   -6.2598   -1.0022 H         1 <0>         0.1106
     28 H8          6.7190   -6.0070    2.0271 H         1 <0>         0.0737
     29 H9          5.2090   -6.3443    1.1472 H         1 <0>         0.0692
     30 H10         6.2227   -8.4364    2.0098 H         1 <0>         0.0702
     31 H11         6.2073   -8.4206    0.2300 H         1 <0>         0.0674
     32 H12         8.5815   -7.6721    1.9962 H         1 <0>         0.0647
     33 H13         8.3984   -9.1956    1.0941 H         1 <0>         0.0664
     34 H14         9.8152   -7.5876   -0.1531 H         1 <0>         0.0704
     35 H15         8.3052   -7.9249   -1.0331 H         1 <0>         0.0651
     36 H16         8.8016   -5.4955   -1.0158 H         1 <0>         0.0747
     37 H17         8.8170   -5.5113    0.7641 H         1 <0>         0.0750
@<TRIPOS>BOND
     1    1    6 ar
     2    1    2 ar
     3    1   21 1
     4    2    3 ar
     5    2   22 1
     6    3    4 ar
     7    3   23 1
     8    4    5 ar
     9    4    7 1
    10    5    6 ar
    11    5   24 1
    12    6   25 1
    13    7   11 2
    14    7    8 1
    15    8    9 2
    16    9   10 1
    17    9   12 1
    18   10   11 1
    19   12   13 am
    20   12   26 1
    21   13   14 2
    22   13   15 1
    23   15   20 1
    24   15   16 1
    25   15   27 1
    26   16   17 1
    27   16   28 1
    28   16   29 1
    29   17   18 1
    30   17   30 1
    31   17   31 1
    32   18   19 1
    33   18   32 1
    34   18   33 1
    35   19   20 1
    36   19   34 1
    37   19   35 1
    38   20   36 1
    39   20   37 1
@<TRIPOS>MOLECULE
ZINC02889426
   31    33     0     0     0
SMALL
USER_CHARGES

@<TRIPOS>ATOM
      1 C1         -0.0167    1.3790    0.0096 C.ar      1 <0>        -0.0985
      2 C2          1.1686    2.0920    0.0021 C.ar      1 <0>        -0.1260
      3 C3          2.3774    1.4261   -0.0130 C.ar      1 <0>        -0.0754
      4 C4          2.4023    0.0328   -0.0207 C.ar      1 <0>        -0.0310
      5 C5          1.2051   -0.6804   -0.0131 C.ar      1 <0>        -0.0715
      6 C6          0.0021   -0.0041    0.0020 C.ar      1 <0>        -0.1279
      7 C7          3.6986   -0.6887   -0.0375 C.2       1 <0>         0.3212
      8 N1          3.7439   -2.0095   -0.0502 N.2       1 <0>        -0.5524
      9 C8          4.9336   -2.5821   -0.0652 C.2       1 <0>         0.2536
     10 S1          5.9775   -1.2656   -0.0614 S.3       1 <0>         0.3819
     11 N2          4.8416   -0.0331   -0.0458 N.2       1 <0>        -0.4967
     12 N3          5.2442   -3.9335   -0.0799 N.am      1 <0>        -0.6034
     13 C9          6.5326   -4.3287   -0.0941 C.2       1 <0>         0.5653
     14 O1          7.4225   -3.5006   -0.0941 O.2       1 <0>        -0.4854
     15 C10         6.8635   -5.7685   -0.1098 C.ar      1 <0>        -0.1356
     16 C11         5.8434   -6.7221   -0.1157 C.ar      1 <0>        -0.0682
     17 C12         6.1585   -8.0644   -0.1308 C.ar      1 <0>        -0.1153
     18 C13         7.4837   -8.4676   -0.1401 C.ar      1 <0>        -0.0019
     19 C14         8.4999   -7.5263   -0.1343 C.ar      1 <0>        -0.1158
     20 C15         8.1974   -6.1811   -0.1246 C.ar      1 <0>        -0.0349
     21 Cl1         7.8725  -10.1594   -0.1586 Cl        1 <0>        -0.0505
     22 H1         -0.9603    1.9042    0.0260 H         1 <0>         0.1271
     23 H2          1.1482    3.1718    0.0078 H         1 <0>         0.1299
     24 H3          3.3023    1.9837   -0.0192 H         1 <0>         0.1342
     25 H4          1.2186   -1.7603   -0.0194 H         1 <0>         0.1350
     26 H5         -0.9264   -0.5557    0.0079 H         1 <0>         0.1292
     27 H6          4.5341   -4.5943   -0.0799 H         1 <0>         0.4272
     28 H7          4.8099   -6.4090   -0.1081 H         1 <0>         0.1384
     29 H8          5.3705   -8.8029   -0.1351 H         1 <0>         0.1466
     30 H9          9.5313   -7.8467   -0.1413 H         1 <0>         0.1480
     31 H10         8.9906   -5.4481   -0.1246 H         1 <0>         0.1528
@<TRIPOS>BOND
     1    1    6 ar
     2    1    2 ar
     3    1   22 1
     4    2    3 ar
     5    2   23 1
     6    3    4 ar
     7    3   24 1
     8    4    5 ar
     9    4    7 1
    10    5    6 ar
    11    5   25 1
    12    6   26 1
    13    7   11 2
    14    7    8 1
    15    8    9 2
    16    9   10 1
    17    9   12 1
    18   10   11 1
    19   12   13 am
    20   12   27 1
    21   13   14 2
    22   13   15 1
    23   15   20 ar
    24   15   16 ar
    25   16   17 ar
    26   16   28 1
    27   17   18 ar
    28   17   29 1
    29   18   19 ar
    30   18   21 1
    31   19   20 ar
    32   19   30 1
    33   20   31 1
@<TRIPOS>MOLECULE
ZINC02889428
   31    33     0     0     0
SMALL
USER_CHARGES
N-(3-phenyl-1,2,4-thiadiazol-5-yl)benzamide
@<TRIPOS>ATOM
      1 C1          0.0021   -0.0041    0.0020 C.ar      1 <0>        -0.0982
      2 C2         -0.0167    1.3790    0.0096 C.ar      1 <0>        -0.1284
      3 C3          1.1675    2.0878    0.0021 C.ar      1 <0>        -0.0705
      4 C4          2.3836    1.4075   -0.0132 C.ar      1 <0>        -0.0340
      5 C5          2.3965    0.0141   -0.0208 C.ar      1 <0>        -0.0752
      6 C6          1.2063   -0.6845   -0.0132 C.ar      1 <0>        -0.1263
      7 C7          3.6599    2.1640   -0.0214 C.2       1 <0>         0.3257
      8 N1          3.6517    3.4832   -0.0142 N.2       1 <0>        -0.5554
      9 C8          4.8088    4.1255   -0.0219 C.2       1 <0>         0.3099
     10 S1          5.9410    2.8112   -0.0399 S.3       1 <0>         0.2878
     11 N2          4.8132    1.5235   -0.0304 N.2       1 <0>        -0.4695
     12 N3          5.0522    5.4906   -0.0176 N.am      1 <0>        -0.6025
     13 C9          6.3196    5.9491   -0.0272 C.2       1 <0>         0.5648
     14 O1          7.2491    5.1660   -0.0397 O.2       1 <0>        -0.4859
     15 C10         6.5791    7.4041   -0.0226 C.ar      1 <0>        -0.1401
     16 C11         5.5137    8.3062   -0.0141 C.ar      1 <0>        -0.0818
     17 C12         5.7630    9.6630   -0.0030 C.ar      1 <0>        -0.1244
     18 C13         7.0653   10.1303   -0.0134 C.ar      1 <0>        -0.0810
     19 C14         8.1257    9.2417   -0.0281 C.ar      1 <0>        -0.1250
     20 C15         7.8906    7.8824   -0.0325 C.ar      1 <0>        -0.0487
     21 H1         -0.9270   -0.5547    0.0083 H         1 <0>         0.1270
     22 H2         -0.9598    1.9053    0.0170 H         1 <0>         0.1292
     23 H3          1.1517    3.1677    0.0078 H         1 <0>         0.1355
     24 H4          3.3362   -0.5182   -0.0323 H         1 <0>         0.1340
     25 H5          1.2151   -1.7645   -0.0194 H         1 <0>         0.1299
     26 H6          4.3104    6.1155   -0.0077 H         1 <0>         0.4284
     27 H7          4.4968    7.9427   -0.0108 H         1 <0>         0.1282
     28 H8          4.9398   10.3620    0.0088 H         1 <0>         0.1351
     29 H9          7.2549   11.1935   -0.0096 H         1 <0>         0.1331
     30 H10         9.1399    9.6130   -0.0358 H         1 <0>         0.1364
     31 H11         8.7192    7.1898   -0.0440 H         1 <0>         0.1419
@<TRIPOS>BOND
     1    1    6 ar
     2    1    2 ar
     3    1   21 1
     4    2    3 ar
     5    2   22 1
     6    3    4 ar
     7    3   23 1
     8    4    5 ar
     9    4    7 1
    10    5    6 ar
    11    5   24 1
    12    6   25 1
    13    7   11 2
    14    7    8 1
    15    8    9 2
    16    9   10 1
    17    9   12 1
    18   10   11 1
    19   12   13 am
    20   12   26 1
    21   13   14 2
    22   13   15 1
    23   15   20 ar
    24   15   16 ar
    25   16   17 ar
    26   16   27 1
    27   17   18 ar
    28   17   28 1
    29   18   19 ar
    30   18   29 1
    31   19   20 ar
    32   19   30 1
    33   20   31 1
@<TRIPOS>MOLECULE
ZINC06919863
   35    37     0     0     0
SMALL
USER_CHARGES
4-methoxy-N-[4-(2-pyridyl)thiazol-2-yl]benzamide
@<TRIPOS>ATOM
      1 C1          6.1542   12.2305    0.0100 C.3       1 <0>         0.0189
      2 O1          7.3005   11.3774   -0.0065 O.3       1 <0>        -0.3094
      3 C2          7.0729   10.0395   -0.0119 C.ar      1 <0>         0.1652
      4 C3          8.1444    9.1542   -0.0279 C.ar      1 <0>        -0.1589
      5 C4          7.9177    7.7960   -0.0334 C.ar      1 <0>        -0.0094
      6 C5          6.6081    7.3081   -0.0230 C.ar      1 <0>        -0.1773
      7 C6          5.5336    8.2016   -0.0127 C.ar      1 <0>        -0.0381
      8 C7          5.7689    9.5583   -0.0010 C.ar      1 <0>        -0.2164
      9 C8          6.3606    5.8534   -0.0288 C.2       1 <0>         0.5702
     10 O2          7.2966    5.0775   -0.0427 O.2       1 <0>        -0.4993
     11 N1          5.0969    5.3849   -0.0187 N.am      1 <0>        -0.6210
     12 C9          4.8640    4.0162   -0.0242 C.2       1 <0>         0.3234
     13 N2          3.7165    3.3646   -0.0163 N.2       1 <0>        -0.5317
     14 C10         3.6771    2.0400   -0.0235 C.2       1 <0>         0.1047
     15 C11         4.8492    1.3346   -0.0342 C.2       1 <0>        -0.1925
     16 S1          6.0390    2.6693   -0.0438 S.3       1 <0>         0.1174
     17 C12         2.3767    1.3300   -0.0139 C.ar      1 <0>         0.1913
     18 C13         1.1893    2.0614    0.0018 C.ar      1 <0>        -0.1386
     19 C14        -0.0168    1.3844    0.0097 C.ar      1 <0>        -0.0781
     20 C15         0.0021   -0.0041    0.0020 C.ar      1 <0>        -0.1719
     21 C16         1.2151   -0.6658   -0.0131 C.ar      1 <0>         0.1034
     22 N3          2.3509    0.0030   -0.0208 N.ar      1 <0>        -0.4771
     23 H1          6.4793   13.2814    0.0128 H         1 <0>         0.1073
     24 H2          5.5596   12.0282    0.9131 H         1 <0>         0.0615
     25 H3          5.5414   12.0386   -0.8831 H         1 <0>         0.0614
     26 H4          9.1561    9.5321   -0.0363 H         1 <0>         0.1436
     27 H5          8.7507    7.1088   -0.0455 H         1 <0>         0.1481
     28 H6          4.5200    7.8285   -0.0095 H         1 <0>         0.1307
     29 H7          4.9391   10.2495    0.0117 H         1 <0>         0.1395
     30 H8          4.2501    6.0869   -0.0061 H         1 <0>         0.4505
     31 H9          5.0111    0.2668   -0.0374 H         1 <0>         0.2053
     32 H10         1.2113    3.1412    0.0074 H         1 <0>         0.1430
     33 H11        -0.9524    1.9237    0.0171 H         1 <0>         0.1368
     34 H12        -0.9228   -0.5617    0.0082 H         1 <0>         0.1369
     35 H13         1.2327   -1.7456   -0.0191 H         1 <0>         0.1605
@<TRIPOS>BOND
     1    1    2 1
     2    1   23 1
     3    1   24 1
     4    1   25 1
     5    2    3 1
     6    3    8 ar
     7    3    4 ar
     8    4    5 ar
     9    4   26 1
    10    5    6 ar
    11    5   27 1
    12    6    7 ar
    13    6    9 1
    14    7    8 ar
    15    7   28 1
    16    8   29 1
    17    9   10 2
    18    9   11 am
    19   11   12 1
    20   11   30 1
    21   12   16 1
    22   12   13 2
    23   13   14 1
    24   14   15 2
    25   14   17 1
    26   15   16 1
    27   15   31 1
    28   17   22 ar
    29   17   18 ar
    30   18   19 ar
    31   18   32 1
    32   19   20 ar
    33   19   33 1
    34   20   21 ar
    35   20   34 1
    36   21   22 ar
    37   21   35 1
@<TRIPOS>MOLECULE
ZINC03872013
   28    31     0     0     0
SMALL
USER_CHARGES

@<TRIPOS>ATOM
      1 C1         -0.0162    1.3433    0.0094 C.2       1 <0>        -0.2195
      2 C2          1.3252    1.7744   -0.0011 C.2       1 <0>        -0.1351
      3 C3          2.0962    0.6548   -0.0144 C.2       1 <0>         0.0399
      4 O1          1.2797   -0.4166   -0.0124 O.3       1 <0>        -0.1525
      5 C4          0.0021   -0.0041    0.0020 C.2       1 <0>        -0.0023
      6 C5          3.5737    0.6193   -0.0292 C.2       1 <0>         0.3445
      7 N1          4.3226   -0.4905   -0.0476 N.2       1 <0>        -0.5018
      8 C6          5.5962   -0.1641   -0.0567 C.2       1 <0>         0.3614
      9 C7          6.8502   -0.9263   -0.0770 C.ar      1 <0>        -0.1117
     10 C8          6.8690   -2.3192   -0.0918 C.ar      1 <0>        -0.0298
     11 C9          8.0788   -2.9807   -0.1111 C.ar      1 <0>        -0.0604
     12 C10         9.2722   -2.2687   -0.1153 C.ar      1 <0>        -0.0566
     13 C11         9.2751   -0.9026   -0.1006 C.ar      1 <0>        -0.1000
     14 C12         8.0651   -0.2038   -0.0819 C.ar      1 <0>         0.1923
     15 N2          8.0311    1.1508   -0.0678 N.2       1 <0>        -0.5514
     16 C13         6.9051    1.8155   -0.0498 C.2       1 <0>         0.6594
     17 N3          5.6826    1.2027   -0.0438 N.pl3     1 <0>        -0.3685
     18 N4          4.3637    1.6764   -0.0320 N.2       1 <0>        -0.2877
     19 N5          6.9524    3.1898   -0.0360 N.pl3     1 <0>        -0.8086
     20 Cl1         8.1113   -4.7163   -0.1296 Cl        1 <0>        -0.0542
     21 H1         -0.8931    1.9736    0.0252 H         1 <0>         0.1603
     22 H2          1.6736    2.7966    0.0008 H         1 <0>         0.1603
     23 H3         -0.8667   -0.6456    0.0074 H         1 <0>         0.2151
     24 H4          5.9438   -2.8764   -0.0879 H         1 <0>         0.1517
     25 H5         10.2107   -2.8029   -0.1301 H         1 <0>         0.1482
     26 H6         10.2110   -0.3636   -0.1038 H         1 <0>         0.1535
     27 H7          7.8086    3.6457   -0.0396 H         1 <0>         0.4305
     28 H8          6.1295    3.7032   -0.0225 H         1 <0>         0.4230
@<TRIPOS>BOND
     1    1    5 2
     2    1    2 1
     3    1   21 1
     4    2    3 2
     5    2   22 1
     6    3    4 1
     7    3    6 1
     8    4    5 1
     9    5   23 1
    10    6   18 2
    11    6    7 1
    12    7    8 2
    13    8   17 1
    14    8    9 1
    15    9   14 ar
    16    9   10 ar
    17   10   11 ar
    18   10   24 1
    19   11   12 ar
    20   11   20 1
    21   12   13 ar
    22   12   25 1
    23   13   14 ar
    24   13   26 1
    25   14   15 1
    26   15   16 2
    27   16   17 1
    28   16   19 1
    29   17   18 1
    30   19   27 1
    31   19   28 1
@<TRIPOS>MOLECULE
ZINC00057676
   28    30     0     0     0
SMALL
USER_CHARGES

@<TRIPOS>ATOM
      1 C1         -0.0167    1.3795    0.0096 C.ar      1 <0>        -0.0930
      2 C2          1.1683    2.0940    0.0021 C.ar      1 <0>        -0.1232
      3 C3          2.3774    1.4304   -0.0130 C.ar      1 <0>        -0.0793
      4 C4          2.4038    0.0341   -0.0208 C.ar      1 <0>        -0.0750
      5 C5          1.2040   -0.6806   -0.0131 C.ar      1 <0>        -0.0802
      6 C6          0.0021   -0.0041    0.0020 C.ar      1 <0>        -0.1208
      7 C7          3.6945   -0.6833   -0.0374 C.2       1 <0>         0.2085
      8 C8          3.6864   -2.0427   -0.0502 C.2       1 <0>        -0.3146
      9 C9          4.9142   -2.7473   -0.0663 C.2       1 <0>         0.4212
     10 O1          4.9455   -3.9669   -0.0785 O.2       1 <0>        -0.4549
     11 C10         6.1533   -1.9489   -0.0683 C.ar      1 <0>        -0.2563
     12 C11         7.4125   -2.5590   -0.0842 C.ar      1 <0>         0.1995
     13 C12         8.5505   -1.7700   -0.0860 C.ar      1 <0>        -0.1780
     14 C13         8.4415   -0.3896   -0.0716 C.ar      1 <0>        -0.0390
     15 C14         7.2039    0.2210   -0.0559 C.ar      1 <0>        -0.1519
     16 C15         6.0482   -0.5488   -0.0543 C.ar      1 <0>         0.1630
     17 O2          4.8300    0.0319   -0.0449 O.3       1 <0>        -0.2195
     18 O3          7.5175   -3.9119   -0.0974 O.3       1 <0>        -0.4761
     19 H1         -0.9606    1.9042    0.0260 H         1 <0>         0.1308
     20 H2          1.1464    3.1738    0.0078 H         1 <0>         0.1325
     21 H3          3.3016    1.9893   -0.0192 H         1 <0>         0.1350
     22 H4          1.2172   -1.7605   -0.0194 H         1 <0>         0.1359
     23 H5         -0.9265   -0.5555    0.0079 H         1 <0>         0.1345
     24 H6          2.7502   -2.5812   -0.0477 H         1 <0>         0.1625
     25 H7          9.5263   -2.2328   -0.0982 H         1 <0>         0.1434
     26 H8          9.3355    0.2164   -0.0724 H         1 <0>         0.1472
     27 H9          7.1342    1.2987   -0.0448 H         1 <0>         0.1469
     28 H10         7.5407   -4.2960   -0.9845 H         1 <0>         0.4010
@<TRIPOS>BOND
     1    1    6 ar
     2    1    2 ar
     3    1   19 1
     4    2    3 ar
     5    2   20 1
     6    3    4 ar
     7    3   21 1
     8    4    5 ar
     9    4    7 1
    10    5    6 ar
    11    5   22 1
    12    6   23 1
    13    7   17 1
    14    7    8 2
    15    8    9 1
    16    8   24 1
    17    9   10 2
    18    9   11 1
    19   11   16 ar
    20   11   12 ar
    21   12   13 ar
    22   12   18 1
    23   13   14 ar
    24   13   25 1
    25   14   15 ar
    26   14   26 1
    27   15   16 ar
    28   15   27 1
    29   16   17 1
    30   18   28 1
@<TRIPOS>MOLECULE
ZINC00006170
   41    45     0     0     0
SMALL
USER_CHARGES

@<TRIPOS>ATOM
      1 C1         -0.0167    1.3781    0.0096 C.ar      1 <0>        -0.1193
      2 C2          1.1709    2.0855    0.0021 C.ar      1 <0>        -0.1177
      3 C3          2.3773    1.4107   -0.0130 C.ar      1 <0>        -0.1123
      4 C4          2.3960    0.0285   -0.0201 C.ar      1 <0>        -0.0863
      5 C5          1.2084   -0.6789   -0.0117 C.ar      1 <0>        -0.1124
      6 C6          0.0021   -0.0041    0.0020 C.ar      1 <0>        -0.1183
      7 C7          3.7112   -0.7071   -0.0376 C.3       1 <0>        -0.0949
      8 C8          4.1714   -0.9633    1.3989 C.3       1 <0>         0.1442
      9 N1          5.4498   -1.6784    1.3820 N.pl3     1 <0>        -0.3547
     10 C9          5.6077   -3.0319    1.3681 C.2       1 <0>         0.3701
     11 C10         6.9900   -3.2725    1.3542 C.2       1 <0>        -0.2670
     12 C11         7.6325   -2.0214    1.3604 C.2       1 <0>         0.1312
     13 N2          6.7200   -1.0888    1.3711 N.2       1 <0>        -0.2630
     14 C12         7.4452   -4.6631    1.3378 C.2       1 <0>         0.4065
     15 N3          8.6257   -5.2466    1.3226 N.2       1 <0>        -0.5161
     16 C13         8.4699   -6.5766    1.3120 C.2       1 <0>         0.3506
     17 N4          7.1818   -6.8637    1.3203 N.2       1 <0>        -0.2997
     18 N5          6.4899   -5.6460    1.3371 N.pl3     1 <0>        -0.3763
     19 C14         5.1670   -5.3111    1.3510 C.2       1 <0>         0.6919
     20 N6          4.7561   -4.0669    1.3656 N.2       1 <0>        -0.5613
     21 N7          4.2296   -6.3175    1.3499 N.pl3     1 <0>        -0.8022
     22 C15         9.5672   -7.5665    1.2938 C.2       1 <0>         0.0423
     23 C16         9.4221   -8.9181    1.2774 C.2       1 <0>        -0.1371
     24 C17        10.7203   -9.4655    1.2629 C.2       1 <0>        -0.2200
     25 C18        11.5847   -8.4318    1.2711 C.2       1 <0>        -0.0041
     26 O1         10.8847   -7.2861    1.2846 O.3       1 <0>        -0.1521
     27 H1         -0.9591    1.9053    0.0259 H         1 <0>         0.1226
     28 H2          1.1563    3.1654    0.0076 H         1 <0>         0.1238
     29 H3          3.3051    1.9634   -0.0196 H         1 <0>         0.1240
     30 H4          1.2231   -1.7588   -0.0176 H         1 <0>         0.1230
     31 H5         -0.9258   -0.5567    0.0082 H         1 <0>         0.1232
     32 H6          3.5884   -1.6586   -0.5549 H         1 <0>         0.0796
     33 H7          4.4573   -0.1052   -0.5563 H         1 <0>         0.0839
     34 H8          4.2941   -0.0118    1.9163 H         1 <0>         0.1036
     35 H9          3.4252   -1.5652    1.9176 H         1 <0>         0.1014
     36 H10         8.7003   -1.8600    1.3531 H         1 <0>         0.2026
     37 H11         4.5137   -7.2449    1.3395 H         1 <0>         0.4264
     38 H12         3.2844   -6.0999    1.3596 H         1 <0>         0.4303
     39 H13         8.4916   -9.4663    1.2762 H         1 <0>         0.1599
     40 H14        10.9745  -10.5151    1.2484 H         1 <0>         0.1594
     41 H15        12.6618   -8.5115    1.2638 H         1 <0>         0.2142
@<TRIPOS>BOND
     1    1    6 ar
     2    1    2 ar
     3    1   27 1
     4    2    3 ar
     5    2   28 1
     6    3    4 ar
     7    3   29 1
     8    4    5 ar
     9    4    7 1
    10    5    6 ar
    11    5   30 1
    12    6   31 1
    13    7    8 1
    14    7   32 1
    15    7   33 1
    16    8    9 1
    17    8   34 1
    18    8   35 1
    19    9   13 1
    20    9   10 1
    21   10   20 1
    22   10   11 2
    23   11   12 1
    24   11   14 1
    25   12   13 2
    26   12   36 1
    27   14   18 1
    28   14   15 2
    29   15   16 1
    30   16   17 2
    31   16   22 1
    32   17   18 1
    33   18   19 1
    34   19   20 2
    35   19   21 1
    36   21   37 1
    37   21   38 1
    38   22   26 1
    39   22   23 2
    40   23   24 1
    41   23   39 1
    42   24   25 2
    43   24   40 1
    44   25   26 1
    45   25   41 1
@<TRIPOS>MOLECULE
ZINC03814313
   34    36     0     0     0
SMALL
USER_CHARGES

@<TRIPOS>ATOM
      1 C1         -0.0168    1.3861    0.0097 C.ar      1 <0>        -0.2443
      2 C2          1.1782    2.0824    0.0020 C.ar      1 <0>         0.2226
      3 N1          2.3382    1.4569   -0.0129 N.ar      1 <0>        -0.4888
      4 C3          2.4172    0.1336   -0.0208 C.ar      1 <0>         0.2727
      5 C4          1.2518   -0.6475   -0.0134 C.ar      1 <0>        -0.0190
      6 C5          0.0021   -0.0041    0.0020 C.ar      1 <0>         0.3894
      7 N2         -1.1804   -0.7364    0.0098 N.pl3     1 <0>        -0.7887
      8 N3          1.6393   -1.9475   -0.0242 N.2       1 <0>        -0.4459
      9 C6          2.9384   -2.0127   -0.0374 C.2       1 <0>         0.3051
     10 N4          3.4679   -0.7577   -0.0360 N.pl3     1 <0>        -0.4678
     11 C7          4.8929   -0.4179   -0.0487 C.3       1 <0>         0.2942
     12 H1          5.0627    0.4803   -0.6424 H         1 <0>         0.1255
     13 C8          5.4104   -0.2158    1.3927 C.3       1 <0>         0.0729
     14 H2          4.7848   -0.7569    2.1025 H         1 <0>         0.0952
     15 C9          6.8368   -0.8092    1.3661 C.3       1 <0>         0.0502
     16 H3          6.9163   -1.6437    2.0628 H         1 <0>         0.0952
     17 C10         7.0122   -1.2997   -0.0882 C.3       1 <0>         0.0495
     18 H4          7.5089   -0.5374   -0.6884 H         1 <0>         0.1065
     19 O1          5.6677   -1.5194   -0.5705 O.3       1 <0>        -0.3359
     20 C11         7.8117   -2.6039   -0.1177 C.3       1 <0>         0.0798
     21 O2          8.0625   -2.9783   -1.4737 O.3       1 <0>        -0.5648
     22 O3          7.8032    0.1960    1.6784 O.3       1 <0>        -0.5394
     23 O4          5.4496    1.1746    1.7202 O.3       1 <0>        -0.5452
     24 H5         -0.9567    1.9179    0.0260 H         1 <0>         0.1890
     25 H6          1.1605    3.1623    0.0080 H         1 <0>         0.2169
     26 H7         -2.0350   -0.2775    0.0208 H         1 <0>         0.4265
     27 H8         -1.1505   -1.7059    0.0043 H         1 <0>         0.4297
     28 H9          3.5127   -2.9273   -0.0481 H         1 <0>         0.2433
     29 H10         8.7596   -2.4607    0.4010 H         1 <0>         0.0733
     30 H11         7.2420   -3.3905    0.3770 H         1 <0>         0.0636
     31 H12         8.5663   -3.7982   -1.5686 H         1 <0>         0.3935
     32 H13         8.7164   -0.1220    1.6760 H         1 <0>         0.3967
     33 H14         5.7674    1.3592    2.6147 H         1 <0>         0.4072
     34 H15         3.1559    1.9787   -0.0185 H         1 <0>         0.4414
@<TRIPOS>BOND
     1    1    6 ar
     2    1    2 ar
     3    1   24 1
     4    2    3 ar
     5    2   25 1
     6    3    4 ar
     7    3   34 1
     8    4   10 1
     9    4    5 ar
    10    5    6 ar
    11    5    8 1
    12    6    7 1
    13    7   26 1
    14    7   27 1
    15    8    9 2
    16    9   10 1
    17    9   28 1
    18   10   11 1
    19   11   12 1
    20   11   19 1
    21   11   13 1
    22   13   14 1
    23   13   15 1
    24   13   23 1
    25   15   16 1
    26   15   17 1
    27   15   22 1
    28   17   18 1
    29   17   19 1
    30   17   20 1
    31   20   21 1
    32   20   29 1
    33   20   30 1
    34   21   31 1
    35   22   32 1
    36   23   33 1
@<TRIPOS>MOLECULE
ZINC03814313
   33    35     0     0     0
SMALL
USER_CHARGES

@<TRIPOS>ATOM
      1 C1         -0.0168    1.3861    0.0097 C.ar      1 <0>        -0.2828
      2 C2          1.1782    2.0824    0.0020 C.ar      1 <0>         0.1858
      3 N1          2.3382    1.4569   -0.0129 N.ar      1 <0>        -0.5191
      4 C3          2.4172    0.1336   -0.0208 C.ar      1 <0>         0.2915
      5 C4          1.2518   -0.6475   -0.0134 C.ar      1 <0>        -0.0681
      6 C5          0.0021   -0.0041    0.0020 C.ar      1 <0>         0.3135
      7 N2         -1.1804   -0.7364    0.0098 N.pl3     1 <0>        -0.8493
      8 N3          1.6393   -1.9475   -0.0242 N.2       1 <0>        -0.4750
      9 C6          2.9384   -2.0127   -0.0374 C.2       1 <0>         0.2645
     10 N4          3.4679   -0.7577   -0.0360 N.pl3     1 <0>        -0.4800
     11 C7          4.8929   -0.4179   -0.0487 C.3       1 <0>         0.3160
     12 H1          5.0627    0.4803   -0.6424 H         1 <0>         0.1211
     13 C8          5.4104   -0.2158    1.3927 C.3       1 <0>         0.0798
     14 H2          4.7848   -0.7569    2.1025 H         1 <0>         0.0847
     15 C9          6.8368   -0.8092    1.3661 C.3       1 <0>         0.0468
     16 H3          6.9163   -1.6437    2.0628 H         1 <0>         0.0862
     17 C10         7.0122   -1.2997   -0.0882 C.3       1 <0>         0.0504
     18 H4          7.5089   -0.5374   -0.6884 H         1 <0>         0.0994
     19 O1          5.6677   -1.5194   -0.5705 O.3       1 <0>        -0.3480
     20 C11         7.8117   -2.6039   -0.1177 C.3       1 <0>         0.0821
     21 O2          8.0625   -2.9783   -1.4737 O.3       1 <0>        -0.5634
     22 O3          7.8032    0.1960    1.6784 O.3       1 <0>        -0.5390
     23 O4          5.4496    1.1746    1.7202 O.3       1 <0>        -0.5251
     24 H5         -0.9567    1.9179    0.0260 H         1 <0>         0.1407
     25 H6          1.1605    3.1623    0.0080 H         1 <0>         0.1653
     26 H7         -2.0350   -0.2775    0.0208 H         1 <0>         0.4044
     27 H8         -1.1505   -1.7059    0.0043 H         1 <0>         0.4091
     28 H9          3.5127   -2.9273   -0.0481 H         1 <0>         0.2186
     29 H10         8.7596   -2.4607    0.4010 H         1 <0>         0.0665
     30 H11         7.2420   -3.3905    0.3770 H         1 <0>         0.0607
     31 H12         8.5663   -3.7982   -1.5686 H         1 <0>         0.3864
     32 H13         8.7164   -0.1220    1.6760 H         1 <0>         0.3867
     33 H14         5.7674    1.3592    2.6147 H         1 <0>         0.3895
@<TRIPOS>BOND
     1    1    6 ar
     2    1    2 ar
     3    1   24 1
     4    2    3 ar
     5    2   25 1
     6    3    4 ar
     7    4   10 1
     8    4    5 ar
     9    5    6 ar
    10    5    8 1
    11    6    7 1
    12    7   26 1
    13    7   27 1
    14    8    9 2
    15    9   10 1
    16    9   28 1
    17   10   11 1
    18   11   12 1
    19   11   19 1
    20   11   13 1
    21   13   14 1
    22   13   15 1
    23   13   23 1
    24   15   16 1
    25   15   17 1
    26   15   22 1
    27   17   18 1
    28   17   19 1
    29   17   20 1
    30   20   21 1
    31   20   29 1
    32   20   30 1
    33   21   31 1
    34   22   32 1
    35   23   33 1
@<TRIPOS>MOLECULE
ZINC01545060
   31    33     0     0     0
SMALL
USER_CHARGES

@<TRIPOS>ATOM
      1 C1         -0.0164    1.3592    0.0095 C.2       1 <0>         0.2746
      2 N1          1.2005    1.8201    0.0004 N.2       1 <0>        -0.4589
      3 C2          2.0747    0.7850   -0.0135 C.ar      1 <0>        -0.1031
      4 C3          3.4758    0.6753   -0.0279 C.ar      1 <0>         0.5265
      5 N2          4.0162   -0.5385   -0.0400 N.ar      1 <0>        -0.5770
      6 C4          3.2613   -1.6237   -0.0386 C.ar      1 <0>         0.4325
      7 N3          1.9451   -1.5686   -0.0258 N.ar      1 <0>        -0.5445
      8 C5          1.3163   -0.3974   -0.0126 C.ar      1 <0>         0.3186
      9 N4          0.0021   -0.0041    0.0020 N.pl3     1 <0>        -0.4665
     10 C6         -1.1670   -0.8869    0.0084 C.3       1 <0>         0.3078
     11 H1         -0.9674   -1.7819    0.5977 H         1 <0>         0.1179
     12 C7         -1.5730   -1.2655   -1.4387 C.3       1 <0>        -0.1940
     13 C8         -3.0746   -1.6052   -1.2759 C.3       1 <0>         0.0820
     14 H2         -3.6475   -1.2144   -2.1169 H         1 <0>         0.0872
     15 C9         -3.4826   -0.8968    0.0303 C.3       1 <0>         0.0894
     16 H3         -3.8011   -1.6336    0.7677 H         1 <0>         0.1015
     17 O1         -2.3262   -0.1919    0.5162 O.3       1 <0>        -0.3559
     18 C10        -4.6204    0.0882   -0.2455 C.3       1 <0>         0.0811
     19 O2         -5.0702    0.6539    0.9873 O.3       1 <0>        -0.5634
     20 O3         -3.2582   -3.0176   -1.1605 O.3       1 <0>        -0.5535
     21 Cl1         4.0328   -3.1787   -0.0548 Cl        1 <0>         0.0371
     22 N5          4.2743    1.8056   -0.0299 N.pl3     1 <0>        -0.8085
     23 H4         -0.9091    1.9668    0.0254 H         1 <0>         0.2273
     24 H5         -1.4362   -0.4214   -2.1146 H         1 <0>         0.0963
     25 H6         -1.0130   -2.1342   -1.7851 H         1 <0>         0.1049
     26 H7         -4.2626    0.8825   -0.9006 H         1 <0>         0.0579
     27 H8         -5.4459   -0.4359   -0.7273 H         1 <0>         0.0688
     28 H9         -5.7925    1.2891    0.8882 H         1 <0>         0.3860
     29 H10        -2.9634   -3.5171   -1.9342 H         1 <0>         0.3907
     30 H11         3.8680    2.6864   -0.0214 H         1 <0>         0.4232
     31 H12         5.2402    1.7170   -0.0399 H         1 <0>         0.4143
@<TRIPOS>BOND
     1    1    9 1
     2    1    2 2
     3    1   23 1
     4    2    3 1
     5    3    8 ar
     6    3    4 ar
     7    4    5 ar
     8    4   22 1
     9    5    6 ar
    10    6    7 ar
    11    6   21 1
    12    7    8 ar
    13    8    9 1
    14    9   10 1
    15   10   11 1
    16   10   17 1
    17   10   12 1
    18   12   13 1
    19   12   24 1
    20   12   25 1
    21   13   14 1
    22   13   15 1
    23   13   20 1
    24   15   16 1
    25   15   17 1
    26   15   18 1
    27   18   19 1
    28   18   26 1
    29   18   27 1
    30   19   28 1
    31   20   29 1
    32   22   30 1
    33   22   31 1
@<TRIPOS>MOLECULE
ZINC03830565
   31    33     0     0     0
SMALL
USER_CHARGES

@<TRIPOS>ATOM
      1 C1         -0.0164    1.3592    0.0095 C.2       1 <0>         0.2770
      2 N1          1.2005    1.8201    0.0004 N.2       1 <0>        -0.4591
      3 C2          2.0747    0.7850   -0.0135 C.ar      1 <0>        -0.1026
      4 C3          3.4758    0.6753   -0.0279 C.ar      1 <0>         0.5266
      5 N2          4.0162   -0.5385   -0.0400 N.ar      1 <0>        -0.5771
      6 C4          3.2613   -1.6237   -0.0386 C.ar      1 <0>         0.4324
      7 N3          1.9451   -1.5686   -0.0258 N.ar      1 <0>        -0.5453
      8 C5          1.3163   -0.3974   -0.0126 C.ar      1 <0>         0.3179
      9 N4          0.0021   -0.0041    0.0020 N.pl3     1 <0>        -0.4656
     10 C6         -1.1670   -0.8869    0.0084 C.3       1 <0>         0.3058
     11 H1         -0.9674   -1.7819    0.5977 H         1 <0>         0.1170
     12 C7         -1.5730   -1.2655   -1.4387 C.3       1 <0>        -0.1967
     13 C8         -3.0746   -1.6052   -1.2759 C.3       1 <0>         0.0831
     14 H2         -3.2145   -2.6824   -1.1855 H         1 <0>         0.0891
     15 C9         -3.4826   -0.8968    0.0303 C.3       1 <0>         0.0904
     16 H3         -3.8011   -1.6336    0.7677 H         1 <0>         0.0986
     17 O1         -2.3262   -0.1919    0.5162 O.3       1 <0>        -0.3556
     18 C10        -4.6204    0.0882   -0.2455 C.3       1 <0>         0.0896
     19 O2         -5.0702    0.6539    0.9873 O.3       1 <0>        -0.5719
     20 O3         -3.8252   -1.0955   -2.3799 O.3       1 <0>        -0.5523
     21 Cl1         4.0328   -3.1787   -0.0548 Cl        1 <0>         0.0368
     22 N5          4.2743    1.8056   -0.0299 N.pl3     1 <0>        -0.8083
     23 H4         -0.9091    1.9668    0.0254 H         1 <0>         0.2273
     24 H5         -1.4362   -0.4214   -2.1146 H         1 <0>         0.0987
     25 H6         -1.0130   -2.1342   -1.7851 H         1 <0>         0.1025
     26 H7         -4.2626    0.8825   -0.9006 H         1 <0>         0.0598
     27 H8         -5.4459   -0.4359   -0.7273 H         1 <0>         0.0714
     28 H9         -5.7925    1.2891    0.8882 H         1 <0>         0.3842
     29 H10        -3.5682   -1.4666   -3.2351 H         1 <0>         0.3888
     30 H11         3.8680    2.6864   -0.0214 H         1 <0>         0.4233
     31 H12         5.2402    1.7170   -0.0399 H         1 <0>         0.4143
@<TRIPOS>BOND
     1    1    9 1
     2    1    2 2
     3    1   23 1
     4    2    3 1
     5    3    8 ar
     6    3    4 ar
     7    4    5 ar
     8    4   22 1
     9    5    6 ar
    10    6    7 ar
    11    6   21 1
    12    7    8 ar
    13    8    9 1
    14    9   10 1
    15   10   11 1
    16   10   17 1
    17   10   12 1
    18   12   13 1
    19   12   24 1
    20   12   25 1
    21   13   14 1
    22   13   15 1
    23   13   20 1
    24   15   16 1
    25   15   17 1
    26   15   18 1
    27   18   19 1
    28   18   26 1
    29   18   27 1
    30   19   28 1
    31   20   29 1
    32   22   30 1
    33   22   31 1
