@<TRIPOS>MOLECULE
ZINC03995401
   38    40     0     0     0
SMALL
USER_CHARGES

@<TRIPOS>ATOM
      1 C1         -0.0187    1.5258    0.0104 C.3       1 <0>        -0.1678
      2 C2          0.0021   -0.0041    0.0020 C.3       1 <0>         0.1135
      3 N1          0.6878   -0.4765   -1.2033 N.am      1 <0>        -0.7272
      4 C3          0.8268   -1.7986   -1.4250 C.2       1 <0>         0.5159
      5 O1          0.3843   -2.5972   -0.6267 O.2       1 <0>        -0.5034
      6 C4          1.5322   -2.2846   -2.6649 C.3       1 <0>         0.0319
      7 H1          2.5323   -1.8560   -2.7290 H         1 <0>         0.1223
      8 C5          0.7085   -1.9402   -3.9319 C.3       1 <0>         0.0508
      9 H2         -0.3595   -2.0480   -3.7427 H         1 <0>         0.0949
     10 C6          1.2015   -3.0074   -4.9392 C.3       1 <0>         0.0831
     11 H3          0.3680   -3.3897   -5.5285 H         1 <0>         0.0899
     12 C7          1.7901   -4.1212   -4.0517 C.3       1 <0>         0.3141
     13 H4          2.8552   -4.2328   -4.2545 H         1 <0>         0.1318
     14 O2          1.5952   -3.7270   -2.6817 O.3       1 <0>        -0.3269
     15 N2          1.0980   -5.3855   -4.3143 N.pl3     1 <0>        -0.4753
     16 C8          0.0390   -5.8854   -3.6166 C.2       1 <0>         0.2664
     17 N3         -0.3260   -7.0283   -4.1208 N.2       1 <0>        -0.4588
     18 C9          0.4732   -7.3336   -5.1712 C.ar      1 <0>        -0.1081
     19 C10         1.3931   -6.2806   -5.3114 C.ar      1 <0>         0.3101
     20 N4          2.2951   -6.3363   -6.2857 N.ar      1 <0>        -0.5540
     21 C11         2.3279   -7.3607   -7.1119 C.ar      1 <0>         0.3666
     22 N5          1.4828   -8.3713   -7.0218 N.ar      1 <0>        -0.5906
     23 C12         0.5516   -8.4074   -6.0740 C.ar      1 <0>         0.5098
     24 N6         -0.3304   -9.4704   -5.9882 N.pl3     1 <0>        -0.8164
     25 O3          2.2079   -2.4612   -5.7941 O.3       1 <0>        -0.5314
     26 O4          1.0116   -0.6227   -4.3947 O.3       1 <0>        -0.5362
     27 H5          1.0039    1.9031    0.0027 H         1 <0>         0.0645
     28 H6         -0.5459    1.8868   -0.8726 H         1 <0>         0.0637
     29 H7         -0.5289    1.8773    0.9072 H         1 <0>         0.0792
     30 H8          0.5293   -0.3651    0.8851 H         1 <0>         0.0731
     31 H9         -1.0205   -0.3814    0.0098 H         1 <0>         0.0727
     32 H10         1.0417    0.1622   -1.8418 H         1 <0>         0.3979
     33 H11        -0.4280   -5.4042   -2.7700 H         1 <0>         0.2249
     34 H12         3.0737   -7.3749   -7.8929 H         1 <0>         0.2070
     35 H13        -1.0129   -9.4799   -5.2989 H         1 <0>         0.4195
     36 H14        -0.2662  -10.2059   -6.6173 H         1 <0>         0.4114
     37 H15         1.9048   -1.7181   -6.3335 H         1 <0>         0.3970
     38 H16         0.8031    0.0753   -3.7587 H         1 <0>         0.3843
@<TRIPOS>BOND
     1    1    2 1
     2    1   27 1
     3    1   28 1
     4    1   29 1
     5    2    3 1
     6    2   30 1
     7    2   31 1
     8    3    4 am
     9    3   32 1
    10    4    5 2
    11    4    6 1
    12    6    7 1
    13    6   14 1
    14    6    8 1
    15    8    9 1
    16    8   10 1
    17    8   26 1
    18   10   11 1
    19   10   12 1
    20   10   25 1
    21   12   13 1
    22   12   14 1
    23   12   15 1
    24   15   19 1
    25   15   16 1
    26   16   17 2
    27   16   33 1
    28   17   18 1
    29   18   23 ar
    30   18   19 ar
    31   19   20 ar
    32   20   21 ar
    33   21   22 ar
    34   21   34 1
    35   22   23 ar
    36   23   24 1
    37   24   35 1
    38   24   36 1
    39   25   37 1
    40   26   38 1
@<TRIPOS>MOLECULE
ZINC04217017
   48    51     0     0     0
SMALL
USER_CHARGES

@<TRIPOS>ATOM
      1 C1         -0.0158    1.3119    0.0093 C.ar      1 <0>         0.3642
      2 N1          1.0888    2.0360    0.0026 N.ar      1 <0>        -0.5868
      3 C2          2.2875    1.4625   -0.0119 C.ar      1 <0>         0.5089
      4 C3          2.3582    0.0588   -0.0202 C.ar      1 <0>        -0.1086
      5 C4          1.1547   -0.6659   -0.0126 C.ar      1 <0>         0.3136
      6 N2          0.0021   -0.0041    0.0020 N.ar      1 <0>        -0.5514
      7 N3          1.5110   -1.9908   -0.0227 N.pl3     1 <0>        -0.4718
      8 C5          2.8729   -2.0476   -0.0358 C.2       1 <0>         0.2611
      9 N4          3.3680   -0.8441   -0.0343 N.2       1 <0>        -0.4600
     10 C6          0.5956   -3.1347   -0.0195 C.3       1 <0>         0.3142
     11 H1         -0.2832   -2.9148    0.5866 H         1 <0>         0.1228
     12 C7          0.1775   -3.4928   -1.4629 C.3       1 <0>         0.0797
     13 H2          0.9267   -3.1463   -2.1747 H         1 <0>         0.0850
     14 C8          0.1056   -5.0362   -1.4608 C.3       1 <0>         0.0473
     15 H3          0.8193   -5.4528   -2.1716 H         1 <0>         0.0869
     16 C9          0.4888   -5.4280   -0.0165 C.3       1 <0>         0.0504
     17 H4         -0.4066   -5.5617    0.5906 H         1 <0>         0.1001
     18 O1          1.2661   -4.3138    0.4763 O.3       1 <0>        -0.3470
     19 C10         1.3272   -6.7078   -0.0164 C.3       1 <0>         0.0821
     20 O2          1.5723   -7.1166    1.3308 O.3       1 <0>        -0.5634
     21 O3         -1.2191   -5.4762   -1.7672 O.3       1 <0>        -0.5387
     22 O4         -1.0998   -2.9297   -1.7685 O.3       1 <0>        -0.5252
     23 N5          3.4393    2.2295   -0.0193 N.pl3     1 <0>        -0.6901
     24 C11         3.3458    3.6915   -0.0110 C.3       1 <0>         0.1521
     25 C12         3.2018    4.1852    1.4300 C.3       1 <0>        -0.1279
     26 C13         3.1042    5.7121    1.4386 C.3       1 <0>        -0.1161
     27 C14         4.3704    6.3075    0.8197 C.3       1 <0>        -0.1232
     28 C15         4.5144    5.8139   -0.6213 C.3       1 <0>        -0.1145
     29 C16         4.6120    4.2870   -0.6300 C.3       1 <0>        -0.1286
     30 H5         -0.9693    1.8187    0.0257 H         1 <0>         0.2042
     31 H6          3.4551   -2.9572   -0.0459 H         1 <0>         0.2223
     32 H7          0.7880   -7.4954   -0.5427 H         1 <0>         0.0671
     33 H8          2.2767   -6.5201   -0.5176 H         1 <0>         0.0609
     34 H9          2.0996   -7.9235    1.4072 H         1 <0>         0.3867
     35 H10        -1.3212   -6.4377   -1.7794 H         1 <0>         0.3873
     36 H11        -1.4113   -3.1237   -2.6632 H         1 <0>         0.3905
     37 H12         4.3085    1.7992   -0.0299 H         1 <0>         0.4159
     38 H13         2.4769    4.0033   -0.5905 H         1 <0>         0.0947
     39 H14         2.2998    3.7610    1.8710 H         1 <0>         0.0687
     40 H15         4.0708    3.8734    2.0094 H         1 <0>         0.0607
     41 H16         2.2352    6.0239    0.8592 H         1 <0>         0.0660
     42 H17         3.0016    6.0638    2.4652 H         1 <0>         0.0643
     43 H18         4.3008    7.3953    0.8258 H         1 <0>         0.0642
     44 H19         5.2393    5.9957    1.3991 H         1 <0>         0.0620
     45 H20         3.6454    6.1257   -1.2008 H         1 <0>         0.0661
     46 H21         5.4164    6.2381   -1.0623 H         1 <0>         0.0672
     47 H22         5.4809    3.9752   -0.0505 H         1 <0>         0.0677
     48 H23         4.7146    3.9353   -1.6566 H         1 <0>         0.0684
@<TRIPOS>BOND
     1    1    6 ar
     2    1    2 ar
     3    1   30 1
     4    2    3 ar
     5    3    4 ar
     6    3   23 1
     7    4    9 1
     8    4    5 ar
     9    5    6 ar
    10    5    7 1
    11    7    8 1
    12    7   10 1
    13    8    9 2
    14    8   31 1
    15   10   11 1
    16   10   18 1
    17   10   12 1
    18   12   13 1
    19   12   14 1
    20   12   22 1
    21   14   15 1
    22   14   16 1
    23   14   21 1
    24   16   17 1
    25   16   18 1
    26   16   19 1
    27   19   20 1
    28   19   32 1
    29   19   33 1
    30   20   34 1
    31   21   35 1
    32   22   36 1
    33   23   24 1
    34   23   37 1
    35   24   29 1
    36   24   25 1
    37   24   38 1
    38   25   26 1
    39   25   39 1
    40   25   40 1
    41   26   27 1
    42   26   41 1
    43   26   42 1
    44   27   28 1
    45   27   43 1
    46   27   44 1
    47   28   29 1
    48   28   45 1
    49   28   46 1
    50   29   47 1
    51   29   48 1
