@<TRIPOS>MOLECULE
ZINC04475274
   62    65     0     0     0
SMALL
USER_CHARGES

@<TRIPOS>ATOM
      1 C1         -0.0642    1.5178    0.0741 C.3       1 <0>        -0.1472
      2 C2         -0.0386   -0.0119    0.0578 C.3       1 <0>        -0.1385
      3 C3          0.6856   -0.4965   -1.1998 C.3       1 <0>         0.1189
      4 N1          0.7101   -1.9612   -1.2154 N.am      1 <0>        -0.5084
      5 C4         -0.3212   -2.6643   -1.8191 C.2       1 <0>         0.3302
      6 C5         -0.2733   -4.0549   -1.8198 C.2       1 <0>        -0.1466
      7 C6          0.8186   -4.7053   -1.2088 C.2       1 <0>         0.5932
      8 O1          0.8829   -5.9217   -1.1971 O.2       1 <0>        -0.5104
      9 N2          1.7915   -3.9653   -0.6378 N.am      1 <0>        -0.5483
     10 C7          1.7366   -2.6224   -0.6484 C.2       1 <0>         0.7076
     11 O2          2.6346   -1.9885   -0.1285 O.2       1 <0>        -0.5281
     12 C8          2.9279   -4.6357   -0.0012 C.3       1 <0>         0.1136
     13 C9          4.0396   -4.8442   -1.0316 C.3       1 <0>        -0.1379
     14 C10         5.2264   -5.5443   -0.3668 C.3       1 <0>        -0.1474
     15 N3         -1.4100   -4.4856   -2.4782 N.pl3     1 <0>        -0.5161
     16 C11        -2.0969   -3.3692   -2.8483 C.2       1 <0>         0.3483
     17 N4         -1.4368   -2.2993   -2.4494 N.2       1 <0>        -0.4851
     18 H1         -1.6684   -5.4055   -2.6448 H         1 <0>         0.4364
     19 C12        -3.3788   -3.3584   -3.5816 C.ar      1 <0>        -0.0753
     20 C13        -3.9864   -4.5618   -3.9475 C.ar      1 <0>        -0.0540
     21 C14        -5.1822   -4.5474   -4.6316 C.ar      1 <0>        -0.1416
     22 C15        -5.7835   -3.3382   -4.9580 C.ar      1 <0>         0.1534
     23 C16        -5.1821   -2.1391   -4.5962 C.ar      1 <0>        -0.2112
     24 C17        -3.9897   -2.1449   -3.9062 C.ar      1 <0>        -0.0187
     25 O3         -6.9618   -3.3283   -5.6326 O.3       1 <0>        -0.2842
     26 C18        -7.5249   -2.0504   -5.9361 C.3       1 <0>         0.0401
     27 C19        -8.8214   -2.2369   -6.6814 C.2       1 <0>         0.5167
     28 O4         -9.2236   -3.3541   -6.9283 O.2       1 <0>        -0.4864
     29 N5         -9.5339   -1.1622   -7.0734 N.am      1 <0>        -0.6700
     30 C20       -10.6835   -1.3313   -7.8462 C.ar      1 <0>         0.1727
     31 C21       -11.5070   -2.4320   -7.6333 C.ar      1 <0>        -0.1229
     32 C22       -12.6419   -2.6024   -8.3942 C.ar      1 <0>        -0.0487
     33 C23       -12.9663   -1.6674   -9.3811 C.ar      1 <0>        -0.0415
     34 C24       -12.1368   -0.5624   -9.5920 C.ar      1 <0>        -0.0491
     35 C25       -11.0063   -0.3958   -8.8237 C.ar      1 <0>        -0.1431
     36 C26       -14.1455   -1.8414  -10.1748 C.1       1 <0>         0.2513
     37 N6        -15.0810   -1.9795  -10.8043 N.1       1 <0>        -0.4127
     38 H2          0.9573    1.8982    0.0737 H         1 <0>         0.0590
     39 H3         -0.5879    1.8819   -0.8098 H         1 <0>         0.0586
     40 H4         -0.5801    1.8630    0.9701 H         1 <0>         0.0607
     41 H5          0.4851   -0.3760    0.9417 H         1 <0>         0.0681
     42 H6         -1.0601   -0.3924    0.0582 H         1 <0>         0.0681
     43 H7          0.1619   -0.1324   -2.0837 H         1 <0>         0.0986
     44 H8          1.7070   -0.1160   -1.2002 H         1 <0>         0.1006
     45 H9          3.3016   -4.0196    0.8167 H         1 <0>         0.1035
     46 H10         2.6079   -5.6020    0.3886 H         1 <0>         0.1018
     47 H11         3.6659   -5.4603   -1.8495 H         1 <0>         0.0673
     48 H12         4.3596   -3.8779   -1.4214 H         1 <0>         0.0694
     49 H13         5.6001   -4.9282    0.4511 H         1 <0>         0.0598
     50 H14         4.9064   -6.5106    0.0231 H         1 <0>         0.0590
     51 H15         6.0184   -5.6929   -1.1008 H         1 <0>         0.0615
     52 H16        -3.5192   -5.5021   -3.6948 H         1 <0>         0.1322
     53 H17        -5.6526   -5.4774   -4.9148 H         1 <0>         0.1444
     54 H18        -5.6523   -1.2012   -4.8524 H         1 <0>         0.1392
     55 H19        -3.5255   -1.2125   -3.6208 H         1 <0>         0.1466
     56 H20        -7.7131   -1.5071   -5.0101 H         1 <0>         0.1036
     57 H21        -6.8286   -1.4841   -6.5546 H         1 <0>         0.1039
     58 H22        -9.2477   -0.2712   -6.8185 H         1 <0>         0.4173
     59 H23       -11.2556   -3.1541   -6.8704 H         1 <0>         0.1500
     60 H24       -13.2804   -3.4576   -8.2288 H         1 <0>         0.1387
     61 H25       -12.3842    0.1619  -10.3540 H         1 <0>         0.1395
     62 H26       -10.3672    0.4601   -8.9831 H         1 <0>         0.1394
@<TRIPOS>BOND
     1    1    2 1
     2    1   38 1
     3    1   39 1
     4    1   40 1
     5    2    3 1
     6    2   41 1
     7    2   42 1
     8    3   43 1
     9    3   44 1
    10    3    4 1
    11    4    5 1
    12    4   10 am
    13    5   17 1
    14    5    6 2
    15    6    7 1
    16    6   15 1
    17    7    9 am
    18    7    8 2
    19    9   10 am
    20    9   12 1
    21   10   11 2
    22   12   13 1
    23   12   45 1
    24   12   46 1
    25   13   14 1
    26   13   47 1
    27   13   48 1
    28   14   49 1
    29   14   50 1
    30   14   51 1
    31   15   18 1
    32   15   16 1
    33   16   19 1
    34   16   17 2
    35   19   24 ar
    36   19   20 ar
    37   20   21 ar
    38   20   52 1
    39   21   22 ar
    40   21   53 1
    41   22   23 ar
    42   22   25 1
    43   23   24 ar
    44   23   54 1
    45   24   55 1
    46   25   26 1
    47   26   27 1
    48   26   56 1
    49   26   57 1
    50   27   28 2
    51   27   29 am
    52   29   30 1
    53   29   58 1
    54   30   35 ar
    55   30   31 ar
    56   31   32 ar
    57   31   59 1
    58   32   33 ar
    59   32   60 1
    60   33   34 ar
    61   33   36 1
    62   34   35 ar
    63   34   61 1
    64   35   62 1
    65   36   37 3
@<TRIPOS>MOLECULE
ZINC49872110
   61    65     0     0     0
SMALL
USER_CHARGES

@<TRIPOS>ATOM
      1 C1         -0.1671    1.4710   -0.0659 C.3       1 <0>        -0.1480
      2 C2         -0.1271   -0.0584   -0.0665 C.3       1 <0>        -0.1386
      3 C3          0.6002   -0.5491   -1.3200 C.3       1 <0>         0.1124
      4 N1          0.6385   -2.0136   -1.3205 N.am      1 <0>        -0.5465
      5 C4          1.6731   -2.6511   -0.7346 C.2       1 <0>         0.5939
      6 O1          2.5696   -2.0162   -0.2084 O.2       1 <0>        -0.5034
      7 C5          1.7046   -4.0618   -0.7377 C.2       1 <0>        -0.1318
      8 C6          0.6671   -4.7616   -1.3455 C.2       1 <0>         0.3238
      9 N2         -0.3671   -4.0473   -1.9306 N.am      1 <0>        -0.6111
     10 H1         -1.0992   -4.5182   -2.3587 H         1 <0>         0.4408
     11 C7         -0.3602   -2.7015   -1.8999 C.2       1 <0>         0.7130
     12 O2         -1.2788   -2.0925   -2.4138 O.2       1 <0>        -0.5251
     13 N3          0.9277   -6.0617   -1.2146 N.2       1 <0>        -0.4733
     14 C8          2.0620   -6.2277   -0.5637 C.2       1 <0>         0.3240
     15 N4          2.5813   -5.0097   -0.2467 N.pl3     1 <0>        -0.5074
     16 H2          3.4081   -4.8402    0.2314 H         1 <0>         0.4390
     17 C9          2.6738   -7.5314   -0.2301 C.ar      1 <0>         0.0248
     18 C10         3.8798   -7.5808    0.4710 C.ar      1 <0>        -0.1199
     19 C11         4.4451   -8.8008    0.7796 C.ar      1 <0>        -0.0151
     20 C12         3.8194   -9.9736    0.3957 C.ar      1 <0>        -0.6635
     21 C13         2.6239   -9.9316   -0.2994 C.ar      1 <0>        -0.0170
     22 C14         2.0451   -8.7184   -0.6097 C.ar      1 <0>        -0.0850
     23 S1          4.5486  -11.5275    0.7934 S.o2      1 <0>         2.6879
     24 O3          4.0484  -12.4644   -0.1507 O.2       1 <0>        -0.9450
     25 O4          5.9388  -11.2909    0.9687 O.2       1 <0>        -0.9463
     26 N5          3.9560  -11.9826    2.2713 N.pl3     1 <0>        -0.9937
     27 C15         4.6451  -11.5869    3.5076 C.3       1 <0>         0.1022
     28 C16         3.6469  -10.8532    4.4117 C.3       1 <0>         0.1039
     29 N6          2.4222  -11.6595    4.5105 N.pl3     1 <0>        -0.6237
     30 C17         1.7331  -12.0552    3.2742 C.3       1 <0>         0.1039
     31 C18         2.7282  -12.7842    2.3703 C.3       1 <0>         0.1023
     32 C19         1.9221  -12.0435    5.7576 C.ar      1 <0>         0.2242
     33 C20         2.6418  -11.7633    6.9121 C.ar      1 <0>        -0.1885
     34 C21         2.1449  -12.1435    8.1433 C.ar      1 <0>        -0.0586
     35 C22         0.9315  -12.8035    8.2275 C.ar      1 <0>        -0.0925
     36 C23         0.2124  -13.0839    7.0789 C.ar      1 <0>        -0.0585
     37 C24         0.7017  -12.7009    5.8455 C.ar      1 <0>        -0.1879
     38 Cl1         0.3105  -13.2809    9.7767 Cl        1 <0>        -0.0781
     39 H3          0.8506    1.8612   -0.0717 H         1 <0>         0.0593
     40 H4         -0.6954    1.8210   -0.9529 H         1 <0>         0.0605
     41 H5         -0.6852    1.8206    0.8271 H         1 <0>         0.0622
     42 H6          0.4012   -0.4084    0.8204 H         1 <0>         0.0676
     43 H7         -1.1448   -0.4486   -0.0608 H         1 <0>         0.0702
     44 H8          0.0719   -0.1992   -2.2069 H         1 <0>         0.1058
     45 H9          1.6180   -0.1590   -1.3257 H         1 <0>         0.1034
     46 H10         4.3694   -6.6661    0.7709 H         1 <0>         0.1345
     47 H11         5.3784   -8.8405    1.3217 H         1 <0>         0.1496
     48 H12         2.1405  -10.8507   -0.5961 H         1 <0>         0.1510
     49 H13         1.1096   -8.6870   -1.1485 H         1 <0>         0.1534
     50 H14         5.0178  -12.4745    4.0188 H         1 <0>         0.0852
     51 H15         5.4764  -10.9241    3.2670 H         1 <0>         0.1033
     52 H16         4.0795  -10.7221    5.4036 H         1 <0>         0.0989
     53 H17         3.4104   -9.8800    3.9815 H         1 <0>         0.0700
     54 H18         0.9018  -12.7180    3.5148 H         1 <0>         0.0993
     55 H19         1.3604  -11.1676    2.7630 H         1 <0>         0.0703
     56 H20         2.2938  -12.9120    1.3788 H         1 <0>         0.1044
     57 H21         2.9613  -13.7590    2.7987 H         1 <0>         0.0848
     58 H22         3.5892  -11.2489    6.8470 H         1 <0>         0.1320
     59 H23         2.7041  -11.9259    9.0413 H         1 <0>         0.1322
     60 H24        -0.7343  -13.5991    7.1475 H         1 <0>         0.1323
     61 H25         0.1380  -12.9161    4.9498 H         1 <0>         0.1321
@<TRIPOS>BOND
     1    1    2 1
     2    1   39 1
     3    1   40 1
     4    1   41 1
     5    2    3 1
     6    2   42 1
     7    2   43 1
     8    3    4 1
     9    3   44 1
    10    3   45 1
    11    4   11 am
    12    4    5 am
    13    5    6 2
    14    5    7 1
    15    7   15 1
    16    7    8 2
    17    8    9 1
    18    8   13 1
    19    9   10 1
    20    9   11 am
    21   11   12 2
    22   13   14 2
    23   14   15 1
    24   14   17 1
    25   15   16 1
    26   17   22 ar
    27   17   18 ar
    28   18   19 ar
    29   18   46 1
    30   19   20 ar
    31   19   47 1
    32   20   21 ar
    33   20   23 1
    34   21   22 ar
    35   21   48 1
    36   22   49 1
    37   23   24 2
    38   23   25 2
    39   23   26 1
    40   26   31 1
    41   26   27 1
    42   27   28 1
    43   27   50 1
    44   27   51 1
    45   28   29 1
    46   28   52 1
    47   28   53 1
    48   29   30 1
    49   29   32 1
    50   30   31 1
    51   30   54 1
    52   30   55 1
    53   31   56 1
    54   31   57 1
    55   32   37 ar
    56   32   33 ar
    57   33   34 ar
    58   33   58 1
    59   34   35 ar
    60   34   59 1
    61   35   36 ar
    62   35   38 1
    63   36   37 ar
    64   36   60 1
    65   37   61 1
@<TRIPOS>MOLECULE
ZINC49872110
   60    64     0     0     0
SMALL
USER_CHARGES

@<TRIPOS>ATOM
      1 C1         -0.0087    1.4698    0.1758 C.3       1 <0>        -0.1437
      2 C2          0.0091   -0.0598    0.1467 C.3       1 <0>        -0.1380
      3 C3         -1.4274   -0.5865    0.1454 C.3       1 <0>         0.1179
      4 N1         -1.4104   -2.0512    0.1175 N.am      1 <0>        -0.5339
      5 C4         -1.4042   -2.6970   -1.0823 C.2       1 <0>         0.5565
      6 O1         -1.4131   -1.9975   -2.2314 O.3       1 <0>        -0.5911
      7 C5         -1.3880   -4.0944   -1.1057 C.2       1 <0>        -0.1445
      8 C6         -1.3785   -4.7975    0.1221 C.2       1 <0>         0.2268
      9 N2         -1.3859   -4.0788    1.3054 N.am      1 <0>        -0.6082
     10 H1         -1.3792   -4.5450    2.1560 H         1 <0>         0.4219
     11 C7         -1.3958   -2.7325    1.2756 C.2       1 <0>         0.7117
     12 O2         -1.3965   -2.1171    2.3245 O.2       1 <0>        -0.5703
     13 N3         -1.3643   -6.0830   -0.1772 N.2       1 <0>        -0.5277
     14 C8         -1.3645   -6.2149   -1.5091 C.2       1 <0>         0.1454
     15 N4         -1.3787   -5.0233   -2.0795 N.2       1 <0>        -0.4344
     16 C9         -1.3503   -7.5066   -2.2364 C.ar      1 <0>         0.1099
     17 C10        -1.3456   -7.5247   -3.6305 C.ar      1 <0>        -0.1265
     18 C11        -1.3324   -8.7301   -4.3021 C.ar      1 <0>        -0.0212
     19 C12        -1.3243   -9.9190   -3.5949 C.ar      1 <0>        -0.6986
     20 C13        -1.3290   -9.9073   -2.2116 C.ar      1 <0>        -0.0229
     21 C14        -1.3359   -8.7079   -1.5291 C.ar      1 <0>        -0.1266
     22 S1         -1.3087  -11.4542   -4.4594 S.o2      1 <0>         2.6929
     23 O3         -1.8539  -12.4238   -3.5752 O.2       1 <0>        -0.9594
     24 O4         -1.8579  -11.2017   -5.7455 O.2       1 <0>        -0.9587
     25 N5          0.2775  -11.8674   -4.6950 N.pl3     1 <0>        -0.9977
     26 C15         0.9937  -11.4281   -5.9008 C.3       1 <0>         0.1058
     27 C16         2.2586  -10.6741   -5.4722 C.3       1 <0>         0.1011
     28 N6          2.9755  -11.4861   -4.4789 N.pl3     1 <0>        -0.6197
     29 C17         2.2593  -11.9254   -3.2731 C.3       1 <0>         0.1017
     30 C18         0.9960  -12.6747   -3.6991 C.3       1 <0>         0.1063
     31 C19         4.3141  -11.8347   -4.6777 C.ar      1 <0>         0.2303
     32 C20         4.9468  -11.5132   -5.8716 C.ar      1 <0>        -0.1906
     33 C21         6.2700  -11.8585   -6.0652 C.ar      1 <0>        -0.0581
     34 C22         6.9651  -12.5246   -5.0712 C.ar      1 <0>        -0.0974
     35 C23         6.3372  -12.8462   -3.8807 C.ar      1 <0>        -0.0582
     36 C24         5.0159  -12.4982   -3.6795 C.ar      1 <0>        -0.1905
     37 Cl1         8.6278  -12.9582   -5.3184 Cl        1 <0>        -0.0849
     38 H2          1.0147    1.8451    0.1768 H         1 <0>         0.0562
     39 H3         -0.5320    1.8439   -0.7041 H         1 <0>         0.0571
     40 H4         -0.5213    1.8102    1.0755 H         1 <0>         0.0558
     41 H5          0.5217   -0.4002   -0.7529 H         1 <0>         0.0689
     42 H6          0.5324   -0.4339    1.0267 H         1 <0>         0.0655
     43 H7         -1.9401   -0.2462    1.0450 H         1 <0>         0.0935
     44 H8         -1.9507   -0.2125   -0.7346 H         1 <0>         0.0973
     45 H9         -1.3525   -6.5971   -4.1836 H         1 <0>         0.1402
     46 H10        -1.3287   -8.7453   -5.3820 H         1 <0>         0.1341
     47 H11        -1.3230  -10.8386   -1.6647 H         1 <0>         0.1334
     48 H12        -1.3345   -8.6999   -0.4491 H         1 <0>         0.1385
     49 H13         1.2705  -12.2965   -6.4987 H         1 <0>         0.0790
     50 H14         0.3542  -10.7670   -6.4857 H         1 <0>         0.1035
     51 H15         2.8976  -10.5088   -6.3396 H         1 <0>         0.0965
     52 H16         1.9818   -9.7166   -5.0309 H         1 <0>         0.0763
     53 H17         2.8988  -12.5865   -2.6883 H         1 <0>         0.0962
     54 H18         1.9826  -11.0570   -2.6753 H         1 <0>         0.0751
     55 H19         0.3581  -12.8366   -2.8303 H         1 <0>         0.1033
     56 H20         1.2729  -13.6339   -4.1366 H         1 <0>         0.0785
     57 H21         4.4046  -10.9940   -6.6480 H         1 <0>         0.1327
     58 H22         6.7625  -11.6088   -6.9934 H         1 <0>         0.1303
     59 H23         6.8821  -13.3660   -3.1066 H         1 <0>         0.1302
     60 H24         4.5276  -12.7455   -2.7484 H         1 <0>         0.1323
@<TRIPOS>BOND
     1    1    2 1
     2    1   38 1
     3    1   39 1
     4    1   40 1
     5    2    3 1
     6    2   41 1
     7    2   42 1
     8    3    4 1
     9    3   43 1
    10    3   44 1
    11    4   11 am
    12    4    5 1
    13    5    6 1
    14    5    7 2
    15    7   15 1
    16    7    8 1
    17    8    9 1
    18    8   13 2
    19    9   10 1
    20    9   11 am
    21   11   12 2
    22   13   14 1
    23   14   15 2
    24   14   16 1
    25   16   21 ar
    26   16   17 ar
    27   17   18 ar
    28   17   45 1
    29   18   19 ar
    30   18   46 1
    31   19   20 ar
    32   19   22 1
    33   20   21 ar
    34   20   47 1
    35   21   48 1
    36   22   23 2
    37   22   24 2
    38   22   25 1
    39   25   30 1
    40   25   26 1
    41   26   27 1
    42   26   49 1
    43   26   50 1
    44   27   28 1
    45   27   51 1
    46   27   52 1
    47   28   29 1
    48   28   31 1
    49   29   30 1
    50   29   53 1
    51   29   54 1
    52   30   55 1
    53   30   56 1
    54   31   36 ar
    55   31   32 ar
    56   32   33 ar
    57   32   57 1
    58   33   34 ar
    59   33   58 1
    60   34   35 ar
    61   34   37 1
    62   35   36 ar
    63   35   59 1
    64   36   60 1
