@<TRIPOS>MOLECULE
ZINC15880093
   34    36     0     0     0
SMALL
USER_CHARGES

@<TRIPOS>ATOM
      1 C1         -0.0178    1.4608    0.0101 C.3       1 <0>         0.0854
      2 N1          0.0021   -0.0041    0.0020 N.am      1 <0>        -0.5106
      3 C2         -1.1889   -0.7120    0.0039 C.2       1 <0>         0.3238
      4 C3         -1.1437   -2.1005   -0.0039 C.2       1 <0>        -0.1540
      5 C4          0.1107   -2.7476   -0.0134 C.2       1 <0>         0.5938
      6 O1          0.1765   -3.9638   -0.0207 O.2       1 <0>        -0.5125
      7 N2          1.2361   -2.0032   -0.0148 N.am      1 <0>        -0.5511
      8 C5          1.1776   -0.6603   -0.0127 C.2       1 <0>         0.7080
      9 O2          2.2126   -0.0219   -0.0196 O.2       1 <0>        -0.5321
     10 C6          2.5413   -2.6685   -0.0246 C.3       1 <0>         0.0833
     11 N3         -2.4557   -2.5297    0.0001 N.pl3     1 <0>        -0.5129
     12 H1         -2.7618   -3.4502   -0.0030 H         1 <0>         0.4351
     13 C7         -3.2306   -1.4275    0.0098 C.2       1 <0>         0.3086
     14 N4         -2.4766   -0.3579    0.0120 N.2       1 <0>        -0.4911
     15 C8         -4.7376   -1.4266    0.0162 C.3       1 <0>        -0.0169
     16 C9         -5.2635   -2.6576    0.7829 C.3       1 <0>        -0.1247
     17 C10        -6.5224   -3.0893   -0.0094 C.3       1 <0>        -0.1243
     18 C11        -6.1023   -2.8421   -1.4796 C.3       1 <0>        -0.1289
     19 C12        -5.2709   -1.5439   -1.4224 C.3       1 <0>        -0.1171
     20 H2          1.0048    1.8381    0.0023 H         1 <0>         0.1034
     21 H3         -0.5450    1.8219   -0.8730 H         1 <0>         0.0796
     22 H4         -0.5280    1.8123    0.9069 H         1 <0>         0.0799
     23 H5          2.8601   -2.8279   -1.0547 H         1 <0>         0.0772
     24 H6          3.2716   -2.0434    0.4891 H         1 <0>         0.0972
     25 H7          2.4632   -3.6292    0.4844 H         1 <0>         0.0953
     26 H8         -5.1081   -0.5116    0.4783 H         1 <0>         0.1182
     27 H9         -4.5198   -3.4544    0.7812 H         1 <0>         0.0624
     28 H10        -5.5302   -2.3856    1.8042 H         1 <0>         0.0826
     29 H11        -6.7412   -4.1439    0.1577 H         1 <0>         0.0739
     30 H12        -7.3782   -2.4691    0.2573 H         1 <0>         0.0763
     31 H13        -5.4941   -3.6687   -1.8467 H         1 <0>         0.0666
     32 H14        -6.9812   -2.7047   -2.1096 H         1 <0>         0.0745
     33 H15        -5.9010   -0.6863   -1.6581 H         1 <0>         0.0826
     34 H16        -4.4397   -1.6015   -2.1252 H         1 <0>         0.0685
@<TRIPOS>BOND
     1    1    2 1
     2    1   20 1
     3    1   21 1
     4    1   22 1
     5    2    8 am
     6    2    3 1
     7    3   14 1
     8    3    4 2
     9    4    5 1
    10    4   11 1
    11    5    6 2
    12    5    7 am
    13    7    8 am
    14    7   10 1
    15    8    9 2
    16   10   23 1
    17   10   24 1
    18   10   25 1
    19   11   12 1
    20   11   13 1
    21   13   14 2
    22   13   15 1
    23   15   19 1
    24   15   16 1
    25   15   26 1
    26   16   17 1
    27   16   27 1
    28   16   28 1
    29   17   18 1
    30   17   29 1
    31   17   30 1
    32   18   19 1
    33   18   31 1
    34   18   32 1
    35   19   33 1
    36   19   34 1
@<TRIPOS>MOLECULE
ZINC26972070
   52    56     0     0     0
SMALL
USER_CHARGES
benzyl-phenyl-propoxy-BLAH
@<TRIPOS>ATOM
      1 C1          3.2588    0.5339    8.2821 C.3       1 <0>        -0.1510
      2 C2          2.5051    0.2831    6.9744 C.3       1 <0>        -0.1267
      3 C3          2.1630    1.6221    6.3180 C.3       1 <0>         0.0765
      4 O1          1.4591    1.3878    5.0967 O.3       1 <0>        -0.3008
      5 C4          1.0815    2.4735    4.3890 C.2       1 <0>         0.6330
      6 N1          1.3778    3.6581    4.8560 N.2       1 <0>        -0.5924
      7 C5          1.0372    4.7851    4.2113 C.2       1 <0>         0.3716
      8 C6          0.3424    4.7062    2.9992 C.2       1 <0>        -0.2817
      9 C7          0.1199    6.0201    2.5530 C.2       1 <0>         0.1357
     10 N2          0.6385    6.8431    3.4244 N.2       1 <0>        -0.2746
     11 N3          1.2176    6.1117    4.4692 N.pl3     1 <0>        -0.3085
     12 C8          1.8685    6.6500    5.5864 C.ar      1 <0>         0.1509
     13 C9          1.7596    6.0267    6.8226 C.ar      1 <0>        -0.1120
     14 C10         2.4078    6.5566    7.9210 C.ar      1 <0>        -0.1018
     15 C11         3.1545    7.7135    7.7934 C.ar      1 <0>        -0.1182
     16 C12         3.2602    8.3397    6.5651 C.ar      1 <0>        -0.1034
     17 C13         2.6195    7.8114    5.4615 C.ar      1 <0>        -0.1075
     18 C14         0.0051    3.3722    2.4684 C.2       1 <0>         0.4420
     19 N4         -0.6285    3.0386    1.3762 N.2       1 <0>        -0.5243
     20 C15        -0.7288    1.5792    1.2668 C.3       1 <0>         0.0594
     21 H1         -1.7822    1.2723    1.1880 H         1 <0>         0.1101
     22 C16        -0.0193    1.0578    2.5304 C.3       1 <0>         0.0774
     23 N5          0.4062    2.2867    3.2185 N.pl3     1 <0>        -0.5506
     24 C17        -0.0127    1.0858    0.0080 C.3       1 <0>        -0.0727
     25 C18        -0.7416    1.5850   -1.2129 C.ar      1 <0>        -0.0754
     26 C19        -1.7499    0.8246   -1.7750 C.ar      1 <0>        -0.1192
     27 C20        -2.4220    1.2850   -2.8918 C.ar      1 <0>        -0.1223
     28 C21        -2.0785    2.5007   -3.4529 C.ar      1 <0>        -0.1227
     29 C22        -1.0663    3.2585   -2.8942 C.ar      1 <0>        -0.1206
     30 C23        -0.3980    2.8008   -1.7740 C.ar      1 <0>        -0.0910
     31 H2          3.5047   -0.4288    8.7540 H         1 <0>         0.0686
     32 H3          2.6272    1.1247    8.9618 H         1 <0>         0.0608
     33 H4          4.1863    1.0861    8.0706 H         1 <0>         0.0610
     34 H5          3.1367   -0.3077    6.2947 H         1 <0>         0.0759
     35 H6          1.5776   -0.2692    7.1859 H         1 <0>         0.0758
     36 H7          1.5314    2.2129    6.9977 H         1 <0>         0.0791
     37 H8          3.0905    2.1744    6.1065 H         1 <0>         0.0802
     38 H9         -0.3918    6.3012    1.6445 H         1 <0>         0.2017
     39 H10         1.1726    5.1258    6.9238 H         1 <0>         0.1326
     40 H11         2.3277    6.0694    8.8815 H         1 <0>         0.1323
     41 H12         3.6565    8.1286    8.6549 H         1 <0>         0.1297
     42 H13         3.8448    9.2427    6.4685 H         1 <0>         0.1332
     43 H14         2.7028    8.3008    4.5024 H         1 <0>         0.1343
     44 H15        -0.7265    0.4660    3.1302 H         1 <0>         0.1005
     45 H16         0.8323    0.4257    2.2384 H         1 <0>         0.1016
     46 H17         1.0193    1.4666    0.0002 H         1 <0>         0.0730
     47 H18         0.0023   -0.0141    0.0019 H         1 <0>         0.0840
     48 H19        -2.0153   -0.1273   -1.3392 H         1 <0>         0.1186
     49 H20        -3.2130    0.6931   -3.3281 H         1 <0>         0.1195
     50 H21        -2.6011    2.8587   -4.3276 H         1 <0>         0.1191
     51 H22        -0.7979    4.2083   -3.3326 H         1 <0>         0.1199
     52 H23         0.3927    3.3928   -1.3375 H         1 <0>         0.1190
@<TRIPOS>BOND
     1    1    2 1
     2    1   31 1
     3    1   32 1
     4    1   33 1
     5    2    3 1
     6    2   34 1
     7    2   35 1
     8    3    4 1
     9    3   36 1
    10    3   37 1
    11    4    5 1
    12    5   23 1
    13    5    6 2
    14    6    7 1
    15    7   11 1
    16    7    8 2
    17    8    9 1
    18    8   18 1
    19    9   10 2
    20    9   38 1
    21   10   11 1
    22   11   12 1
    23   12   17 ar
    24   12   13 ar
    25   13   14 ar
    26   13   39 1
    27   14   15 ar
    28   14   40 1
    29   15   16 ar
    30   15   41 1
    31   16   17 ar
    32   16   42 1
    33   17   43 1
    34   18   23 1
    35   18   19 2
    36   19   20 1
    37   20   21 1
    38   20   22 1
    39   20   24 1
    40   22   23 1
    41   22   44 1
    42   22   45 1
    43   24   25 1
    44   24   46 1
    45   24   47 1
    46   25   30 ar
    47   25   26 ar
    48   26   27 ar
    49   26   48 1
    50   27   28 ar
    51   27   49 1
    52   28   29 ar
    53   28   50 1
    54   29   30 ar
    55   29   51 1
    56   30   52 1
@<TRIPOS>MOLECULE
ZINC09229229
   37    39     0     0     0
SMALL
USER_CHARGES

@<TRIPOS>ATOM
      1 C1         -0.0187    1.5258    0.0104 C.3       1 <0>        -0.1680
      2 C2          0.0021   -0.0041    0.0020 C.3       1 <0>         0.1152
      3 N1          0.6878   -0.4765   -1.2033 N.am      1 <0>        -0.5082
      4 C3         -0.0334   -0.7052   -2.3651 C.2       1 <0>         0.3290
      5 C4          0.6423   -1.1532   -3.4958 C.2       1 <0>        -0.1457
      6 C5          2.0362   -1.3610   -3.4264 C.2       1 <0>         0.5940
      7 O1          2.6500   -1.7525   -4.4030 O.2       1 <0>        -0.5110
      8 N2          2.6815   -1.1207   -2.2662 N.am      1 <0>        -0.5483
      9 C6          2.0179   -0.6826   -1.1826 C.2       1 <0>         0.7080
     10 O2          2.6341   -0.4721   -0.1556 O.2       1 <0>        -0.5290
     11 C7          4.1286   -1.3351   -2.1880 C.3       1 <0>         0.1102
     12 C8          4.8567   -0.0443   -2.5684 C.3       1 <0>        -0.1672
     13 N3         -0.3074   -1.2946   -4.4889 N.pl3     1 <0>        -0.5144
     14 H1         -0.1525   -1.5921   -5.3991 H         1 <0>         0.4365
     15 C9         -1.5027   -0.9366   -3.9443 C.2       1 <0>         0.3420
     16 N4         -1.3216   -0.5903   -2.6853 N.2       1 <0>        -0.4822
     17 C10        -2.7998   -0.9359   -4.6534 C.ar      1 <0>        -0.0386
     18 C11        -2.8676   -1.3299   -5.9908 C.ar      1 <0>        -0.0983
     19 C12        -4.0813   -1.3274   -6.6466 C.ar      1 <0>        -0.1167
     20 C13        -5.2296   -0.9352   -5.9818 C.ar      1 <0>        -0.0959
     21 C14        -5.1693   -0.5436   -4.6561 C.ar      1 <0>        -0.1189
     22 C15        -3.9628   -0.5469   -3.9870 C.ar      1 <0>        -0.0637
     23 H2          1.0039    1.9031    0.0027 H         1 <0>         0.0615
     24 H3         -0.5459    1.8868   -0.8726 H         1 <0>         0.0612
     25 H4         -0.5289    1.8773    0.9072 H         1 <0>         0.0787
     26 H5          0.5293   -0.3651    0.8851 H         1 <0>         0.1011
     27 H6         -1.0205   -0.3814    0.0098 H         1 <0>         0.0989
     28 H7          4.3995   -1.6188   -1.1711 H         1 <0>         0.1038
     29 H8          4.4158   -2.1304   -2.8759 H         1 <0>         0.1018
     30 H9          4.5859    0.2395   -3.5854 H         1 <0>         0.0605
     31 H10         4.5696    0.7510   -1.8806 H         1 <0>         0.0627
     32 H11         5.9334   -0.2038   -2.5102 H         1 <0>         0.0801
     33 H12        -1.9720   -1.6356   -6.5111 H         1 <0>         0.1225
     34 H13        -4.1353   -1.6320   -7.6814 H         1 <0>         0.1325
     35 H14        -6.1772   -0.9344   -6.5000 H         1 <0>         0.1304
     36 H15        -6.0692   -0.2385   -4.1429 H         1 <0>         0.1340
     37 H16        -3.9177   -0.2449   -2.9510 H         1 <0>         0.1415
@<TRIPOS>BOND
     1    1    2 1
     2    1   23 1
     3    1   24 1
     4    1   25 1
     5    2    3 1
     6    2   26 1
     7    2   27 1
     8    3    9 am
     9    3    4 1
    10    4   16 1
    11    4    5 2
    12    5    6 1
    13    5   13 1
    14    6    7 2
    15    6    8 am
    16    8    9 am
    17    8   11 1
    18    9   10 2
    19   11   12 1
    20   11   28 1
    21   11   29 1
    22   12   30 1
    23   12   31 1
    24   12   32 1
    25   13   14 1
    26   13   15 1
    27   15   16 2
    28   15   17 1
    29   17   22 ar
    30   17   18 ar
    31   18   19 ar
    32   18   33 1
    33   19   20 ar
    34   19   34 1
    35   20   21 ar
    36   20   35 1
    37   21   22 ar
    38   21   36 1
    39   22   37 1
@<TRIPOS>MOLECULE
ZINC03811810
   48    51     0     0     0
SMALL
USER_CHARGES

@<TRIPOS>ATOM
      1 C1         -0.0178    1.4608    0.0101 C.3       1 <0>         0.0858
      2 N1          0.0021   -0.0041    0.0020 N.am      1 <0>        -0.7308
      3 C2         -1.1558   -0.6938    0.0094 C.2       1 <0>         0.5149
      4 O1         -2.2142   -0.1017    0.0227 O.2       1 <0>        -0.5024
      5 C3         -1.1354   -2.2006    0.0011 C.3       1 <0>         0.0320
      6 H1         -0.5471   -2.5799    0.8366 H         1 <0>         0.1225
      7 C4         -0.5782   -2.7315   -1.3443 C.3       1 <0>         0.0506
      8 H2         -0.9118   -2.1105   -2.1757 H         1 <0>         0.0948
      9 C5         -1.2083   -4.1435   -1.4217 C.3       1 <0>         0.0832
     10 H3         -1.5347   -4.3603   -2.4388 H         1 <0>         0.0899
     11 C6         -2.4187   -4.0695   -0.4709 C.3       1 <0>         0.3144
     12 H4         -2.2882   -4.7738    0.3507 H         1 <0>         0.1316
     13 O2         -2.4789   -2.7275    0.0446 O.3       1 <0>        -0.3270
     14 N2         -3.6479   -4.3821   -1.2041 N.pl3     1 <0>        -0.4753
     15 C7         -4.4978   -3.4819   -1.7747 C.2       1 <0>         0.2660
     16 N3         -5.4881   -4.1049   -2.3448 N.2       1 <0>        -0.4586
     17 C8         -5.3371   -5.4406   -2.1768 C.ar      1 <0>        -0.1040
     18 C9         -4.1517   -5.6348   -1.4476 C.ar      1 <0>         0.3101
     19 N4         -3.7707   -6.8732   -1.1522 N.ar      1 <0>        -0.5538
     20 C10        -4.4895   -7.9064   -1.5380 C.ar      1 <0>         0.3661
     21 N5         -5.6079   -7.7739   -2.2273 N.ar      1 <0>        -0.5871
     22 C11        -6.0726   -6.5743   -2.5614 C.ar      1 <0>         0.5073
     23 N6         -7.2452   -6.4456   -3.2850 N.pl3     1 <0>        -0.6904
     24 C12        -7.9987   -7.6392   -3.6772 C.3       1 <0>         0.1703
     25 C13        -9.2253   -7.2276   -4.4499 C.ar      1 <0>        -0.1092
     26 C14       -10.4099   -6.9750   -3.7831 C.ar      1 <0>        -0.0788
     27 C15       -11.5351   -6.5975   -4.4915 C.ar      1 <0>        -0.1155
     28 C16       -11.4764   -6.4722   -5.8670 C.ar      1 <0>        -0.0754
     29 C17       -10.2918   -6.7247   -6.5341 C.ar      1 <0>        -0.1026
     30 C18        -9.1645   -7.0970   -5.8244 C.ar      1 <0>        -0.0641
     31 I1        -10.2026   -6.5356   -8.6187 I         1 <0>        -0.0379
     32 O3         -0.2777   -5.1316   -0.9750 O.3       1 <0>        -0.5314
     33 O4          0.8483   -2.8101   -1.3100 O.3       1 <0>        -0.5362
     34 H5          1.0048    1.8381    0.0023 H         1 <0>         0.0830
     35 H6         -0.5450    1.8219   -0.8730 H         1 <0>         0.0653
     36 H7         -0.5280    1.8123    0.9069 H         1 <0>         0.0657
     37 H8          0.8486   -0.4776   -0.0086 H         1 <0>         0.3996
     38 H9         -4.3686   -2.4098   -1.7561 H         1 <0>         0.2242
     39 H10        -4.1517   -8.8996   -1.2813 H         1 <0>         0.2060
     40 H11        -7.5682   -5.5651   -3.5326 H         1 <0>         0.4195
     41 H12        -7.3721   -8.2754   -4.3023 H         1 <0>         0.0825
     42 H13        -8.2988   -8.1888   -2.7851 H         1 <0>         0.0840
     43 H14       -10.4561   -7.0732   -2.7086 H         1 <0>         0.1321
     44 H15       -12.4604   -6.4006   -3.9704 H         1 <0>         0.1349
     45 H16       -12.3557   -6.1775   -6.4205 H         1 <0>         0.1316
     46 H17        -8.2379   -7.2896   -6.3447 H         1 <0>         0.1313
     47 H18         0.5294   -5.1801   -1.5054 H         1 <0>         0.3970
     48 H19         1.2858   -1.9588   -1.1720 H         1 <0>         0.3844
@<TRIPOS>BOND
     1    1    2 1
     2    1   34 1
     3    1   35 1
     4    1   36 1
     5    2    3 am
     6    2   37 1
     7    3    4 2
     8    3    5 1
     9    5    6 1
    10    5   13 1
    11    5    7 1
    12    7    8 1
    13    7    9 1
    14    7   33 1
    15    9   10 1
    16    9   11 1
    17    9   32 1
    18   11   12 1
    19   11   13 1
    20   11   14 1
    21   14   18 1
    22   14   15 1
    23   15   16 2
    24   15   38 1
    25   16   17 1
    26   17   22 ar
    27   17   18 ar
    28   18   19 ar
    29   19   20 ar
    30   20   21 ar
    31   20   39 1
    32   21   22 ar
    33   22   23 1
    34   23   24 1
    35   23   40 1
    36   24   25 1
    37   24   41 1
    38   24   42 1
    39   25   30 ar
    40   25   26 ar
    41   26   27 ar
    42   26   43 1
    43   27   28 ar
    44   27   44 1
    45   28   29 ar
    46   28   45 1
    47   29   30 ar
    48   29   31 1
    49   30   46 1
    50   32   47 1
    51   33   48 1
@<TRIPOS>MOLECULE
ZINC03814423
   58    62     0     0     0
SMALL
USER_CHARGES

@<TRIPOS>ATOM
      1 C1         -0.3495    1.1419    0.1565 C.3       1 <0>        -0.2092
      2 C2          0.5123   -0.0432   -0.1956 C.2       1 <0>         0.3555
      3 O1          1.4945   -0.2919    0.4614 O.2       1 <0>        -0.4322
      4 C3          0.1483   -0.9179   -1.3675 C.3       1 <0>         0.0885
      5 C4          1.4042   -1.6523   -1.8999 C.3       1 <0>        -0.1306
      6 C5          1.0874   -3.1711   -1.8263 C.3       1 <0>        -0.1197
      7 C6         -0.4442   -3.2049   -1.8665 C.3       1 <0>        -0.0741
      8 H1         -0.8032   -3.0148   -2.8779 H         1 <0>         0.0895
      9 C7         -0.8066   -2.0212   -0.9267 C.3       1 <0>        -0.0418
     10 C8         -2.2879   -1.7430   -1.0734 C.3       1 <0>        -0.0999
     11 C9         -3.0484   -2.9897   -0.5829 C.3       1 <0>        -0.1142
     12 C10        -2.6175   -4.2238   -1.3633 C.3       1 <0>        -0.0695
     13 H2         -2.8921   -4.0887   -2.4095 H         1 <0>         0.0789
     14 C11        -1.0985   -4.4463   -1.2980 C.3       1 <0>        -0.0570
     15 H3         -0.8122   -4.5485   -0.2513 H         1 <0>         0.1098
     16 C12        -0.6950   -5.6905   -2.0209 C.2       1 <0>        -0.0846
     17 C13        -1.5320   -6.7000   -2.2521 C.2       1 <0>        -0.0701
     18 C14        -2.9357   -6.6244   -1.8124 C.2       1 <0>         0.0207
     19 C15        -3.7999   -7.5601   -2.2489 C.2       1 <0>        -0.2256
     20 C16        -5.1738   -7.5324   -1.9791 C.2       1 <0>         0.4168
     21 O2         -5.8804   -8.4610   -2.3164 O.2       1 <0>        -0.4511
     22 C17        -5.7723   -6.3449   -1.2675 C.3       1 <0>        -0.2014
     23 H4         -6.6716   -6.5474   -0.6859 H         1 <0>         0.1324
     24 C18        -5.6703   -4.9881   -1.9702 C.3       1 <0>        -0.1405
     25 C19        -4.8001   -5.2994   -0.7282 C.3       1 <0>        -0.1250
     26 H5         -5.0902   -4.8025    0.1976 H         1 <0>         0.1198
     27 C20        -3.2955   -5.4856   -0.8402 C.3       1 <0>         0.0141
     28 C21        -2.7140   -5.7800    0.5440 C.3       1 <0>        -0.1492
     29 Cl1        -0.9642   -8.1168   -3.0793 Cl        1 <0>        -0.0614
     30 C22        -0.5095   -2.4082    0.5234 C.3       1 <0>        -0.1637
     31 O3         -0.4458   -0.1338   -2.4041 O.3       1 <0>        -0.3274
     32 C23         0.2993    0.8546   -2.9235 C.2       1 <0>         0.4524
     33 O4          1.4427    1.0029   -2.5624 O.2       1 <0>        -0.5012
     34 C24        -0.2905    1.7793   -3.9570 C.3       1 <0>        -0.1484
     35 H6          0.0609    2.0397   -0.3058 H         1 <0>         0.0951
     36 H7         -1.3628    0.9757   -0.2091 H         1 <0>         0.0891
     37 H8         -0.3698    1.2675    1.2391 H         1 <0>         0.0930
     38 H9          1.5991   -1.3604   -2.9318 H         1 <0>         0.0778
     39 H10         2.2667   -1.4194   -1.2754 H         1 <0>         0.0930
     40 H11         1.5073   -3.6947   -2.6852 H         1 <0>         0.0761
     41 H12         1.4582   -3.5977   -0.8943 H         1 <0>         0.0774
     42 H13        -2.5635   -0.8798   -0.4676 H         1 <0>         0.0713
     43 H14        -2.5263   -1.5525   -2.1198 H         1 <0>         0.0795
     44 H15        -2.8405   -3.1437    0.4760 H         1 <0>         0.0733
     45 H16        -4.1186   -2.8342   -0.7191 H         1 <0>         0.0786
     46 H17         0.3228   -5.7746   -2.3724 H         1 <0>         0.1320
     47 H18        -3.4122   -8.3768   -2.8399 H         1 <0>         0.1411
     48 H19        -5.1793   -4.9604   -2.9430 H         1 <0>         0.1012
     49 H20        -6.4978   -4.2904   -1.8406 H         1 <0>         0.1122
     50 H21        -2.9118   -4.9382    1.2077 H         1 <0>         0.0750
     51 H22        -3.1781   -6.6791    0.9493 H         1 <0>         0.0645
     52 H23        -1.6379   -5.9322    0.4611 H         1 <0>         0.0686
     53 H24        -0.7307   -1.5645    1.1772 H         1 <0>         0.0601
     54 H25        -1.1287   -3.2594    0.8065 H         1 <0>         0.0820
     55 H26         0.5426   -2.6763    0.6197 H         1 <0>         0.0703
     56 H27        -1.3235    1.4925   -4.1539 H         1 <0>         0.0937
     57 H28        -0.2622    2.8039   -3.5862 H         1 <0>         0.1074
     58 H29         0.2877    1.7103   -4.8784 H         1 <0>         0.1070
@<TRIPOS>BOND
     1    1    2 1
     2    1   35 1
     3    1   36 1
     4    1   37 1
     5    2    3 2
     6    2    4 1
     7    4    9 1
     8    4    5 1
     9    4   31 1
    10    5    6 1
    11    5   38 1
    12    5   39 1
    13    6    7 1
    14    6   40 1
    15    6   41 1
    16    7    8 1
    17    7   14 1
    18    7    9 1
    19    9   10 1
    20    9   30 1
    21   10   11 1
    22   10   42 1
    23   10   43 1
    24   11   12 1
    25   11   44 1
    26   11   45 1
    27   12   13 1
    28   12   27 1
    29   12   14 1
    30   14   15 1
    31   14   16 1
    32   16   17 2
    33   16   46 1
    34   17   18 1
    35   17   29 1
    36   18   27 1
    37   18   19 2
    38   19   20 1
    39   19   47 1
    40   20   21 2
    41   20   22 1
    42   22   23 1
    43   22   25 1
    44   22   24 1
    45   24   25 1
    46   24   48 1
    47   24   49 1
    48   25   26 1
    49   25   27 1
    50   27   28 1
    51   28   50 1
    52   28   51 1
    53   28   52 1
    54   30   53 1
    55   30   54 1
    56   30   55 1
    57   31   32 1
    58   32   33 2
    59   32   34 1
    60   34   56 1
    61   34   57 1
    62   34   58 1
@<TRIPOS>MOLECULE
ZINC04654890
   33    34     0     0     0
SMALL
USER_CHARGES
1,3-dipropyl-7H-purine-2,6-dione
@<TRIPOS>ATOM
      1 C1          4.8600    4.3313   -1.4654 C.3       1 <0>        -0.1475
      2 C2          3.3301    4.3321   -1.4508 C.3       1 <0>        -0.1381
      3 C3          2.8338    4.3259   -0.0036 C.3       1 <0>         0.1189
      4 N1          1.3689    4.3267    0.0104 N.am      1 <0>        -0.5084
      5 C4          0.6765    3.1266    0.0116 C.2       1 <0>         0.3217
      6 C5         -0.7124    3.1538    0.0245 C.2       1 <0>        -0.1544
      7 C6         -1.3758    4.3997    0.0363 C.2       1 <0>         0.5935
      8 O1         -2.5926    4.4497    0.0477 O.2       1 <0>        -0.5123
      9 N2         -0.6460    5.5347    0.0341 N.am      1 <0>        -0.5489
     10 C7          0.6974    5.4937    0.0215 C.2       1 <0>         0.7070
     11 O2          1.3222    6.5369    0.0207 O.2       1 <0>        -0.5292
     12 C8         -1.3282    6.8311    0.0459 C.3       1 <0>         0.1135
     13 C9         -1.5790    7.2886   -1.3924 C.3       1 <0>        -0.1376
     14 C10        -2.2914    8.6425   -1.3801 C.3       1 <0>        -0.1474
     15 N3         -1.1247    1.8363    0.0168 N.pl3     1 <0>        -0.5215
     16 H1         -2.0695    1.5086    0.0176 H         1 <0>         0.4452
     17 C11        -0.0126    1.0758    0.0080 C.2       1 <0>         0.2766
     18 N4          1.0472    1.8436    0.0020 N.2       1 <0>        -0.4997
     19 H2          5.2135    4.3357   -2.4965 H         1 <0>         0.0608
     20 H3          5.2287    5.2188   -0.9511 H         1 <0>         0.0590
     21 H4          5.2277    3.4388   -0.9590 H         1 <0>         0.0591
     22 H5          2.9613    3.4446   -1.9652 H         1 <0>         0.0678
     23 H6          2.9624    5.2246   -1.9572 H         1 <0>         0.0676
     24 H7          3.2025    5.2134    0.5108 H         1 <0>         0.1001
     25 H8          3.2015    3.4334    0.5028 H         1 <0>         0.0990
     26 H9         -2.2803    6.7359    0.5681 H         1 <0>         0.1015
     27 H10        -0.7051    7.5649    0.5572 H         1 <0>         0.1034
     28 H11        -0.6269    7.3837   -1.9146 H         1 <0>         0.0691
     29 H12        -2.2021    6.5548   -1.9037 H         1 <0>         0.0670
     30 H13        -2.4700    8.9685   -2.4047 H         1 <0>         0.0615
     31 H14        -3.2435    8.5474   -0.8579 H         1 <0>         0.0590
     32 H15        -1.6683    9.3763   -0.8688 H         1 <0>         0.0599
     33 H16         0.0021   -0.0041    0.0020 H         1 <0>         0.2343
@<TRIPOS>BOND
     1    1    2 1
     2    1   19 1
     3    1   20 1
     4    1   21 1
     5    2    3 1
     6    2   22 1
     7    2   23 1
     8    3    4 1
     9    3   24 1
    10    3   25 1
    11    4   10 am
    12    4    5 1
    13    5   18 1
    14    5    6 2
    15    6    7 1
    16    6   15 1
    17    7    8 2
    18    7    9 am
    19    9   10 am
    20    9   12 1
    21   10   11 2
    22   12   13 1
    23   12   26 1
    24   12   27 1
    25   13   14 1
    26   13   28 1
    27   13   29 1
    28   14   30 1
    29   14   31 1
    30   14   32 1
    31   15   16 1
    32   15   17 1
    33   17   18 2
    34   17   33 1
@<TRIPOS>MOLECULE
ZINC03995438
   43    45     0     0     0
SMALL
USER_CHARGES

@<TRIPOS>ATOM
      1 C1         -0.0187    1.5258    0.0104 C.3       1 <0>        -0.1472
      2 C2          0.0021   -0.0041    0.0020 C.3       1 <0>        -0.1385
      3 C3         -1.4333   -0.5336    0.0129 C.3       1 <0>         0.1187
      4 N1         -1.4134   -1.9985    0.0048 N.am      1 <0>        -0.5081
      5 C4         -1.3926   -2.6970    1.2023 C.2       1 <0>         0.3288
      6 C5         -1.3740   -4.0877    1.1665 C.2       1 <0>        -0.1455
      7 C6         -1.3765   -4.7432   -0.0830 C.2       1 <0>         0.5937
      8 O1         -1.3609   -5.9599   -0.1403 O.2       1 <0>        -0.5103
      9 N2         -1.3969   -4.0072   -1.2136 N.am      1 <0>        -0.5482
     10 C7         -1.4210   -2.6642   -1.1652 C.2       1 <0>         0.7077
     11 O2         -1.4444   -2.0343   -2.2051 O.2       1 <0>        -0.5279
     12 C8         -1.3996   -4.6823   -2.5137 C.3       1 <0>         0.1137
     13 C9         -2.8428   -4.9369   -2.9532 C.3       1 <0>        -0.1381
     14 C10        -2.8456   -5.6420   -4.3111 C.3       1 <0>        -0.1473
     15 N3         -1.3558   -4.5129    2.4806 N.pl3     1 <0>        -0.5143
     16 C11        -1.3636   -3.3942    3.2564 C.2       1 <0>         0.3419
     17 N4         -1.3855   -2.3272    2.4824 N.2       1 <0>        -0.4816
     18 H1         -1.3408   -5.4318    2.7909 H         1 <0>         0.4365
     19 C12        -1.3506   -3.3783    4.7345 C.ar      1 <0>        -0.0386
     20 C13        -1.3225   -4.5776    5.4481 C.ar      1 <0>        -0.0983
     21 C14        -1.3099   -4.5557    6.8275 C.ar      1 <0>        -0.1167
     22 C15        -1.3257   -3.3486    7.5035 C.ar      1 <0>        -0.0959
     23 C16        -1.3536   -2.1562    6.8021 C.ar      1 <0>        -0.1189
     24 C17        -1.3605   -2.1639    5.4226 C.ar      1 <0>        -0.0636
     25 H2          1.0039    1.9031    0.0027 H         1 <0>         0.0609
     26 H3         -0.5459    1.8868   -0.8726 H         1 <0>         0.0590
     27 H4         -0.5289    1.8773    0.9072 H         1 <0>         0.0589
     28 H5          0.5123   -0.3556   -0.8948 H         1 <0>         0.0682
     29 H6          0.5293   -0.3651    0.8851 H         1 <0>         0.0680
     30 H7         -1.9435   -0.1821    0.9097 H         1 <0>         0.0988
     31 H8         -1.9605   -0.1726   -0.8702 H         1 <0>         0.1010
     32 H9         -0.9010   -4.0530   -3.2509 H         1 <0>         0.1037
     33 H10        -0.8720   -5.6325   -2.4309 H         1 <0>         0.1018
     34 H11        -3.3414   -5.5663   -2.2160 H         1 <0>         0.0672
     35 H12        -3.3704   -3.9867   -3.0361 H         1 <0>         0.0695
     36 H13        -3.8738   -5.8234   -4.6241 H         1 <0>         0.0616
     37 H14        -2.3470   -5.0126   -5.0482 H         1 <0>         0.0599
     38 H15        -2.3180   -6.5922   -4.2282 H         1 <0>         0.0589
     39 H16        -1.3109   -5.5205    4.9217 H         1 <0>         0.1224
     40 H17        -1.2882   -5.4829    7.3809 H         1 <0>         0.1324
     41 H18        -1.3165   -3.3370    8.5834 H         1 <0>         0.1304
     42 H19        -1.3657   -1.2174    7.3358 H         1 <0>         0.1340
     43 H20        -1.3782   -1.2324    4.8763 H         1 <0>         0.1414
@<TRIPOS>BOND
     1    1    2 1
     2    1   25 1
     3    1   26 1
     4    1   27 1
     5    2    3 1
     6    2   28 1
     7    2   29 1
     8    3   30 1
     9    3   31 1
    10    3    4 1
    11    4    5 1
    12    4   10 am
    13    5   17 1
    14    5    6 2
    15    6    7 1
    16    6   15 1
    17    7    9 am
    18    7    8 2
    19    9   10 am
    20    9   12 1
    21   10   11 2
    22   12   13 1
    23   12   32 1
    24   12   33 1
    25   13   14 1
    26   13   34 1
    27   13   35 1
    28   14   36 1
    29   14   37 1
    30   14   38 1
    31   15   18 1
    32   15   16 1
    33   16   19 1
    34   16   17 2
    35   19   24 ar
    36   19   20 ar
    37   20   21 ar
    38   20   39 1
    39   21   22 ar
    40   21   40 1
    41   22   23 ar
    42   22   41 1
    43   23   24 ar
    44   23   42 1
    45   24   43 1
@<TRIPOS>MOLECULE
ZINC03872013
   28    31     0     0     0
SMALL
USER_CHARGES

@<TRIPOS>ATOM
      1 C1         -0.0162    1.3433    0.0094 C.2       1 <0>        -0.2195
      2 C2          1.3252    1.7744   -0.0011 C.2       1 <0>        -0.1351
      3 C3          2.0962    0.6548   -0.0144 C.2       1 <0>         0.0399
      4 O1          1.2797   -0.4166   -0.0124 O.3       1 <0>        -0.1525
      5 C4          0.0021   -0.0041    0.0020 C.2       1 <0>        -0.0023
      6 C5          3.5737    0.6193   -0.0292 C.2       1 <0>         0.3445
      7 N1          4.3226   -0.4905   -0.0476 N.2       1 <0>        -0.5018
      8 C6          5.5962   -0.1641   -0.0567 C.2       1 <0>         0.3614
      9 C7          6.8502   -0.9263   -0.0770 C.ar      1 <0>        -0.1117
     10 C8          6.8690   -2.3192   -0.0918 C.ar      1 <0>        -0.0298
     11 C9          8.0788   -2.9807   -0.1111 C.ar      1 <0>        -0.0604
     12 C10         9.2722   -2.2687   -0.1153 C.ar      1 <0>        -0.0566
     13 C11         9.2751   -0.9026   -0.1006 C.ar      1 <0>        -0.1000
     14 C12         8.0651   -0.2038   -0.0819 C.ar      1 <0>         0.1923
     15 N2          8.0311    1.1508   -0.0678 N.2       1 <0>        -0.5514
     16 C13         6.9051    1.8155   -0.0498 C.2       1 <0>         0.6594
     17 N3          5.6826    1.2027   -0.0438 N.pl3     1 <0>        -0.3685
     18 N4          4.3637    1.6764   -0.0320 N.2       1 <0>        -0.2877
     19 N5          6.9524    3.1898   -0.0360 N.pl3     1 <0>        -0.8086
     20 Cl1         8.1113   -4.7163   -0.1296 Cl        1 <0>        -0.0542
     21 H1         -0.8931    1.9736    0.0252 H         1 <0>         0.1603
     22 H2          1.6736    2.7966    0.0008 H         1 <0>         0.1603
     23 H3         -0.8667   -0.6456    0.0074 H         1 <0>         0.2151
     24 H4          5.9438   -2.8764   -0.0879 H         1 <0>         0.1517
     25 H5         10.2107   -2.8029   -0.1301 H         1 <0>         0.1482
     26 H6         10.2110   -0.3636   -0.1038 H         1 <0>         0.1535
     27 H7          7.8086    3.6457   -0.0396 H         1 <0>         0.4305
     28 H8          6.1295    3.7032   -0.0225 H         1 <0>         0.4230
@<TRIPOS>BOND
     1    1    5 2
     2    1    2 1
     3    1   21 1
     4    2    3 2
     5    2   22 1
     6    3    4 1
     7    3    6 1
     8    4    5 1
     9    5   23 1
    10    6   18 2
    11    6    7 1
    12    7    8 2
    13    8   17 1
    14    8    9 1
    15    9   14 ar
    16    9   10 ar
    17   10   11 ar
    18   10   24 1
    19   11   12 ar
    20   11   20 1
    21   12   13 ar
    22   12   25 1
    23   13   14 ar
    24   13   26 1
    25   14   15 1
    26   15   16 2
    27   16   17 1
    28   16   19 1
    29   17   18 1
    30   19   27 1
    31   19   28 1
@<TRIPOS>MOLECULE
ZINC03814313
   34    36     0     0     0
SMALL
USER_CHARGES

@<TRIPOS>ATOM
      1 C1         -0.0168    1.3861    0.0097 C.ar      1 <0>        -0.2443
      2 C2          1.1782    2.0824    0.0020 C.ar      1 <0>         0.2226
      3 N1          2.3382    1.4569   -0.0129 N.ar      1 <0>        -0.4888
      4 C3          2.4172    0.1336   -0.0208 C.ar      1 <0>         0.2727
      5 C4          1.2518   -0.6475   -0.0134 C.ar      1 <0>        -0.0190
      6 C5          0.0021   -0.0041    0.0020 C.ar      1 <0>         0.3894
      7 N2         -1.1804   -0.7364    0.0098 N.pl3     1 <0>        -0.7887
      8 N3          1.6393   -1.9475   -0.0242 N.2       1 <0>        -0.4459
      9 C6          2.9384   -2.0127   -0.0374 C.2       1 <0>         0.3051
     10 N4          3.4679   -0.7577   -0.0360 N.pl3     1 <0>        -0.4678
     11 C7          4.8929   -0.4179   -0.0487 C.3       1 <0>         0.2942
     12 H1          5.0627    0.4803   -0.6424 H         1 <0>         0.1255
     13 C8          5.4104   -0.2158    1.3927 C.3       1 <0>         0.0729
     14 H2          4.7848   -0.7569    2.1025 H         1 <0>         0.0952
     15 C9          6.8368   -0.8092    1.3661 C.3       1 <0>         0.0502
     16 H3          6.9163   -1.6437    2.0628 H         1 <0>         0.0952
     17 C10         7.0122   -1.2997   -0.0882 C.3       1 <0>         0.0495
     18 H4          7.5089   -0.5374   -0.6884 H         1 <0>         0.1065
     19 O1          5.6677   -1.5194   -0.5705 O.3       1 <0>        -0.3359
     20 C11         7.8117   -2.6039   -0.1177 C.3       1 <0>         0.0798
     21 O2          8.0625   -2.9783   -1.4737 O.3       1 <0>        -0.5648
     22 O3          7.8032    0.1960    1.6784 O.3       1 <0>        -0.5394
     23 O4          5.4496    1.1746    1.7202 O.3       1 <0>        -0.5452
     24 H5         -0.9567    1.9179    0.0260 H         1 <0>         0.1890
     25 H6          1.1605    3.1623    0.0080 H         1 <0>         0.2169
     26 H7         -2.0350   -0.2775    0.0208 H         1 <0>         0.4265
     27 H8         -1.1505   -1.7059    0.0043 H         1 <0>         0.4297
     28 H9          3.5127   -2.9273   -0.0481 H         1 <0>         0.2433
     29 H10         8.7596   -2.4607    0.4010 H         1 <0>         0.0733
     30 H11         7.2420   -3.3905    0.3770 H         1 <0>         0.0636
     31 H12         8.5663   -3.7982   -1.5686 H         1 <0>         0.3935
     32 H13         8.7164   -0.1220    1.6760 H         1 <0>         0.3967
     33 H14         5.7674    1.3592    2.6147 H         1 <0>         0.4072
     34 H15         3.1559    1.9787   -0.0185 H         1 <0>         0.4414
@<TRIPOS>BOND
     1    1    6 ar
     2    1    2 ar
     3    1   24 1
     4    2    3 ar
     5    2   25 1
     6    3    4 ar
     7    3   34 1
     8    4   10 1
     9    4    5 ar
    10    5    6 ar
    11    5    8 1
    12    6    7 1
    13    7   26 1
    14    7   27 1
    15    8    9 2
    16    9   10 1
    17    9   28 1
    18   10   11 1
    19   11   12 1
    20   11   19 1
    21   11   13 1
    22   13   14 1
    23   13   15 1
    24   13   23 1
    25   15   16 1
    26   15   17 1
    27   15   22 1
    28   17   18 1
    29   17   19 1
    30   17   20 1
    31   20   21 1
    32   20   29 1
    33   20   30 1
    34   21   31 1
    35   22   32 1
    36   23   33 1
@<TRIPOS>MOLECULE
ZINC03814313
   33    35     0     0     0
SMALL
USER_CHARGES

@<TRIPOS>ATOM
      1 C1         -0.0168    1.3861    0.0097 C.ar      1 <0>        -0.2828
      2 C2          1.1782    2.0824    0.0020 C.ar      1 <0>         0.1858
      3 N1          2.3382    1.4569   -0.0129 N.ar      1 <0>        -0.5191
      4 C3          2.4172    0.1336   -0.0208 C.ar      1 <0>         0.2915
      5 C4          1.2518   -0.6475   -0.0134 C.ar      1 <0>        -0.0681
      6 C5          0.0021   -0.0041    0.0020 C.ar      1 <0>         0.3135
      7 N2         -1.1804   -0.7364    0.0098 N.pl3     1 <0>        -0.8493
      8 N3          1.6393   -1.9475   -0.0242 N.2       1 <0>        -0.4750
      9 C6          2.9384   -2.0127   -0.0374 C.2       1 <0>         0.2645
     10 N4          3.4679   -0.7577   -0.0360 N.pl3     1 <0>        -0.4800
     11 C7          4.8929   -0.4179   -0.0487 C.3       1 <0>         0.3160
     12 H1          5.0627    0.4803   -0.6424 H         1 <0>         0.1211
     13 C8          5.4104   -0.2158    1.3927 C.3       1 <0>         0.0798
     14 H2          4.7848   -0.7569    2.1025 H         1 <0>         0.0847
     15 C9          6.8368   -0.8092    1.3661 C.3       1 <0>         0.0468
     16 H3          6.9163   -1.6437    2.0628 H         1 <0>         0.0862
     17 C10         7.0122   -1.2997   -0.0882 C.3       1 <0>         0.0504
     18 H4          7.5089   -0.5374   -0.6884 H         1 <0>         0.0994
     19 O1          5.6677   -1.5194   -0.5705 O.3       1 <0>        -0.3480
     20 C11         7.8117   -2.6039   -0.1177 C.3       1 <0>         0.0821
     21 O2          8.0625   -2.9783   -1.4737 O.3       1 <0>        -0.5634
     22 O3          7.8032    0.1960    1.6784 O.3       1 <0>        -0.5390
     23 O4          5.4496    1.1746    1.7202 O.3       1 <0>        -0.5251
     24 H5         -0.9567    1.9179    0.0260 H         1 <0>         0.1407
     25 H6          1.1605    3.1623    0.0080 H         1 <0>         0.1653
     26 H7         -2.0350   -0.2775    0.0208 H         1 <0>         0.4044
     27 H8         -1.1505   -1.7059    0.0043 H         1 <0>         0.4091
     28 H9          3.5127   -2.9273   -0.0481 H         1 <0>         0.2186
     29 H10         8.7596   -2.4607    0.4010 H         1 <0>         0.0665
     30 H11         7.2420   -3.3905    0.3770 H         1 <0>         0.0607
     31 H12         8.5663   -3.7982   -1.5686 H         1 <0>         0.3864
     32 H13         8.7164   -0.1220    1.6760 H         1 <0>         0.3867
     33 H14         5.7674    1.3592    2.6147 H         1 <0>         0.3895
@<TRIPOS>BOND
     1    1    6 ar
     2    1    2 ar
     3    1   24 1
     4    2    3 ar
     5    2   25 1
     6    3    4 ar
     7    4   10 1
     8    4    5 ar
     9    5    6 ar
    10    5    8 1
    11    6    7 1
    12    7   26 1
    13    7   27 1
    14    8    9 2
    15    9   10 1
    16    9   28 1
    17   10   11 1
    18   11   12 1
    19   11   19 1
    20   11   13 1
    21   13   14 1
    22   13   15 1
    23   13   23 1
    24   15   16 1
    25   15   17 1
    26   15   22 1
    27   17   18 1
    28   17   19 1
    29   17   20 1
    30   20   21 1
    31   20   29 1
    32   20   30 1
    33   21   31 1
    34   22   32 1
    35   23   33 1
@<TRIPOS>MOLECULE
ZINC03777854
   58    60     0     0     0
SMALL
USER_CHARGES
8-[2-(3,4-dimethoxyphenyl)vinyl]-7-methyl-1,3-dipropyl-purine-2,6-dione
@<TRIPOS>ATOM
      1 C1          4.8978    4.2719   -1.4656 C.3       1 <0>        -0.1469
      2 C2          3.4469    3.7865   -1.4538 C.3       1 <0>        -0.1382
      3 C3          2.9776    3.6168   -0.0075 C.3       1 <0>         0.1198
      4 N1          1.5884    3.1520    0.0038 N.am      1 <0>        -0.5087
      5 C4          1.3129    1.7928   -0.0008 C.2       1 <0>         0.3262
      6 C5         -0.0167    1.3786    0.0096 C.2       1 <0>        -0.1515
      7 C6         -1.0384    2.3497    0.0297 C.2       1 <0>         0.5946
      8 O1         -2.2089    2.0120    0.0441 O.2       1 <0>        -0.5131
      9 N2         -0.7059    3.6571    0.0284 N.am      1 <0>        -0.5492
     10 C7          0.5810    4.0447    0.0182 C.2       1 <0>         0.7076
     11 O2          0.8420    5.2324    0.0225 O.2       1 <0>        -0.5306
     12 C8         -1.7640    4.6703    0.0445 C.3       1 <0>         0.1142
     13 C9         -2.1463    5.0312   -1.3923 C.3       1 <0>        -0.1372
     14 C10        -3.2513    6.0893   -1.3756 C.3       1 <0>        -0.1472
     15 N3          0.0021   -0.0041    0.0020 N.pl3     1 <0>        -0.4096
     16 C11         1.3152   -0.3793   -0.0125 C.2       1 <0>         0.3257
     17 N4          2.0762    0.7027   -0.0140 N.2       1 <0>        -0.4894
     18 C12         1.8030   -1.7597   -0.0242 C.2       1 <0>        -0.1249
     19 C13         3.1286   -2.0062   -0.0382 C.2       1 <0>        -0.0161
     20 C14         3.6188   -3.3932   -0.0499 C.ar      1 <0>        -0.0744
     21 C15         2.7114   -4.4579   -0.0464 C.ar      1 <0>        -0.0952
     22 C16         3.1732   -5.7562   -0.0574 C.ar      1 <0>        -0.1761
     23 C17         4.5376   -6.0112   -0.0722 C.ar      1 <0>         0.1147
     24 C18         5.4480   -4.9557   -0.0762 C.ar      1 <0>         0.0988
     25 C19         4.9936   -3.6511   -0.0702 C.ar      1 <0>        -0.1474
     26 O3          6.7838   -5.2103   -0.0907 O.3       1 <0>        -0.3052
     27 C20         7.6594   -4.0810   -0.0940 C.3       1 <0>         0.0239
     28 O4          4.9870   -7.2935   -0.0834 O.3       1 <0>        -0.3033
     29 C21         4.0000   -8.3270   -0.0790 C.3       1 <0>         0.0240
     30 C22        -1.1615   -0.8942    0.0083 C.3       1 <0>         0.0695
     31 H1          4.9651    5.2284   -0.9471 H         1 <0>         0.0589
     32 H2          5.5298    3.5404   -0.9619 H         1 <0>         0.0585
     33 H3          5.2322    4.3928   -2.4959 H         1 <0>         0.0605
     34 H4          3.3796    2.8300   -1.9722 H         1 <0>         0.0676
     35 H5          2.8149    4.5179   -1.9574 H         1 <0>         0.0677
     36 H6          3.0449    4.5732    0.5109 H         1 <0>         0.0999
     37 H7          3.6096    2.8853    0.4962 H         1 <0>         0.0980
     38 H8         -2.6369    4.2757    0.5645 H         1 <0>         0.1011
     39 H9         -1.4060    5.5614    0.5600 H         1 <0>         0.1028
     40 H10        -1.2733    5.4258   -1.9124 H         1 <0>         0.0689
     41 H11        -2.5043    4.1401   -1.9079 H         1 <0>         0.0668
     42 H12        -4.1242    5.6948   -0.8555 H         1 <0>         0.0588
     43 H13        -2.8933    6.9805   -0.8601 H         1 <0>         0.0598
     44 H14        -3.5237    6.3465   -2.3992 H         1 <0>         0.0613
     45 H15         1.1011   -2.5805   -0.0215 H         1 <0>         0.1415
     46 H16         3.8305   -1.1854   -0.0408 H         1 <0>         0.1396
     47 H17         1.6493   -4.2624   -0.0356 H         1 <0>         0.1317
     48 H18         2.4718   -6.5774   -0.0547 H         1 <0>         0.1399
     49 H19         5.6980   -2.8325   -0.0774 H         1 <0>         0.1422
     50 H20         7.4672   -3.4747   -0.9791 H         1 <0>         0.0568
     51 H21         7.4849   -3.4834    0.8007 H         1 <0>         0.0569
     52 H22         8.6941   -4.4236   -0.1060 H         1 <0>         0.1028
     53 H23         4.4922   -9.2995   -0.0890 H         1 <0>         0.1031
     54 H24         3.3863   -8.2395    0.8176 H         1 <0>         0.0571
     55 H25         3.3687   -8.2302   -0.9623 H         1 <0>         0.0571
     56 H26        -1.4599   -1.1094   -1.0177 H         1 <0>         0.0878
     57 H27        -0.9044   -1.8246    0.5148 H         1 <0>         0.0956
     58 H28        -1.9858   -0.4109    0.5327 H         1 <0>         0.1025
@<TRIPOS>BOND
     1    1    2 1
     2    1   31 1
     3    1   32 1
     4    1   33 1
     5    2    3 1
     6    2   34 1
     7    2   35 1
     8    3    4 1
     9    3   36 1
    10    3   37 1
    11    4   10 am
    12    4    5 1
    13    5   17 1
    14    5    6 2
    15    6    7 1
    16    6   15 1
    17    7    8 2
    18    7    9 am
    19    9   10 am
    20    9   12 1
    21   10   11 2
    22   12   13 1
    23   12   38 1
    24   12   39 1
    25   13   14 1
    26   13   40 1
    27   13   41 1
    28   14   42 1
    29   14   43 1
    30   14   44 1
    31   15   16 1
    32   15   30 1
    33   16   17 2
    34   16   18 1
    35   18   19 2
    36   18   45 1
    37   19   20 1
    38   19   46 1
    39   20   25 ar
    40   20   21 ar
    41   21   22 ar
    42   21   47 1
    43   22   23 ar
    44   22   48 1
    45   23   24 ar
    46   23   28 1
    47   24   25 ar
    48   24   26 1
    49   25   49 1
    50   26   27 1
    51   27   50 1
    52   27   51 1
    53   27   52 1
    54   28   29 1
    55   29   53 1
    56   29   54 1
    57   29   55 1
    58   30   56 1
    59   30   57 1
    60   30   58 1
@<TRIPOS>MOLECULE
ZINC03777854
   59    61     0     0     0
SMALL
USER_CHARGES
8-[2-(3,4-dimethoxyphenyl)vinyl]-7-methyl-1,3-dipropyl-purine-2,6-dione
@<TRIPOS>ATOM
      1 C1          4.8978    4.2719   -1.4656 C.3       1 <0>        -0.1533
      2 C2          3.4469    3.7865   -1.4538 C.3       1 <0>        -0.1443
      3 C3          2.9776    3.6168   -0.0075 C.3       1 <0>         0.0964
      4 N1          1.5884    3.1520    0.0038 N.am      1 <0>        -0.5120
      5 C4          1.3129    1.7928   -0.0008 C.2       1 <0>         0.3546
      6 C5         -0.0167    1.3786    0.0096 C.2       1 <0>        -0.0804
      7 C6         -1.0384    2.3497    0.0297 C.2       1 <0>         0.5901
      8 O1         -2.2089    2.0120    0.0441 O.2       1 <0>        -0.4679
      9 N2         -0.7059    3.6571    0.0284 N.am      1 <0>        -0.5401
     10 C7          0.5810    4.0447    0.0182 C.2       1 <0>         0.7084
     11 O2          0.8420    5.2324    0.0225 O.2       1 <0>        -0.4838
     12 C8         -1.7640    4.6703    0.0445 C.3       1 <0>         0.1075
     13 C9         -2.1463    5.0312   -1.3923 C.3       1 <0>        -0.1377
     14 C10        -3.2513    6.0893   -1.3756 C.3       1 <0>        -0.1509
     15 N3          0.0021   -0.0041    0.0020 N.pl3     1 <0>        -0.3572
     16 C11         1.3152   -0.3793   -0.0125 C.cat     1 <0>         0.4130
     17 C12         1.8030   -1.7597   -0.0242 C.2       1 <0>        -0.1952
     18 C13         3.1286   -2.0062   -0.0382 C.2       1 <0>         0.0501
     19 C14         3.6188   -3.3932   -0.0499 C.ar      1 <0>        -0.1173
     20 C15         2.7114   -4.4579   -0.0464 C.ar      1 <0>        -0.0677
     21 C16         3.1732   -5.7562   -0.0574 C.ar      1 <0>        -0.1844
     22 C17         4.5376   -6.0112   -0.0722 C.ar      1 <0>         0.1495
     23 C18         5.4480   -4.9557   -0.0762 C.ar      1 <0>         0.0982
     24 C19         4.9936   -3.6511   -0.0702 C.ar      1 <0>        -0.1343
     25 O3          6.7838   -5.2103   -0.0907 O.3       1 <0>        -0.2990
     26 C20         7.6594   -4.0810   -0.0940 C.3       1 <0>         0.0226
     27 O4          4.9870   -7.2935   -0.0834 O.3       1 <0>        -0.2946
     28 C21         4.0000   -8.3270   -0.0790 C.3       1 <0>         0.0196
     29 C22        -1.1615   -0.8942    0.0083 C.3       1 <0>         0.0544
     30 H1          4.9651    5.2284   -0.9471 H         1 <0>         0.0682
     31 H2          5.5298    3.5404   -0.9619 H         1 <0>         0.0598
     32 H3          5.2322    4.3928   -2.4959 H         1 <0>         0.0715
     33 H4          3.3796    2.8300   -1.9722 H         1 <0>         0.0637
     34 H5          2.8149    4.5179   -1.9574 H         1 <0>         0.0832
     35 H6          3.0449    4.5732    0.5109 H         1 <0>         0.1273
     36 H7          3.6096    2.8853    0.4962 H         1 <0>         0.0950
     37 H8         -2.6369    4.2757    0.5645 H         1 <0>         0.1119
     38 H9         -1.4060    5.5614    0.5600 H         1 <0>         0.1126
     39 H10        -1.2733    5.4258   -1.9124 H         1 <0>         0.0707
     40 H11        -2.5043    4.1401   -1.9079 H         1 <0>         0.0693
     41 H12        -4.1242    5.6948   -0.8555 H         1 <0>         0.0624
     42 H13        -2.8933    6.9805   -0.8601 H         1 <0>         0.0630
     43 H14        -3.5237    6.3465   -2.3992 H         1 <0>         0.0670
     44 H15         1.1011   -2.5805   -0.0215 H         1 <0>         0.1768
     45 H16         3.8305   -1.1854   -0.0408 H         1 <0>         0.1285
     46 H17         1.6493   -4.2624   -0.0356 H         1 <0>         0.1364
     47 H18         2.4718   -6.5774   -0.0547 H         1 <0>         0.1488
     48 H19         5.6980   -2.8325   -0.0774 H         1 <0>         0.1450
     49 H20         7.4672   -3.4747   -0.9791 H         1 <0>         0.0576
     50 H21         7.4849   -3.4834    0.8007 H         1 <0>         0.0576
     51 H22         8.6941   -4.4236   -0.1060 H         1 <0>         0.1091
     52 H23         4.4922   -9.2995   -0.0890 H         1 <0>         0.1109
     53 H24         3.3863   -8.2395    0.8176 H         1 <0>         0.0624
     54 H25         3.3687   -8.2302   -0.9623 H         1 <0>         0.0624
     55 H26        -1.4599   -1.1094   -1.0177 H         1 <0>         0.1182
     56 H27        -0.9044   -1.8246    0.5148 H         1 <0>         0.1204
     57 H28        -1.9858   -0.4109    0.5327 H         1 <0>         0.1282
     58 N4          2.0788    0.7027   -0.0140 N.pl3     1 <0>        -0.5084
     59 H29         3.1055    0.7016   -0.0239 H         1 <0>         0.4765
@<TRIPOS>BOND
     1    1    2 1
     2    1   30 1
     3    1   31 1
     4    1   32 1
     5    2    3 1
     6    2   33 1
     7    2   34 1
     8    3    4 1
     9    3   35 1
    10    3   36 1
    11    4   10 am
    12    4    5 1
    13    5    6 2
    14    5   58 1
    15    6    7 1
    16    6   15 1
    17    7    8 2
    18    7    9 am
    19    9   10 am
    20    9   12 1
    21   10   11 2
    22   12   13 1
    23   12   37 1
    24   12   38 1
    25   13   14 1
    26   13   39 1
    27   13   40 1
    28   14   41 1
    29   14   42 1
    30   14   43 1
    31   15   16 1
    32   15   29 1
    33   16   17 1
    34   16   58 2
    35   17   18 2
    36   17   44 1
    37   18   19 1
    38   18   45 1
    39   19   24 ar
    40   19   20 ar
    41   20   21 ar
    42   20   46 1
    43   21   22 ar
    44   21   47 1
    45   22   23 ar
    46   22   27 1
    47   23   24 ar
    48   23   25 1
    49   24   48 1
    50   25   26 1
    51   26   49 1
    52   26   50 1
    53   26   51 1
    54   27   28 1
    55   28   52 1
    56   28   53 1
    57   28   54 1
    58   29   55 1
    59   29   56 1
    60   29   57 1
    61   58   59 1
@<TRIPOS>MOLECULE
ZINC03977757
   46    48     0     0     0
SMALL
USER_CHARGES

@<TRIPOS>ATOM
      1 C1         -0.0187    1.5258    0.0104 C.3       1 <0>        -0.1472
      2 C2          0.0021   -0.0041    0.0020 C.3       1 <0>        -0.1381
      3 C3          0.7182   -0.4975   -1.2568 C.3       1 <0>         0.1189
      4 N1          0.7381   -1.9623   -1.2648 N.am      1 <0>        -0.5078
      5 C4         -0.2978   -2.6649   -1.8590 C.2       1 <0>         0.3255
      6 C5         -0.2556   -4.0535   -1.8540 C.2       1 <0>        -0.1555
      7 C6          0.8381   -4.7062   -1.2456 C.2       1 <0>         0.5940
      8 O1          0.8979   -5.9226   -1.2287 O.2       1 <0>        -0.5124
      9 N2          1.8167   -3.9668   -0.6832 N.am      1 <0>        -0.5486
     10 C7          1.7657   -2.6237   -0.6997 C.2       1 <0>         0.7072
     11 O2          2.6683   -1.9900   -0.1875 O.2       1 <0>        -0.5292
     12 C8          2.9547   -4.6379   -0.0500 C.3       1 <0>         0.1138
     13 C9          4.0598   -4.8545   -1.0857 C.3       1 <0>        -0.1378
     14 C10         5.2482   -5.5554   -0.4244 C.3       1 <0>        -0.1473
     15 N3         -1.3974   -4.4770   -2.5042 N.pl3     1 <0>        -0.5132
     16 C11        -2.0744   -3.3715   -2.8713 C.2       1 <0>         0.3078
     17 N4         -1.4199   -2.3052   -2.4875 N.2       1 <0>        -0.4912
     18 H1         -1.6621   -5.3960   -2.6660 H         1 <0>         0.4346
     19 C12        -3.3868   -3.3639   -3.6120 C.3       1 <0>        -0.0167
     20 C13        -4.2245   -4.5971   -3.2154 C.3       1 <0>        -0.1246
     21 C14        -4.9262   -5.0185   -4.5304 C.3       1 <0>        -0.1243
     22 C15        -3.8330   -4.7644   -5.5978 C.3       1 <0>        -0.1288
     23 C16        -3.1379   -3.4703   -5.1267 C.3       1 <0>        -0.1169
     24 H2          1.0039    1.9031    0.0027 H         1 <0>         0.0589
     25 H3         -0.5459    1.8868   -0.8726 H         1 <0>         0.0589
     26 H4         -0.5289    1.8773    0.9072 H         1 <0>         0.0608
     27 H5          0.5293   -0.3651    0.8851 H         1 <0>         0.0678
     28 H6         -1.0205   -0.3814    0.0098 H         1 <0>         0.0678
     29 H7          0.1910   -0.1364   -2.1398 H         1 <0>         0.0985
     30 H8          1.7408   -0.1202   -1.2645 H         1 <0>         0.1003
     31 H9          3.3348   -4.0193    0.7630 H         1 <0>         0.1032
     32 H10         2.6339   -5.6014    0.3460 H         1 <0>         0.1014
     33 H11         3.6796   -5.4731   -1.8987 H         1 <0>         0.0670
     34 H12         4.3806   -3.8910   -1.4817 H         1 <0>         0.0693
     35 H13         6.0355   -5.7097   -1.1623 H         1 <0>         0.0615
     36 H14         5.6284   -4.9368    0.3886 H         1 <0>         0.0599
     37 H15         4.9274   -6.5189   -0.0284 H         1 <0>         0.0589
     38 H16        -3.9368   -2.4501   -3.3872 H         1 <0>         0.1178
     39 H17        -3.5783   -5.3972   -2.8545 H         1 <0>         0.0623
     40 H18        -4.9618   -4.3300   -2.4582 H         1 <0>         0.0823
     41 H19        -5.2000   -6.0732   -4.5013 H         1 <0>         0.0738
     42 H20        -5.8012   -4.3962   -4.7179 H         1 <0>         0.0762
     43 H21        -3.1235   -5.5916   -5.6216 H         1 <0>         0.0665
     44 H22        -4.2844   -4.6194   -6.5792 H         1 <0>         0.0743
     45 H23        -3.5678   -2.6085   -5.6372 H         1 <0>         0.0823
     46 H24        -2.0678   -3.5274   -5.3261 H         1 <0>         0.0684
@<TRIPOS>BOND
     1    1    2 1
     2    1   24 1
     3    1   25 1
     4    1   26 1
     5    2    3 1
     6    2   27 1
     7    2   28 1
     8    3   29 1
     9    3   30 1
    10    3    4 1
    11    4    5 1
    12    4   10 am
    13    5   17 1
    14    5    6 2
    15    6    7 1
    16    6   15 1
    17    7    9 am
    18    7    8 2
    19    9   10 am
    20    9   12 1
    21   10   11 2
    22   12   13 1
    23   12   31 1
    24   12   32 1
    25   13   14 1
    26   13   33 1
    27   13   34 1
    28   14   35 1
    29   14   36 1
    30   14   37 1
    31   15   18 1
    32   15   16 1
    33   16   19 1
    34   16   17 2
    35   19   23 1
    36   19   20 1
    37   19   38 1
    38   20   21 1
    39   20   39 1
    40   20   40 1
    41   21   22 1
    42   21   41 1
    43   21   42 1
    44   22   23 1
    45   22   43 1
    46   22   44 1
    47   23   45 1
    48   23   46 1
@<TRIPOS>MOLECULE
ZINC18043251
   21    22     0     0     0
SMALL
USER_CHARGES

@<TRIPOS>ATOM
      1 C1         -0.0178    1.4608    0.0101 C.3       1 <0>         0.0852
      2 N1          0.0021   -0.0041    0.0020 N.am      1 <0>        -0.5114
      3 C2         -1.1889   -0.7120    0.0039 C.2       1 <0>         0.3216
      4 C3         -1.1437   -2.1005   -0.0039 C.2       1 <0>        -0.1538
      5 C4          0.1107   -2.7476   -0.0134 C.2       1 <0>         0.5936
      6 O1          0.1765   -3.9638   -0.0207 O.2       1 <0>        -0.5134
      7 N2          1.2361   -2.0032   -0.0148 N.am      1 <0>        -0.5513
      8 C5          1.1776   -0.6603   -0.0127 C.2       1 <0>         0.7076
      9 O2          2.2126   -0.0219   -0.0196 O.2       1 <0>        -0.5305
     10 C6          2.5413   -2.6685   -0.0246 C.3       1 <0>         0.0826
     11 N3         -2.4557   -2.5297    0.0001 N.pl3     1 <0>        -0.5179
     12 H1         -2.7618   -3.4502   -0.0030 H         1 <0>         0.4389
     13 C7         -3.2306   -1.4275    0.0098 C.2       1 <0>         0.2785
     14 N4         -2.4766   -0.3579    0.0120 N.2       1 <0>        -0.4991
     15 H2          1.0048    1.8381    0.0023 H         1 <0>         0.1033
     16 H3         -0.5450    1.8219   -0.8730 H         1 <0>         0.0800
     17 H4         -0.5280    1.8123    0.9069 H         1 <0>         0.0801
     18 H5          2.3982   -3.7491   -0.0298 H         1 <0>         0.1039
     19 H6          3.0941   -2.3709   -0.9157 H         1 <0>         0.0832
     20 H7          3.1026   -2.3806    0.8643 H         1 <0>         0.0832
     21 H8         -4.3106   -1.4268    0.0144 H         1 <0>         0.2358
@<TRIPOS>BOND
     1    1    2 1
     2    1   15 1
     3    1   16 1
     4    1   17 1
     5    2    8 am
     6    2    3 1
     7    3   14 1
     8    3    4 2
     9    4    5 1
    10    4   11 1
    11    5    6 2
    12    5    7 am
    13    7    8 am
    14    7   10 1
    15    8    9 2
    16   10   18 1
    17   10   19 1
    18   10   20 1
    19   11   12 1
    20   11   13 1
    21   13   14 2
    22   13   21 1
@<TRIPOS>MOLECULE
ZINC00000999
   27    28     0     0     0
SMALL
USER_CHARGES

@<TRIPOS>ATOM
      1 C1         -0.0178    1.4608    0.0101 C.3       1 <0>         0.0851
      2 N1          0.0021   -0.0041    0.0020 N.am      1 <0>        -0.5111
      3 C2         -1.1889   -0.7120    0.0039 C.2       1 <0>         0.3225
      4 C3         -1.1437   -2.1005   -0.0039 C.2       1 <0>        -0.1552
      5 C4          0.1107   -2.7476   -0.0134 C.2       1 <0>         0.5930
      6 O1          0.1765   -3.9638   -0.0207 O.2       1 <0>        -0.5095
      7 N2          1.2361   -2.0032   -0.0148 N.am      1 <0>        -0.5511
      8 C5          1.1776   -0.6603   -0.0127 C.2       1 <0>         0.7076
      9 O2          2.2126   -0.0219   -0.0196 O.2       1 <0>        -0.5311
     10 C6          2.5413   -2.6685   -0.0246 C.3       1 <0>         0.0833
     11 N3         -2.4557   -2.5297    0.0001 N.pl3     1 <0>        -0.4138
     12 C7         -3.2306   -1.4275    0.0098 C.2       1 <0>         0.2739
     13 N4         -2.4766   -0.3579    0.0120 N.2       1 <0>        -0.4942
     14 C8         -2.9179   -3.9199   -0.0060 C.3       1 <0>         0.0959
     15 C9         -2.9524   -4.4522    1.4280 C.3       1 <0>        -0.0526
     16 Cl1        -3.5211   -6.1631    1.4205 Cl        1 <0>        -0.1494
     17 H1          1.0048    1.8381    0.0023 H         1 <0>         0.1035
     18 H2         -0.5450    1.8219   -0.8730 H         1 <0>         0.0800
     19 H3         -0.5280    1.8123    0.9069 H         1 <0>         0.0801
     20 H4          2.8601   -2.8279   -1.0547 H         1 <0>         0.0773
     21 H5          3.2716   -2.0434    0.4891 H         1 <0>         0.0970
     22 H6          2.4632   -3.6292    0.4844 H         1 <0>         0.0957
     23 H7         -4.3106   -1.4268    0.0144 H         1 <0>         0.2331
     24 H8         -3.9185   -3.9683   -0.4356 H         1 <0>         0.1175
     25 H9         -2.2367   -4.5267   -0.6025 H         1 <0>         0.1172
     26 H10        -1.9518   -4.4038    1.8576 H         1 <0>         0.1027
     27 H11        -3.6336   -3.8454    2.0245 H         1 <0>         0.1024
@<TRIPOS>BOND
     1    1    2 1
     2    1   17 1
     3    1   18 1
     4    1   19 1
     5    2    8 am
     6    2    3 1
     7    3   13 1
     8    3    4 2
     9    4    5 1
    10    4   11 1
    11    5    6 2
    12    5    7 am
    13    7    8 am
    14    7   10 1
    15    8    9 2
    16   10   20 1
    17   10   21 1
    18   10   22 1
    19   11   12 1
    20   11   14 1
    21   12   13 2
    22   12   23 1
    23   14   15 1
    24   14   24 1
    25   14   25 1
    26   15   16 1
    27   15   26 1
    28   15   27 1
@<TRIPOS>MOLECULE
ZINC03809416
   38    40     0     0     0
SMALL
USER_CHARGES

@<TRIPOS>ATOM
      1 C1         -0.0178    1.4608    0.0101 C.3       1 <0>         0.0683
      2 N1          0.0021   -0.0041    0.0020 N.pl3     1 <0>        -0.4076
      3 C2          0.0086   -0.8126   -1.0981 C.2       1 <0>         0.3219
      4 N2          0.0273   -2.0762   -0.7086 N.2       1 <0>        -0.4878
      5 C3          0.0336   -2.1396    0.6207 C.2       1 <0>         0.3242
      6 C4          0.0238   -0.8345    1.1065 C.2       1 <0>        -0.1479
      7 C5          0.0334   -0.6204    2.5005 C.2       1 <0>         0.5944
      8 O1          0.0219    0.5119    2.9498 O.2       1 <0>        -0.5124
      9 N3          0.0551   -1.6834    3.3309 N.am      1 <0>        -0.5517
     10 C6          0.0676   -2.9383    2.8497 C.2       1 <0>         0.7075
     11 O2          0.0871   -3.8714    3.6292 O.2       1 <0>        -0.5312
     12 N4          0.0510   -3.1889    1.5272 N.am      1 <0>        -0.5112
     13 C7          0.0679   -4.5721    1.0446 C.3       1 <0>         0.0892
     14 C8          0.0656   -1.4666    4.7797 C.3       1 <0>         0.0837
     15 C9         -0.0040   -0.3532   -2.4893 C.2       1 <0>        -0.1128
     16 C10         0.0042   -1.2498   -3.4949 C.2       1 <0>        -0.0263
     17 C11        -0.0084   -0.7882   -4.8930 C.ar      1 <0>        -0.0596
     18 C12        -0.0231    0.5802   -5.1810 C.ar      1 <0>        -0.1011
     19 C13        -0.0350    1.0055   -6.4925 C.ar      1 <0>        -0.1060
     20 C14        -0.0323    0.0822   -7.5234 C.ar      1 <0>        -0.0999
     21 C15        -0.0182   -1.2748   -7.2469 C.ar      1 <0>        -0.0359
     22 C16         0.0001   -1.7155   -5.9389 C.ar      1 <0>        -0.0865
     23 Cl1        -0.0155   -2.4239   -8.5482 Cl        1 <0>        -0.0625
     24 H1          1.0048    1.8381    0.0023 H         1 <0>         0.0891
     25 H2         -0.5450    1.8219   -0.8730 H         1 <0>         0.0963
     26 H3         -0.5280    1.8123    0.9069 H         1 <0>         0.1035
     27 H4          1.0996   -4.9013    0.9212 H         1 <0>         0.0734
     28 H5         -0.4347   -5.2151    1.7672 H         1 <0>         0.0940
     29 H6         -0.4488   -4.6289    0.0865 H         1 <0>         0.0922
     30 H7         -0.9593   -1.4263    5.1485 H         1 <0>         0.0770
     31 H8          0.5948   -2.2861    5.2659 H         1 <0>         0.0969
     32 H9          0.5692   -0.5259    5.0026 H         1 <0>         0.0950
     33 H10        -0.0198    0.7042   -2.7087 H         1 <0>         0.1430
     34 H11         0.0201   -2.3072   -3.2755 H         1 <0>         0.1434
     35 H12        -0.0256    1.3023   -4.3778 H         1 <0>         0.1330
     36 H13        -0.0467    2.0621   -6.7159 H         1 <0>         0.1372
     37 H14        -0.0416    0.4216   -8.5487 H         1 <0>         0.1367
     38 H15         0.0163   -2.7738   -5.7242 H         1 <0>         0.1406
@<TRIPOS>BOND
     1    1    2 1
     2    1   24 1
     3    1   25 1
     4    1   26 1
     5    2    6 1
     6    2    3 1
     7    3    4 2
     8    3   15 1
     9    4    5 1
    10    5   12 1
    11    5    6 2
    12    6    7 1
    13    7    8 2
    14    7    9 am
    15    9   10 am
    16    9   14 1
    17   10   11 2
    18   10   12 am
    19   12   13 1
    20   13   27 1
    21   13   28 1
    22   13   29 1
    23   14   30 1
    24   14   31 1
    25   14   32 1
    26   15   16 2
    27   15   33 1
    28   16   17 1
    29   16   34 1
    30   17   22 ar
    31   17   18 ar
    32   18   19 ar
    33   18   35 1
    34   19   20 ar
    35   19   36 1
    36   20   21 ar
    37   20   37 1
    38   21   22 ar
    39   21   23 1
    40   22   38 1
@<TRIPOS>MOLECULE
ZINC00477239
   37    40     0     0     0
SMALL
USER_CHARGES

@<TRIPOS>ATOM
      1 C1         -0.0184    1.5028    0.0103 C.3       1 <0>        -0.0772
      2 C2          0.0021   -0.0041    0.0020 C.2       1 <0>         0.1912
      3 N1         -0.0839   -0.7743   -1.0552 N.2       1 <0>        -0.2667
      4 N2         -0.0337   -2.0126   -0.7058 N.2       1 <0>        -0.2378
      5 C3          0.0878   -2.0923    0.6020 C.2       1 <0>         0.1220
      6 N3          0.1179   -0.8047    1.0791 N.pl3     1 <0>        -0.3780
      7 C4          0.2461   -0.5912    2.4415 C.ar      1 <0>         0.0436
      8 C5          0.2761    0.6998    2.9533 C.ar      1 <0>        -0.1125
      9 C6          0.4040    0.9019    4.3114 C.ar      1 <0>        -0.1130
     10 C7          0.5031   -0.1784    5.1757 C.ar      1 <0>        -0.0934
     11 C8          0.4754   -1.4648    4.6891 C.ar      1 <0>        -0.0889
     12 C9          0.3460   -1.6893    3.3123 C.ar      1 <0>         0.1516
     13 N4          0.3179   -2.9597    2.8344 N.2       1 <0>        -0.5441
     14 C10         0.1908   -3.2046    1.5500 C.2       1 <0>         0.5071
     15 N5          0.1674   -4.5083    1.0927 N.pl3     1 <0>        -0.6758
     16 C11         0.2705   -5.6194    2.0420 C.3       1 <0>         0.1483
     17 C12         1.7531   -5.9639    2.2933 C.3       1 <0>        -0.1342
     18 C13         1.7678   -7.5073    2.4223 C.3       1 <0>        -0.1247
     19 C14         0.7306   -7.9491    1.3601 C.3       1 <0>        -0.1252
     20 C15        -0.3796   -6.8816    1.4486 C.3       1 <0>        -0.1344
     21 H1          1.0041    1.8799    0.0308 H         1 <0>         0.0942
     22 H2         -0.5210    1.8643   -0.8868 H         1 <0>         0.1057
     23 H3         -0.5530    1.8540    0.8929 H         1 <0>         0.0874
     24 H4          0.1995    1.5463    2.2869 H         1 <0>         0.1395
     25 H5          0.4276    1.9075    4.7045 H         1 <0>         0.1376
     26 H6          0.6029   -0.0085    6.2376 H         1 <0>         0.1382
     27 H7          0.5537   -2.3011    5.3679 H         1 <0>         0.1445
     28 H8          0.0827   -4.6879    0.1433 H         1 <0>         0.4191
     29 H9         -0.2163   -5.3547    2.9806 H         1 <0>         0.1008
     30 H10         2.3668   -5.6456    1.4506 H         1 <0>         0.0695
     31 H11         2.1012   -5.5006    3.2164 H         1 <0>         0.0743
     32 H12         2.7550   -7.9052    2.1871 H         1 <0>         0.0698
     33 H13         1.4540   -7.8146    3.4198 H         1 <0>         0.0709
     34 H14         1.1793   -7.9514    0.3667 H         1 <0>         0.0681
     35 H15         0.3326   -8.9345    1.6023 H         1 <0>         0.0703
     36 H16        -1.1813   -7.2299    2.0997 H         1 <0>         0.0789
     37 H17        -0.7718   -6.6675    0.4545 H         1 <0>         0.0733
@<TRIPOS>BOND
     1    1    2 1
     2    1   21 1
     3    1   22 1
     4    1   23 1
     5    2    6 1
     6    2    3 2
     7    3    4 1
     8    4    5 2
     9    5   14 1
    10    5    6 1
    11    6    7 1
    12    7   12 ar
    13    7    8 ar
    14    8    9 ar
    15    8   24 1
    16    9   10 ar
    17    9   25 1
    18   10   11 ar
    19   10   26 1
    20   11   12 ar
    21   11   27 1
    22   12   13 1
    23   13   14 2
    24   14   15 1
    25   15   16 1
    26   15   28 1
    27   16   20 1
    28   16   17 1
    29   16   29 1
    30   17   18 1
    31   17   30 1
    32   17   31 1
    33   18   19 1
    34   18   32 1
    35   18   33 1
    36   19   20 1
    37   19   34 1
    38   19   35 1
    39   20   36 1
    40   20   37 1
@<TRIPOS>MOLECULE
ZINC13826985
   50    52     0     0     0
SMALL
USER_CHARGES
1,3,7-trimethyl-8-[(E)-2-(2,3,4-trimethoxyphenyl)vinyl]purine-2,6-dione
@<TRIPOS>ATOM
      1 C1          3.0819    0.2381   -0.0260 C.3       1 <0>         0.0696
      2 N1          2.5308    1.5954   -0.0131 N.pl3     1 <0>        -0.4104
      3 C2          3.2397    2.7633   -0.0134 C.2       1 <0>         0.3288
      4 N2          2.3966    3.7831   -0.0000 N.2       1 <0>        -0.4894
      5 C3          1.1437    3.3348    0.0091 C.2       1 <0>         0.3252
      6 C4          1.1916    1.9429    0.0011 C.2       1 <0>        -0.1510
      7 C5         -0.0144    1.2142    0.0087 C.2       1 <0>         0.5944
      8 O1          0.0021   -0.0041    0.0020 O.2       1 <0>        -0.5140
      9 N3         -1.1876    1.8802    0.0179 N.am      1 <0>        -0.5519
     10 C6         -1.2215    3.2237    0.0311 C.2       1 <0>         0.7075
     11 O2         -2.2980    3.7891    0.0449 O.2       1 <0>        -0.5323
     12 N4         -0.0943    3.9596    0.0243 N.am      1 <0>        -0.5111
     13 C7         -0.1754    5.4223    0.0325 C.3       1 <0>         0.0893
     14 C8         -2.4442    1.1271    0.0191 C.3       1 <0>         0.0840
     15 C9          4.6989    2.8695   -0.0258 C.2       1 <0>        -0.1297
     16 C10         5.2871    4.0842   -0.0247 C.2       1 <0>        -0.0080
     17 C11         6.7525    4.1908   -0.0372 C.ar      1 <0>        -0.1217
     18 C12         7.5412    3.0343   -0.0503 C.ar      1 <0>        -0.0511
     19 C13         8.9141    3.1373   -0.0621 C.ar      1 <0>        -0.2047
     20 C14         9.5234    4.3867   -0.0614 C.ar      1 <0>         0.1385
     21 C15         8.7512    5.5432   -0.0490 C.ar      1 <0>         0.0420
     22 C16         7.3670    5.4526   -0.0420 C.ar      1 <0>         0.1456
     23 O3          6.6096    6.5803   -0.0346 O.3       1 <0>        -0.3259
     24 C17         6.2592    7.1181    1.2421 C.3       1 <0>         0.0376
     25 O4          9.3534    6.7638   -0.0484 O.3       1 <0>        -0.3184
     26 C18         9.6291    7.3517   -1.3213 C.3       1 <0>         0.0370
     27 O5         10.8791    4.4783   -0.0726 O.3       1 <0>        -0.3008
     28 C19        11.6122    3.2518   -0.0846 C.3       1 <0>         0.0219
     29 H1          3.2092   -0.0926   -1.0568 H         1 <0>         0.0881
     30 H2          4.0479    0.2333    0.4790 H         1 <0>         0.0955
     31 H3          2.3987   -0.4363    0.4902 H         1 <0>         0.1026
     32 H4         -0.2056    5.7902   -0.9931 H         1 <0>         0.0736
     33 H5         -1.0791    5.7331    0.5567 H         1 <0>         0.0937
     34 H6          0.6980    5.8318    0.5399 H         1 <0>         0.0919
     35 H7         -2.7512    0.9343    1.0471 H         1 <0>         0.0765
     36 H8         -3.2157    1.7067   -0.4879 H         1 <0>         0.0966
     37 H9         -2.3007    0.1799   -0.5008 H         1 <0>         0.0948
     38 H10         5.3053    1.9759   -0.0359 H         1 <0>         0.1411
     39 H11         4.6807    4.9778   -0.0146 H         1 <0>         0.1438
     40 H12         7.0727    2.0613   -0.0509 H         1 <0>         0.1391
     41 H13         9.5202    2.2435   -0.0721 H         1 <0>         0.1415
     42 H14         7.1662    7.3709    1.7912 H         1 <0>         0.0542
     43 H15         5.6555    8.0153    1.1052 H         1 <0>         0.0999
     44 H16         5.6887    6.3785    1.8038 H         1 <0>         0.0503
     45 H17        10.1085    8.3201   -1.1781 H         1 <0>         0.0953
     46 H18        10.2927    6.6980   -1.8874 H         1 <0>         0.0459
     47 H19         8.6965    7.4855   -1.8694 H         1 <0>         0.0501
     48 H20        12.6807    3.4671   -0.0928 H         1 <0>         0.1054
     49 H21        11.3652    2.6721    0.8048 H         1 <0>         0.0600
     50 H22        11.3500    2.6804   -0.9751 H         1 <0>         0.0592
@<TRIPOS>BOND
     1    1    2 1
     2    1   29 1
     3    1   30 1
     4    1   31 1
     5    2    6 1
     6    2    3 1
     7    3    4 2
     8    3   15 1
     9    4    5 1
    10    5   12 1
    11    5    6 2
    12    6    7 1
    13    7    8 2
    14    7    9 am
    15    9   10 am
    16    9   14 1
    17   10   11 2
    18   10   12 am
    19   12   13 1
    20   13   32 1
    21   13   33 1
    22   13   34 1
    23   14   35 1
    24   14   36 1
    25   14   37 1
    26   15   16 2
    27   15   38 1
    28   16   17 1
    29   16   39 1
    30   17   22 ar
    31   17   18 ar
    32   18   19 ar
    33   18   40 1
    34   19   20 ar
    35   19   41 1
    36   20   21 ar
    37   20   27 1
    38   21   22 ar
    39   21   25 1
    40   22   23 1
    41   23   24 1
    42   24   42 1
    43   24   43 1
    44   24   44 1
    45   25   26 1
    46   26   45 1
    47   26   46 1
    48   26   47 1
    49   27   28 1
    50   28   48 1
    51   28   49 1
    52   28   50 1
@<TRIPOS>MOLECULE
ZINC13826985
   51    53     0     0     0
SMALL
USER_CHARGES
1,3,7-trimethyl-8-[(E)-2-(2,3,4-trimethoxyphenyl)vinyl]purine-2,6-dione
@<TRIPOS>ATOM
      1 C1          3.0819    0.2381   -0.0260 C.3       1 <0>         0.0546
      2 N1          2.5308    1.5954   -0.0131 N.pl3     1 <0>        -0.3584
      3 C2          3.2397    2.7633   -0.0134 C.cat     1 <0>         0.4161
      4 C3          1.1437    3.3348    0.0091 C.2       1 <0>         0.3541
      5 C4          1.1916    1.9429    0.0011 C.2       1 <0>        -0.0797
      6 C5         -0.0144    1.2142    0.0087 C.2       1 <0>         0.5899
      7 O1          0.0021   -0.0041    0.0020 O.2       1 <0>        -0.4685
      8 N2         -1.1876    1.8802    0.0179 N.am      1 <0>        -0.5422
      9 C6         -1.2215    3.2237    0.0311 C.2       1 <0>         0.7084
     10 O2         -2.2980    3.7891    0.0449 O.2       1 <0>        -0.4848
     11 N3         -0.0943    3.9596    0.0243 N.am      1 <0>        -0.5141
     12 C7         -0.1754    5.4223    0.0325 C.3       1 <0>         0.0637
     13 C8         -2.4442    1.1271    0.0191 C.3       1 <0>         0.0758
     14 C9          4.6989    2.8695   -0.0258 C.2       1 <0>        -0.1993
     15 C10         5.2871    4.0842   -0.0247 C.2       1 <0>         0.0574
     16 C11         6.7525    4.1908   -0.0372 C.ar      1 <0>        -0.1629
     17 C12         7.5412    3.0343   -0.0503 C.ar      1 <0>        -0.0277
     18 C13         8.9141    3.1373   -0.0621 C.ar      1 <0>        -0.2092
     19 C14         9.5234    4.3867   -0.0614 C.ar      1 <0>         0.1695
     20 C15         8.7512    5.5432   -0.0490 C.ar      1 <0>         0.0405
     21 C16         7.3670    5.4526   -0.0420 C.ar      1 <0>         0.1632
     22 O3          6.6096    6.5803   -0.0346 O.3       1 <0>        -0.3293
     23 C17         6.2592    7.1181    1.2421 C.3       1 <0>         0.0328
     24 O4          9.3534    6.7638   -0.0484 O.3       1 <0>        -0.3159
     25 C18         9.6291    7.3517   -1.3213 C.3       1 <0>         0.0356
     26 O5         10.8791    4.4783   -0.0726 O.3       1 <0>        -0.2922
     27 C19        11.6122    3.2518   -0.0846 C.3       1 <0>         0.0175
     28 H1          3.2092   -0.0926   -1.0568 H         1 <0>         0.1184
     29 H2          4.0479    0.2333    0.4790 H         1 <0>         0.1202
     30 H3          2.3987   -0.4363    0.4902 H         1 <0>         0.1282
     31 H4         -0.2056    5.7902   -0.9931 H         1 <0>         0.0959
     32 H5         -1.0791    5.7331    0.5567 H         1 <0>         0.1206
     33 H6          0.6980    5.8318    0.5399 H         1 <0>         0.0887
     34 H7         -2.7512    0.9343    1.0471 H         1 <0>         0.0893
     35 H8         -3.2157    1.7067   -0.4879 H         1 <0>         0.1064
     36 H9         -2.3007    0.1799   -0.5008 H         1 <0>         0.1056
     37 H10         5.3053    1.9759   -0.0359 H         1 <0>         0.1766
     38 H11         4.6807    4.9778   -0.0146 H         1 <0>         0.1313
     39 H12         7.0727    2.0613   -0.0509 H         1 <0>         0.1439
     40 H13         9.5202    2.2435   -0.0721 H         1 <0>         0.1504
     41 H14         7.1662    7.3709    1.7912 H         1 <0>         0.0635
     42 H15         5.6555    8.0153    1.1052 H         1 <0>         0.1055
     43 H16         5.6887    6.3785    1.8038 H         1 <0>         0.0466
     44 H17        10.1085    8.3201   -1.1781 H         1 <0>         0.1014
     45 H18        10.2927    6.6980   -1.8874 H         1 <0>         0.0498
     46 H19         8.6965    7.4855   -1.8694 H         1 <0>         0.0509
     47 H20        12.6807    3.4671   -0.0928 H         1 <0>         0.1130
     48 H21        11.3652    2.6721    0.8048 H         1 <0>         0.0651
     49 H22        11.3500    2.6804   -0.9751 H         1 <0>         0.0643
     50 N4          2.3973    3.7857    0.0000 N.pl3     1 <0>        -0.5084
     51 H23         2.6694    4.7757    0.0029 H         1 <0>         0.4776
@<TRIPOS>BOND
     1    1    2 1
     2    1   28 1
     3    1   29 1
     4    1   30 1
     5    2    5 1
     6    2    3 1
     7    3   14 1
     8    3   50 2
     9    4   11 1
    10    4    5 2
    11    4   50 1
    12    5    6 1
    13    6    7 2
    14    6    8 am
    15    8    9 am
    16    8   13 1
    17    9   10 2
    18    9   11 am
    19   11   12 1
    20   12   31 1
    21   12   32 1
    22   12   33 1
    23   13   34 1
    24   13   35 1
    25   13   36 1
    26   14   15 2
    27   14   37 1
    28   15   16 1
    29   15   38 1
    30   16   21 ar
    31   16   17 ar
    32   17   18 ar
    33   17   39 1
    34   18   19 ar
    35   18   40 1
    36   19   20 ar
    37   19   26 1
    38   20   21 ar
    39   20   24 1
    40   21   22 1
    41   22   23 1
    42   23   41 1
    43   23   42 1
    44   23   43 1
    45   24   25 1
    46   25   44 1
    47   25   45 1
    48   25   46 1
    49   26   27 1
    50   27   47 1
    51   27   48 1
    52   27   49 1
    53   50   51 1
@<TRIPOS>MOLECULE
ZINC04910686
   34    37     0     0     0
SMALL
USER_CHARGES
N-cyclopentyl-[1,2,4]triazolo[3,4-c]quinoxalin-4-amine
@<TRIPOS>ATOM
      1 C1          2.2537   -4.4406   -0.0442 C.ar      1 <0>        -0.0926
      2 C2          3.2660   -3.4923   -0.0488 C.ar      1 <0>        -0.1129
      3 C3          2.9624   -2.1473   -0.0383 C.ar      1 <0>        -0.1012
      4 C4          1.6364   -1.7333   -0.0229 C.ar      1 <0>         0.0406
      5 C5          0.6068   -2.6893   -0.0182 C.ar      1 <0>         0.1525
      6 C6          0.9343   -4.0514   -0.0286 C.ar      1 <0>        -0.0890
      7 N1         -0.6958   -2.3068   -0.0041 N.2       1 <0>        -0.5434
      8 C7         -1.0359   -1.0379    0.0064 C.2       1 <0>         0.5060
      9 C8          0.0021   -0.0041    0.0020 C.2       1 <0>         0.1253
     10 N2          1.3217   -0.3847   -0.0126 N.pl3     1 <0>        -0.3795
     11 C9          2.0400    0.7547   -0.0134 C.2       1 <0>         0.1673
     12 N3          1.1931    1.7552    0.0001 N.2       1 <0>        -0.2678
     13 N4         -0.0158    1.3116    0.0093 N.2       1 <0>        -0.2403
     14 N5         -2.3703   -0.6790    0.0211 N.pl3     1 <0>        -0.6756
     15 C10        -3.4071   -1.7140    0.0254 C.3       1 <0>         0.1482
     16 C11        -3.7430   -2.1316   -1.4212 C.3       1 <0>        -0.1340
     17 C12        -5.2733   -2.3752   -1.3998 C.3       1 <0>        -0.1248
     18 C13        -5.7855   -1.2548   -0.4610 C.3       1 <0>        -0.1252
     19 C14        -4.7052   -1.1571    0.6360 C.3       1 <0>        -0.1342
     20 H1          2.5030   -5.4914   -0.0526 H         1 <0>         0.1384
     21 H2          4.2984   -3.8094   -0.0604 H         1 <0>         0.1377
     22 H3          3.7562   -1.4149   -0.0416 H         1 <0>         0.1332
     23 H4          0.1515   -4.7954   -0.0251 H         1 <0>         0.1447
     24 H5          3.1173    0.8303   -0.0229 H         1 <0>         0.2315
     25 H6         -2.6204    0.2581    0.0285 H         1 <0>         0.4192
     26 H7         -3.0680   -2.5794    0.5947 H         1 <0>         0.1005
     27 H8         -3.4942   -1.3304   -2.1171 H         1 <0>         0.0695
     28 H9         -3.2139   -3.0468   -1.6867 H         1 <0>         0.0745
     29 H10        -5.5015   -3.3584   -0.9883 H         1 <0>         0.0706
     30 H11        -5.6985   -2.2676   -2.3976 H         1 <0>         0.0698
     31 H12        -6.7463   -1.5307   -0.0266 H         1 <0>         0.0703
     32 H13        -5.8667   -0.3117   -1.0014 H         1 <0>         0.0682
     33 H14        -4.9965   -1.7528    1.5010 H         1 <0>         0.0790
     34 H15        -4.5636   -0.1168    0.9290 H         1 <0>         0.0734
@<TRIPOS>BOND
     1    1    6 ar
     2    1    2 ar
     3    1   20 1
     4    2    3 ar
     5    2   21 1
     6    3    4 ar
     7    3   22 1
     8    4   10 1
     9    4    5 ar
    10    5    6 ar
    11    5    7 1
    12    6   23 1
    13    7    8 2
    14    8    9 1
    15    8   14 1
    16    9   13 2
    17    9   10 1
    18   10   11 1
    19   11   12 2
    20   11   24 1
    21   12   13 1
    22   14   15 1
    23   14   25 1
    24   15   19 1
    25   15   16 1
    26   15   26 1
    27   16   17 1
    28   16   27 1
    29   16   28 1
    30   17   18 1
    31   17   29 1
    32   17   30 1
    33   18   19 1
    34   18   31 1
    35   18   32 1
    36   19   33 1
    37   19   34 1
@<TRIPOS>MOLECULE
ZINC04910771
   30    32     0     0     0
SMALL
USER_CHARGES
N-isopropyl-[1,2,4]triazolo[3,4-c]quinoxalin-4-amine
@<TRIPOS>ATOM
      1 C1          1.6351    2.0768    1.4347 C.3       1 <0>        -0.1645
      2 C2          1.2475    1.7155   -0.0006 C.3       1 <0>         0.1447
      3 C3          2.3488    0.8566   -0.6254 C.3       1 <0>        -0.1648
      4 N1         -0.0111    0.9658    0.0074 N.pl3     1 <0>        -0.6776
      5 C4         -1.2170    1.6404    0.0167 C.2       1 <0>         0.5068
      6 C5         -2.4765    0.8921    0.0186 C.2       1 <0>         0.1252
      7 N2         -2.7812   -0.3879    0.0127 N.2       1 <0>        -0.2401
      8 N3         -4.0620   -0.5221    0.0183 N.2       1 <0>        -0.2679
      9 C6         -4.6383    0.6553    0.0280 C.2       1 <0>         0.1675
     10 N4         -3.6629    1.5842    0.0285 N.pl3     1 <0>        -0.3798
     11 C7         -3.6380    2.9689    0.0357 C.ar      1 <0>         0.0406
     12 C8         -4.8223    3.6948    0.0453 C.ar      1 <0>        -0.1012
     13 C9         -4.7875    5.0733    0.0529 C.ar      1 <0>        -0.1129
     14 C10        -3.5739    5.7449    0.0501 C.ar      1 <0>        -0.0925
     15 C11        -2.3899    5.0446    0.0402 C.ar      1 <0>        -0.0890
     16 C12        -2.4056    3.6437    0.0329 C.ar      1 <0>         0.1524
     17 N5         -1.2363    2.9540    0.0295 N.2       1 <0>        -0.5442
     18 H1          2.5715    2.6346    1.4287 H         1 <0>         0.0697
     19 H2          0.8505    2.6887    1.8798 H         1 <0>         0.0623
     20 H3          1.7593    1.1645    2.0181 H         1 <0>         0.0570
     21 H4          1.1233    2.6278   -0.5840 H         1 <0>         0.0971
     22 H5          2.0727    0.5992   -1.6480 H         1 <0>         0.0638
     23 H6          3.2853    1.4144   -0.6314 H         1 <0>         0.0785
     24 H7          2.4730   -0.0557   -0.0420 H         1 <0>         0.0637
     25 H8          0.0021   -0.0041    0.0020 H         1 <0>         0.4195
     26 H9         -5.7013    0.8457    0.0349 H         1 <0>         0.2315
     27 H10        -5.7712    3.1791    0.0472 H         1 <0>         0.1333
     28 H11        -5.7109    5.6334    0.0607 H         1 <0>         0.1377
     29 H12        -3.5584    6.8247    0.0561 H         1 <0>         0.1384
     30 H13        -1.4487    5.5744    0.0377 H         1 <0>         0.1448
@<TRIPOS>BOND
     1    1    2 1
     2    1   18 1
     3    1   19 1
     4    1   20 1
     5    2    3 1
     6    2    4 1
     7    2   21 1
     8    3   22 1
     9    3   23 1
    10    3   24 1
    11    4    5 1
    12    4   25 1
    13    5   17 2
    14    5    6 1
    15    6   10 1
    16    6    7 2
    17    7    8 1
    18    8    9 2
    19    9   10 1
    20    9   26 1
    21   10   11 1
    22   11   16 ar
    23   11   12 ar
    24   12   13 ar
    25   12   27 1
    26   13   14 ar
    27   13   28 1
    28   14   15 ar
    29   14   29 1
    30   15   16 ar
    31   15   30 1
    32   16   17 1
@<TRIPOS>MOLECULE
ZINC12405396
   47    49     0     0     0
SMALL
USER_CHARGES
1,3-dimethyl-8-[(E)-2-(3,4,5-trimethoxyphenyl)vinyl]-7H-purine-2,6-dione
@<TRIPOS>ATOM
      1 C1         -1.5742    4.8091    2.7089 C.3       1 <0>         0.0887
      2 N1         -1.4517    3.3619    2.5168 N.am      1 <0>        -0.5117
      3 C2         -1.9762    2.4913    3.4603 C.2       1 <0>         0.3275
      4 C3         -1.8453    1.1204    3.2529 C.2       1 <0>        -0.1434
      5 C4         -1.1866    0.6609    2.0944 C.2       1 <0>         0.5929
      6 O1         -1.0601   -0.5337    1.8908 O.2       1 <0>        -0.5129
      7 N2         -0.6984    1.5583    1.2133 N.am      1 <0>        -0.5511
      8 C5         -0.8264    2.8790    1.4268 C.2       1 <0>         0.7072
      9 O2         -0.3693    3.6578    0.6124 O.2       1 <0>        -0.5286
     10 C6         -0.0127    1.0858    0.0080 C.3       1 <0>         0.0826
     11 N3         -2.4487    0.5002    4.3316 N.pl3     1 <0>        -0.5176
     12 H1         -2.5265   -0.4846    4.4868 H         1 <0>         0.4453
     13 C7         -2.9178    1.4928    5.1439 C.2       1 <0>         0.3326
     14 N4         -2.6267    2.6667    4.6080 N.2       1 <0>        -0.4875
     15 C8         -3.6293    1.2900    6.4073 C.2       1 <0>        -0.1128
     16 C9         -4.0456    2.3530    7.1249 C.2       1 <0>        -0.0237
     17 C10        -4.7605    2.1492    8.3943 C.ar      1 <0>        -0.0002
     18 C11        -5.0144    0.8533    8.8557 C.ar      1 <0>        -0.2188
     19 C12        -5.6818    0.6656   10.0516 C.ar      1 <0>         0.1493
     20 C13        -6.1105    1.7644   10.7914 C.ar      1 <0>         0.0404
     21 C14        -5.8646    3.0555   10.3324 C.ar      1 <0>         0.1492
     22 C15        -5.1931    3.2508    9.1400 C.ar      1 <0>        -0.2074
     23 O3         -6.2859    4.1259   11.0579 O.3       1 <0>        -0.3009
     24 C16        -6.0004    5.4219   10.5277 C.3       1 <0>         0.0224
     25 O4         -6.7712    1.5760   11.9648 O.3       1 <0>        -0.3126
     26 C17        -8.1951    1.4746   11.8984 C.3       1 <0>         0.0354
     27 O5         -5.9249   -0.5939   10.5033 O.3       1 <0>        -0.3004
     28 C18        -5.4572   -1.6749    9.6941 C.3       1 <0>         0.0226
     29 H2         -0.7098    5.1766    3.2619 H         1 <0>         0.0740
     30 H3         -1.6205    5.3018    1.7377 H         1 <0>         0.0943
     31 H4         -2.4833    5.0255    3.2699 H         1 <0>         0.0922
     32 H5          0.0021   -0.0041    0.0020 H         1 <0>         0.1040
     33 H6          1.0099    1.4631    0.0003 H         1 <0>         0.0833
     34 H7         -0.5399    1.4469   -0.8751 H         1 <0>         0.0833
     35 H8         -3.8208    0.2889    6.7645 H         1 <0>         0.1436
     36 H9         -3.8542    3.3541    6.7677 H         1 <0>         0.1449
     37 H10        -4.6858    0.0005    8.2803 H         1 <0>         0.1392
     38 H11        -5.0030    4.2527    8.7844 H         1 <0>         0.1427
     39 H12        -6.3897    6.1843   11.2024 H         1 <0>         0.1051
     40 H13        -4.9219    5.5433   10.4258 H         1 <0>         0.0603
     41 H14        -6.4717    5.5266    9.5504 H         1 <0>         0.0590
     42 H15        -8.5959    1.3262   12.9012 H         1 <0>         0.0944
     43 H16        -8.6053    2.3916   11.4753 H         1 <0>         0.0456
     44 H17        -8.4702    0.6288   11.2683 H         1 <0>         0.0453
     45 H18        -5.9243   -1.6211    8.7108 H         1 <0>         0.0576
     46 H19        -4.3747   -1.6062    9.5865 H         1 <0>         0.0589
     47 H20        -5.7159   -2.6218   10.1680 H         1 <0>         0.1054
@<TRIPOS>BOND
     1    1    2 1
     2    1   29 1
     3    1   30 1
     4    1   31 1
     5    2    8 am
     6    2    3 1
     7    3   14 1
     8    3    4 2
     9    4    5 1
    10    4   11 1
    11    5    6 2
    12    5    7 am
    13    7    8 am
    14    7   10 1
    15    8    9 2
    16   10   32 1
    17   10   33 1
    18   10   34 1
    19   11   12 1
    20   11   13 1
    21   13   14 2
    22   13   15 1
    23   15   16 2
    24   15   35 1
    25   16   17 1
    26   16   36 1
    27   17   22 ar
    28   17   18 ar
    29   18   19 ar
    30   18   37 1
    31   19   20 ar
    32   19   27 1
    33   20   21 ar
    34   20   25 1
    35   21   22 ar
    36   21   23 1
    37   22   38 1
    38   23   24 1
    39   24   39 1
    40   24   40 1
    41   24   41 1
    42   25   26 1
    43   26   42 1
    44   26   43 1
    45   26   44 1
    46   27   28 1
    47   28   45 1
    48   28   46 1
    49   28   47 1
@<TRIPOS>MOLECULE
ZINC12405396
   48    50     0     0     0
SMALL
USER_CHARGES
1,3-dimethyl-8-[(E)-2-(3,4,5-trimethoxyphenyl)vinyl]-7H-purine-2,6-dione
@<TRIPOS>ATOM
      1 C1         -1.5742    4.8091    2.7089 C.3       1 <0>         0.0629
      2 N1         -1.4517    3.3619    2.5168 N.am      1 <0>        -0.5134
      3 C2         -1.9762    2.4913    3.4603 C.2       1 <0>         0.3556
      4 C3         -1.8453    1.1204    3.2529 C.2       1 <0>        -0.0692
      5 C4         -1.1866    0.6609    2.0944 C.2       1 <0>         0.5874
      6 O1         -1.0601   -0.5337    1.8908 O.2       1 <0>        -0.4659
      7 N2         -0.6984    1.5583    1.2133 N.am      1 <0>        -0.5413
      8 C5         -0.8264    2.8790    1.4268 C.2       1 <0>         0.7076
      9 O2         -0.3693    3.6578    0.6124 O.2       1 <0>        -0.4805
     10 C6         -0.0127    1.0858    0.0080 C.3       1 <0>         0.0744
     11 N3         -2.4487    0.5002    4.3316 N.pl3     1 <0>        -0.4612
     12 H1         -2.5265   -0.4846    4.4868 H         1 <0>         0.4852
     13 C7         -2.9178    1.4928    5.1439 C.cat     1 <0>         0.4330
     14 C8         -3.6293    1.2900    6.4073 C.2       1 <0>        -0.1843
     15 C9         -4.0456    2.3530    7.1249 C.2       1 <0>         0.0460
     16 C10        -4.7605    2.1492    8.3943 C.ar      1 <0>        -0.0429
     17 C11        -5.0144    0.8533    8.8557 C.ar      1 <0>        -0.1985
     18 C12        -5.6818    0.6656   10.0516 C.ar      1 <0>         0.1469
     19 C13        -6.1105    1.7644   10.7914 C.ar      1 <0>         0.0730
     20 C14        -5.8646    3.0555   10.3324 C.ar      1 <0>         0.1465
     21 C15        -5.1931    3.2508    9.1400 C.ar      1 <0>        -0.1900
     22 O3         -6.2859    4.1259   11.0579 O.3       1 <0>        -0.2945
     23 C16        -6.0004    5.4219   10.5277 C.3       1 <0>         0.0210
     24 O4         -6.7712    1.5760   11.9648 O.3       1 <0>        -0.3118
     25 C17        -8.1951    1.4746   11.8984 C.3       1 <0>         0.0356
     26 O5         -5.9249   -0.5939   10.5033 O.3       1 <0>        -0.2941
     27 C18        -5.4572   -1.6749    9.6941 C.3       1 <0>         0.0207
     28 H2         -0.7098    5.1766    3.2619 H         1 <0>         0.0966
     29 H3         -1.6205    5.3018    1.7377 H         1 <0>         0.1213
     30 H4         -2.4833    5.0255    3.2699 H         1 <0>         0.0893
     31 H5          0.0021   -0.0041    0.0020 H         1 <0>         0.1138
     32 H6          1.0099    1.4631    0.0003 H         1 <0>         0.0951
     33 H7         -0.5399    1.4469   -0.8751 H         1 <0>         0.0951
     34 H8         -3.8208    0.2889    6.7645 H         1 <0>         0.1800
     35 H9         -3.8542    3.3541    6.7677 H         1 <0>         0.1350
     36 H10        -4.6858    0.0005    8.2803 H         1 <0>         0.1431
     37 H11        -5.0030    4.2527    8.7844 H         1 <0>         0.1458
     38 H12        -6.3897    6.1843   11.2024 H         1 <0>         0.1113
     39 H13        -4.9219    5.5433   10.4258 H         1 <0>         0.0608
     40 H14        -6.4717    5.5266    9.5504 H         1 <0>         0.0596
     41 H15        -8.5959    1.3262   12.9012 H         1 <0>         0.1019
     42 H16        -8.6053    2.3916   11.4753 H         1 <0>         0.0494
     43 H17        -8.4702    0.6288   11.2683 H         1 <0>         0.0492
     44 H18        -5.9243   -1.6211    8.7108 H         1 <0>         0.0587
     45 H19        -4.3747   -1.6062    9.5865 H         1 <0>         0.0600
     46 H20        -5.7159   -2.6218   10.1680 H         1 <0>         0.1115
     47 N4         -2.6273    2.6690    4.6090 N.pl3     1 <0>        -0.5059
     48 H21        -2.8675    3.5798    5.0177 H         1 <0>         0.4800
@<TRIPOS>BOND
     1    1    2 1
     2    1   28 1
     3    1   29 1
     4    1   30 1
     5    2    8 am
     6    2    3 1
     7    3    4 2
     8    3   47 1
     9    4    5 1
    10    4   11 1
    11    5    6 2
    12    5    7 am
    13    7    8 am
    14    7   10 1
    15    8    9 2
    16   10   31 1
    17   10   32 1
    18   10   33 1
    19   11   12 1
    20   11   13 1
    21   13   14 1
    22   13   47 2
    23   14   15 2
    24   14   34 1
    25   15   16 1
    26   15   35 1
    27   16   21 ar
    28   16   17 ar
    29   17   18 ar
    30   17   36 1
    31   18   19 ar
    32   18   26 1
    33   19   20 ar
    34   19   24 1
    35   20   21 ar
    36   20   22 1
    37   21   37 1
    38   22   23 1
    39   23   38 1
    40   23   39 1
    41   23   40 1
    42   24   25 1
    43   25   41 1
    44   25   42 1
    45   25   43 1
    46   26   27 1
    47   27   44 1
    48   27   45 1
    49   27   46 1
    50   47   48 1
@<TRIPOS>MOLECULE
ZINC05114736
   49    51     0     0     0
SMALL
USER_CHARGES
2-[4-(2,6-dioxo-1,3-dipropyl-7H-purin-8-yl)phenoxy]acetic acid
@<TRIPOS>ATOM
      1 C1         -2.8508   -5.6333   -4.3234 C.3       1 <0>        -0.1466
      2 C2         -2.8466   -4.9279   -2.9657 C.3       1 <0>        -0.1389
      3 C3         -1.4029   -4.6741   -2.5274 C.3       1 <0>         0.1197
      4 N1         -1.3988   -3.9987   -1.2274 N.am      1 <0>        -0.5074
      5 C4         -1.3776   -4.7454   -0.0594 C.2       1 <0>         0.3280
      6 C5         -1.3746   -4.0790    1.1619 C.2       1 <0>        -0.1568
      7 C6         -1.3932   -2.6689    1.1754 C.2       1 <0>         0.5944
      8 O1         -1.3907   -2.0630    2.2322 O.2       1 <0>        -0.5157
      9 N2         -1.4134   -1.9985    0.0048 N.am      1 <0>        -0.5498
     10 C7         -1.4212   -2.6539   -1.1686 C.2       1 <0>         0.7085
     11 O2         -1.4443   -2.0159   -2.2035 O.2       1 <0>        -0.5354
     12 C8         -1.4333   -0.5336    0.0129 C.3       1 <0>         0.1149
     13 C9          0.0021   -0.0041    0.0020 C.3       1 <0>        -0.1382
     14 C10        -0.0187    1.5258    0.0104 C.3       1 <0>        -0.1464
     15 N3         -1.3522   -5.0549    2.1407 N.pl3     1 <0>        -0.5242
     16 H1         -1.3446   -4.9075    3.1298 H         1 <0>         0.4420
     17 C11        -1.3424   -6.2559    1.4983 C.2       1 <0>         0.3692
     18 N4         -1.3577   -6.0531    0.1951 N.2       1 <0>        -0.4913
     19 C12        -1.3185   -7.5774    2.1573 C.ar      1 <0>        -0.1064
     20 C13        -1.2981   -7.6645    3.5512 C.ar      1 <0>        -0.0483
     21 C14        -1.2812   -8.8992    4.1622 C.ar      1 <0>        -0.2171
     22 C15        -1.2737  -10.0566    3.3936 C.ar      1 <0>         0.1720
     23 C16        -1.2882   -9.9742    2.0068 C.ar      1 <0>        -0.1618
     24 C17        -1.3105   -8.7434    1.3882 C.ar      1 <0>        -0.0189
     25 O3         -1.2518  -11.2716    3.9996 O.3       1 <0>        -0.2788
     26 C18        -1.2379  -11.2839    5.4284 C.3       1 <0>         0.0137
     27 C19        -1.2142  -12.7088    5.9184 C.2       1 <0>         0.4687
     28 O4         -1.2098  -13.6203    5.1253 O.co2     1 <0>        -0.6119
     29 H2         -3.8794   -5.8142   -4.6357 H         1 <0>         0.0597
     30 H3         -2.3524   -5.0045   -5.0611 H         1 <0>         0.0572
     31 H4         -2.3238   -6.5838   -4.2406 H         1 <0>         0.0598
     32 H5         -3.3450   -5.5567   -2.2280 H         1 <0>         0.0697
     33 H6         -3.3736   -3.9774   -3.0485 H         1 <0>         0.0666
     34 H7         -0.9044   -4.0453   -3.2651 H         1 <0>         0.0984
     35 H8         -0.8758   -5.6246   -2.4446 H         1 <0>         0.0996
     36 H9         -1.9435   -0.1821    0.9097 H         1 <0>         0.1001
     37 H10        -1.9605   -0.1726   -0.8702 H         1 <0>         0.1017
     38 H11         0.5123   -0.3556   -0.8948 H         1 <0>         0.0690
     39 H12         0.5293   -0.3651    0.8851 H         1 <0>         0.0677
     40 H13         1.0039    1.9031    0.0027 H         1 <0>         0.0603
     41 H14        -0.5459    1.8868   -0.8726 H         1 <0>         0.0588
     42 H15        -0.5289    1.8773    0.9072 H         1 <0>         0.0583
     43 H16        -1.2994   -6.7652    4.1493 H         1 <0>         0.1212
     44 H17        -1.2699   -8.9675    5.2400 H         1 <0>         0.1393
     45 H18        -1.2823  -10.8762    1.4129 H         1 <0>         0.1418
     46 H19        -1.3213   -8.6801    0.3101 H         1 <0>         0.1438
     47 H20        -0.3512  -10.7614    5.7876 H         1 <0>         0.0709
     48 H21        -2.1310  -10.7850    5.8048 H         1 <0>         0.0709
     49 O5         -1.1981  -12.9653    7.2358 O.co2     1 <0>        -0.7522
@<TRIPOS>BOND
     1    1    2 1
     2    1   29 1
     3    1   30 1
     4    1   31 1
     5    2    3 1
     6    2   32 1
     7    2   33 1
     8    3    4 1
     9    3   34 1
    10    3   35 1
    11    4   10 am
    12    4    5 1
    13    5   18 1
    14    5    6 2
    15    6    7 1
    16    6   15 1
    17    7    8 2
    18    7    9 am
    19    9   10 am
    20    9   12 1
    21   10   11 2
    22   12   13 1
    23   12   36 1
    24   12   37 1
    25   13   14 1
    26   13   38 1
    27   13   39 1
    28   14   40 1
    29   14   41 1
    30   14   42 1
    31   15   16 1
    32   15   17 1
    33   17   18 2
    34   17   19 1
    35   19   24 ar
    36   19   20 ar
    37   20   21 ar
    38   20   43 1
    39   21   22 ar
    40   21   44 1
    41   22   23 ar
    42   22   25 1
    43   23   24 ar
    44   23   45 1
    45   24   46 1
    46   25   26 1
    47   26   27 1
    48   26   47 1
    49   26   48 1
    50   27   28 2
    51   27   49 1
@<TRIPOS>MOLECULE
ZINC05114736
   50    52     0     0     0
SMALL
USER_CHARGES
2-[4-(2,6-dioxo-1,3-dipropyl-7H-purin-8-yl)phenoxy]acetic acid
@<TRIPOS>ATOM
      1 C1         -2.8508   -5.6333   -4.3234 C.3       1 <0>        -0.1530
      2 C2         -2.8466   -4.9279   -2.9657 C.3       1 <0>        -0.1450
      3 C3         -1.4029   -4.6741   -2.5274 C.3       1 <0>         0.0967
      4 N1         -1.3988   -3.9987   -1.2274 N.am      1 <0>        -0.5113
      5 C4         -1.3776   -4.7454   -0.0594 C.2       1 <0>         0.3517
      6 C5         -1.3746   -4.0790    1.1619 C.2       1 <0>        -0.0784
      7 C6         -1.3932   -2.6689    1.1754 C.2       1 <0>         0.5896
      8 O1         -1.3907   -2.0630    2.2322 O.2       1 <0>        -0.4690
      9 N2         -1.4134   -1.9985    0.0048 N.am      1 <0>        -0.5408
     10 C7         -1.4212   -2.6539   -1.1686 C.2       1 <0>         0.7098
     11 O2         -1.4443   -2.0159   -2.2035 O.2       1 <0>        -0.4892
     12 C8         -1.4333   -0.5336    0.0129 C.3       1 <0>         0.1084
     13 C9          0.0021   -0.0041    0.0020 C.3       1 <0>        -0.1386
     14 C10        -0.0187    1.5258    0.0104 C.3       1 <0>        -0.1501
     15 N3         -1.3522   -5.0549    2.1407 N.pl3     1 <0>        -0.4777
     16 H1         -1.3446   -4.9075    3.1298 H         1 <0>         0.4807
     17 C11        -1.3424   -6.2559    1.4983 C.cat     1 <0>         0.4692
     18 C12        -1.3185   -7.5774    2.1573 C.ar      1 <0>        -0.1754
     19 C13        -1.2981   -7.6645    3.5512 C.ar      1 <0>        -0.0098
     20 C14        -1.2812   -8.8992    4.1622 C.ar      1 <0>        -0.2136
     21 C15        -1.2737  -10.0566    3.3936 C.ar      1 <0>         0.2162
     22 C16        -1.2882   -9.9742    2.0068 C.ar      1 <0>        -0.1516
     23 C17        -1.3105   -8.7434    1.3882 C.ar      1 <0>        -0.0223
     24 O3         -1.2518  -11.2716    3.9996 O.3       1 <0>        -0.2599
     25 C18        -1.2379  -11.2839    5.4284 C.3       1 <0>         0.0053
     26 C19        -1.2142  -12.7088    5.9184 C.2       1 <0>         0.4669
     27 O4         -1.2098  -13.6203    5.1253 O.co2     1 <0>        -0.6074
     28 H2         -3.8794   -5.8142   -4.6357 H         1 <0>         0.0705
     29 H3         -2.3524   -5.0045   -5.0611 H         1 <0>         0.0665
     30 H4         -2.3238   -6.5838   -4.2406 H         1 <0>         0.0611
     31 H5         -3.3450   -5.5567   -2.2280 H         1 <0>         0.0657
     32 H6         -3.3736   -3.9774   -3.0485 H         1 <0>         0.0819
     33 H7         -0.9044   -4.0453   -3.2651 H         1 <0>         0.1256
     34 H8         -0.8758   -5.6246   -2.4446 H         1 <0>         0.0965
     35 H9         -1.9435   -0.1821    0.9097 H         1 <0>         0.1109
     36 H10        -1.9605   -0.1726   -0.8702 H         1 <0>         0.1115
     37 H11         0.5123   -0.3556   -0.8948 H         1 <0>         0.0709
     38 H12         0.5293   -0.3651    0.8851 H         1 <0>         0.0701
     39 H13         1.0039    1.9031    0.0027 H         1 <0>         0.0659
     40 H14        -0.5459    1.8868   -0.8726 H         1 <0>         0.0620
     41 H15        -0.5289    1.8773    0.9072 H         1 <0>         0.0619
     42 H16        -1.2994   -6.7652    4.1493 H         1 <0>         0.1351
     43 H17        -1.2699   -8.9675    5.2400 H         1 <0>         0.1559
     44 H18        -1.2823  -10.8762    1.4129 H         1 <0>         0.1574
     45 H19        -1.3213   -8.6801    0.3101 H         1 <0>         0.1355
     46 H20        -0.3512  -10.7614    5.7876 H         1 <0>         0.0801
     47 H21        -2.1310  -10.7850    5.8048 H         1 <0>         0.0801
     48 O5         -1.1981  -12.9653    7.2358 O.co2     1 <0>        -0.7388
     49 N4         -1.3577   -6.0549    0.1934 N.pl3     1 <0>        -0.5077
     50 H22        -1.3547   -6.7945   -0.5188 H         1 <0>         0.4798
@<TRIPOS>BOND
     1    1    2 1
     2    1   28 1
     3    1   29 1
     4    1   30 1
     5    2    3 1
     6    2   31 1
     7    2   32 1
     8    3    4 1
     9    3   33 1
    10    3   34 1
    11    4   10 am
    12    4    5 1
    13    5    6 2
    14    5   49 1
    15    6    7 1
    16    6   15 1
    17    7    8 2
    18    7    9 am
    19    9   10 am
    20    9   12 1
    21   10   11 2
    22   12   13 1
    23   12   35 1
    24   12   36 1
    25   13   14 1
    26   13   37 1
    27   13   38 1
    28   14   39 1
    29   14   40 1
    30   14   41 1
    31   15   16 1
    32   15   17 1
    33   17   18 1
    34   17   49 2
    35   18   23 ar
    36   18   19 ar
    37   19   20 ar
    38   19   42 1
    39   20   21 ar
    40   20   43 1
    41   21   22 ar
    42   21   24 1
    43   22   23 ar
    44   22   44 1
    45   23   45 1
    46   24   25 1
    47   25   26 1
    48   25   46 1
    49   25   47 1
    50   26   27 2
    51   26   48 1
    52   49   50 1
@<TRIPOS>MOLECULE
ZINC12405397
   50    52     0     0     0
SMALL
USER_CHARGES
1,3,7-trimethyl-8-[(E)-2-(3,4,5-trimethoxyphenyl)vinyl]purine-2,6-dione
@<TRIPOS>ATOM
      1 C1         -2.8108   -0.2312    0.0132 C.3       1 <0>         0.0682
      2 N1         -2.5244    1.2055    0.0206 N.pl3     1 <0>        -0.4077
      3 C2         -1.2903    1.7906    0.0179 C.2       1 <0>         0.3214
      4 N2         -1.4330    3.1056    0.0315 N.2       1 <0>        -0.4870
      5 C3         -2.7260    3.4205    0.0344 C.2       1 <0>         0.3241
      6 C4         -3.4513    2.2317    0.0311 C.2       1 <0>        -0.1470
      7 C5         -4.8600    2.2866    0.0379 C.2       1 <0>         0.5941
      8 O1         -5.5164    1.2602    0.0348 O.2       1 <0>        -0.5109
      9 N3         -5.4732    3.4881    0.0464 N.am      1 <0>        -0.5516
     10 C6         -4.7624    4.6288    0.0495 C.2       1 <0>         0.7079
     11 O2         -5.3504    5.6932    0.0580 O.2       1 <0>        -0.5322
     12 N4         -3.4163    4.6232    0.0440 N.am      1 <0>        -0.5110
     13 C7         -2.6795    5.8895    0.0477 C.3       1 <0>         0.0892
     14 C8         -6.9369    3.5506    0.0527 C.3       1 <0>         0.0825
     15 C9         -0.0126    1.0758    0.0080 C.2       1 <0>        -0.1087
     16 C10         1.1459    1.7659    0.0006 C.2       1 <0>        -0.0270
     17 C11         2.4297    1.0478   -0.0155 C.ar      1 <0>         0.0015
     18 C12         2.4506   -0.3509   -0.0174 C.ar      1 <0>        -0.2195
     19 C13         3.6588   -1.0224   -0.0365 C.ar      1 <0>         0.1497
     20 C14         4.8539   -0.3083   -0.0445 C.ar      1 <0>         0.0397
     21 C15         4.8370    1.0838   -0.0378 C.ar      1 <0>         0.1496
     22 C16         3.6324    1.7620   -0.0232 C.ar      1 <0>        -0.2080
     23 O3          6.0068    1.7773   -0.0453 O.3       1 <0>        -0.3009
     24 C17         5.9156    3.2034   -0.0372 C.3       1 <0>         0.0224
     25 O4          6.0406   -0.9720   -0.0585 O.3       1 <0>        -0.3125
     26 C18         6.6184   -1.2947    1.2080 C.3       1 <0>         0.0354
     27 O5          3.6801   -2.3821   -0.0422 O.3       1 <0>        -0.3003
     28 C19         2.4172   -3.0508   -0.0333 C.3       1 <0>         0.0226
     29 H1         -2.8771   -0.5937    1.0391 H         1 <0>         0.0893
     30 H2         -3.7570   -0.4105   -0.4973 H         1 <0>         0.1039
     31 H3         -2.0114   -0.7584   -0.5075 H         1 <0>         0.0956
     32 H4         -2.5014    6.2092   -0.9790 H         1 <0>         0.0738
     33 H5         -3.2638    6.6483    0.5683 H         1 <0>         0.0942
     34 H6         -1.7253    5.7532    0.5566 H         1 <0>         0.0918
     35 H7         -7.2560    4.5928    0.0595 H         1 <0>         0.1061
     36 H8         -7.3254    3.0574   -0.8383 H         1 <0>         0.0818
     37 H9         -7.3182    3.0480    0.9416 H         1 <0>         0.0818
     38 H10         0.0021   -0.0041    0.0020 H         1 <0>         0.1414
     39 H11         1.1313    2.8458    0.0065 H         1 <0>         0.1445
     40 H12         1.5240   -0.9055   -0.0074 H         1 <0>         0.1384
     41 H13         3.6200    2.8419   -0.0180 H         1 <0>         0.1426
     42 H14         6.9180    3.6316   -0.0445 H         1 <0>         0.1050
     43 H15         5.3714    3.5377   -0.9205 H         1 <0>         0.0602
     44 H16         5.3880    3.5287    0.8593 H         1 <0>         0.0590
     45 H17         7.5601   -1.8215    1.0541 H         1 <0>         0.0944
     46 H18         6.8023   -0.3776    1.7677 H         1 <0>         0.0455
     47 H19         5.9334   -1.9311    1.7683 H         1 <0>         0.0451
     48 H20         1.8639   -2.7703    0.8629 H         1 <0>         0.0575
     49 H21         1.8476   -2.7631   -0.9170 H         1 <0>         0.0586
     50 H22         2.5769   -4.1290   -0.0391 H         1 <0>         0.1054
@<TRIPOS>BOND
     1    1    2 1
     2    1   29 1
     3    1   30 1
     4    1   31 1
     5    2    6 1
     6    2    3 1
     7    3    4 2
     8    3   15 1
     9    4    5 1
    10    5   12 1
    11    5    6 2
    12    6    7 1
    13    7    8 2
    14    7    9 am
    15    9   10 am
    16    9   14 1
    17   10   11 2
    18   10   12 am
    19   12   13 1
    20   13   32 1
    21   13   33 1
    22   13   34 1
    23   14   35 1
    24   14   36 1
    25   14   37 1
    26   15   16 2
    27   15   38 1
    28   16   17 1
    29   16   39 1
    30   17   22 ar
    31   17   18 ar
    32   18   19 ar
    33   18   40 1
    34   19   20 ar
    35   19   27 1
    36   20   21 ar
    37   20   25 1
    38   21   22 ar
    39   21   23 1
    40   22   41 1
    41   23   24 1
    42   24   42 1
    43   24   43 1
    44   24   44 1
    45   25   26 1
    46   26   45 1
    47   26   46 1
    48   26   47 1
    49   27   28 1
    50   28   48 1
    51   28   49 1
    52   28   50 1
@<TRIPOS>MOLECULE
ZINC12405397
   51    53     0     0     0
SMALL
USER_CHARGES
1,3,7-trimethyl-8-[(E)-2-(3,4,5-trimethoxyphenyl)vinyl]purine-2,6-dione
@<TRIPOS>ATOM
      1 C1         -2.8108   -0.2312    0.0132 C.3       1 <0>         0.0526
      2 N1         -2.5244    1.2055    0.0206 N.pl3     1 <0>        -0.3536
      3 C2         -1.2903    1.7906    0.0179 C.cat     1 <0>         0.4084
      4 C3         -2.7260    3.4205    0.0344 C.2       1 <0>         0.3546
      5 C4         -3.4513    2.2317    0.0311 C.2       1 <0>        -0.0770
      6 C5         -4.8600    2.2866    0.0379 C.2       1 <0>         0.5893
      7 O1         -5.5164    1.2602    0.0348 O.2       1 <0>        -0.4653
      8 N2         -5.4732    3.4881    0.0464 N.am      1 <0>        -0.5419
      9 C6         -4.7624    4.6288    0.0495 C.2       1 <0>         0.7088
     10 O2         -5.3504    5.6932    0.0580 O.2       1 <0>        -0.4846
     11 N3         -3.4163    4.6232    0.0440 N.am      1 <0>        -0.5138
     12 C7         -2.6795    5.8895    0.0477 C.3       1 <0>         0.0635
     13 C8         -6.9369    3.5506    0.0527 C.3       1 <0>         0.0744
     14 C9         -0.0126    1.0758    0.0080 C.2       1 <0>        -0.1777
     15 C10         1.1459    1.7659    0.0006 C.2       1 <0>         0.0393
     16 C11         2.4297    1.0478   -0.0155 C.ar      1 <0>        -0.0398
     17 C12         2.4506   -0.3509   -0.0174 C.ar      1 <0>        -0.2002
     18 C13         3.6588   -1.0224   -0.0365 C.ar      1 <0>         0.1475
     19 C14         4.8539   -0.3083   -0.0445 C.ar      1 <0>         0.0710
     20 C15         4.8370    1.0838   -0.0378 C.ar      1 <0>         0.1472
     21 C16         3.6324    1.7620   -0.0232 C.ar      1 <0>        -0.1914
     22 O3          6.0068    1.7773   -0.0453 O.3       1 <0>        -0.2946
     23 C17         5.9156    3.2034   -0.0372 C.3       1 <0>         0.0211
     24 O4          6.0406   -0.9720   -0.0585 O.3       1 <0>        -0.3118
     25 C18         6.6184   -1.2947    1.2080 C.3       1 <0>         0.0356
     26 O5          3.6801   -2.3821   -0.0422 O.3       1 <0>        -0.2942
     27 C19         2.4172   -3.0508   -0.0333 C.3       1 <0>         0.0209
     28 H1         -2.8771   -0.5937    1.0391 H         1 <0>         0.1200
     29 H2         -3.7570   -0.4105   -0.4973 H         1 <0>         0.1298
     30 H3         -2.0114   -0.7584   -0.5075 H         1 <0>         0.1206
     31 H4         -2.5014    6.2092   -0.9790 H         1 <0>         0.0962
     32 H5         -3.2638    6.6483    0.5683 H         1 <0>         0.1211
     33 H6         -1.7253    5.7532    0.5566 H         1 <0>         0.0888
     34 H7         -7.2560    4.5928    0.0595 H         1 <0>         0.1148
     35 H8         -7.3254    3.0574   -0.8383 H         1 <0>         0.0942
     36 H9         -7.3182    3.0480    0.9416 H         1 <0>         0.0942
     37 H10         0.0021   -0.0041    0.0020 H         1 <0>         0.1766
     38 H11         1.1313    2.8458    0.0065 H         1 <0>         0.1340
     39 H12         1.5240   -0.9055   -0.0074 H         1 <0>         0.1419
     40 H13         3.6200    2.8419   -0.0180 H         1 <0>         0.1454
     41 H14         6.9180    3.6316   -0.0445 H         1 <0>         0.1112
     42 H15         5.3714    3.5377   -0.9205 H         1 <0>         0.0607
     43 H16         5.3880    3.5287    0.8593 H         1 <0>         0.0595
     44 H17         7.5601   -1.8215    1.0541 H         1 <0>         0.1017
     45 H18         6.8023   -0.3776    1.7677 H         1 <0>         0.0492
     46 H19         5.9334   -1.9311    1.7683 H         1 <0>         0.0490
     47 H20         1.8639   -2.7703    0.8629 H         1 <0>         0.0585
     48 H21         1.8476   -2.7631   -0.9170 H         1 <0>         0.0596
     49 H22         2.5769   -4.1290   -0.0391 H         1 <0>         0.1113
     50 N4         -1.4311    3.1073    0.0315 N.pl3     1 <0>        -0.5049
     51 H23        -0.6591    3.7843    0.0388 H         1 <0>         0.4781
@<TRIPOS>BOND
     1    1    2 1
     2    1   28 1
     3    1   29 1
     4    1   30 1
     5    2    5 1
     6    2    3 1
     7    3   14 1
     8    3   50 2
     9    4   11 1
    10    4    5 2
    11    4   50 1
    12    5    6 1
    13    6    7 2
    14    6    8 am
    15    8    9 am
    16    8   13 1
    17    9   10 2
    18    9   11 am
    19   11   12 1
    20   12   31 1
    21   12   32 1
    22   12   33 1
    23   13   34 1
    24   13   35 1
    25   13   36 1
    26   14   15 2
    27   14   37 1
    28   15   16 1
    29   15   38 1
    30   16   21 ar
    31   16   17 ar
    32   17   18 ar
    33   17   39 1
    34   18   19 ar
    35   18   26 1
    36   19   20 ar
    37   19   24 1
    38   20   21 ar
    39   20   22 1
    40   21   40 1
    41   22   23 1
    42   23   41 1
    43   23   42 1
    44   23   43 1
    45   24   25 1
    46   25   44 1
    47   25   45 1
    48   25   46 1
    49   26   27 1
    50   27   47 1
    51   27   48 1
    52   27   49 1
    53   50   51 1
@<TRIPOS>MOLECULE
ZINC28763883
   60    62     0     0     0
SMALL
USER_CHARGES

@<TRIPOS>ATOM
      1 C1         -0.0187    1.5258    0.0104 C.3       1 <0>        -0.1471
      2 C2          0.0021   -0.0041    0.0020 C.3       1 <0>        -0.1387
      3 C3          0.7421   -0.5109    1.2415 C.3       1 <0>         0.1191
      4 N1          0.7619   -1.9757    1.2335 N.am      1 <0>        -0.5089
      5 C4         -0.2660   -2.6852    1.8352 C.2       1 <0>         0.3304
      6 C5         -0.2227   -4.0758    1.8133 C.2       1 <0>        -0.1422
      7 C6          0.8615   -4.7197    1.1820 C.2       1 <0>         0.5924
      8 O1          0.9214   -5.9360    1.1495 O.2       1 <0>        -0.5083
      9 N2          1.8315   -3.9736    0.6140 N.am      1 <0>        -0.5477
     10 C7          1.7755   -2.6309    0.6370 C.2       1 <0>         0.7072
     11 O2          2.6654   -1.9916    0.1098 O.2       1 <0>        -0.5249
     12 C8          2.9605   -4.6372   -0.0428 C.3       1 <0>         0.1129
     13 C9          2.6266   -4.8717   -1.5174 C.3       1 <0>        -0.1374
     14 C10         3.8056   -5.5648   -2.2033 C.3       1 <0>        -0.1480
     15 N3         -1.3547   -4.5134    2.4751 N.pl3     1 <0>        -0.5145
     16 H1         -1.6145   -5.4351    2.6295 H         1 <0>         0.4367
     17 C11        -2.0346   -3.4010    2.8692 C.2       1 <0>         0.3401
     18 N4         -1.3747   -2.3269    2.4814 N.2       1 <0>        -0.4837
     19 C12        -3.3101   -3.3980    3.6137 C.ar      1 <0>        -0.0657
     20 C13        -3.9128   -4.6051    3.9751 C.ar      1 <0>        -0.0542
     21 C14        -5.1027   -4.5980    4.6695 C.ar      1 <0>        -0.1387
     22 C15        -5.7034   -3.3923    5.0099 C.ar      1 <0>         0.1457
     23 C16        -5.1073   -2.1895    4.6519 C.ar      1 <0>        -0.2098
     24 C17        -3.9140   -2.1879    3.9633 C.ar      1 <0>        -0.0207
     25 O3         -6.8764   -3.3895    5.6940 O.3       1 <0>        -0.2870
     26 C18        -7.4391   -2.1150    6.0117 C.3       1 <0>         0.0400
     27 C19        -8.7293   -2.3094    6.7658 C.2       1 <0>         0.5236
     28 O4         -9.1277   -3.4291    7.0073 O.2       1 <0>        -0.4949
     29 N5         -9.4404   -1.2389    7.1718 N.am      1 <0>        -0.7330
     30 C20       -10.6947   -1.4279    7.9048 C.3       1 <0>         0.0930
     31 C21       -11.2971   -0.0632    8.2450 C.3       1 <0>        -0.0193
     32 N6        -12.5548   -0.2527    8.9800 N.4       1 <0>        -0.6320
     33 H2          1.0039    1.9031    0.0027 H         1 <0>         0.0600
     34 H3         -0.5459    1.8868   -0.8726 H         1 <0>         0.0609
     35 H4         -0.5289    1.8773    0.9072 H         1 <0>         0.0576
     36 H5         -1.0205   -0.3814    0.0098 H         1 <0>         0.0670
     37 H6          0.5123   -0.3556   -0.8948 H         1 <0>         0.0690
     38 H7          1.7647   -0.1336    1.2338 H         1 <0>         0.1016
     39 H8          0.2319   -0.1594    2.1383 H         1 <0>         0.0980
     40 H9          3.8466   -4.0071    0.0334 H         1 <0>         0.1045
     41 H10         3.1521   -5.5940    0.4430 H         1 <0>         0.1025
     42 H11         1.7404   -5.5018   -1.5935 H         1 <0>         0.0669
     43 H12         2.4349   -3.9149   -2.0031 H         1 <0>         0.0692
     44 H13         3.5678   -5.7318   -3.2538 H         1 <0>         0.0622
     45 H14         4.6918   -4.9347   -2.1271 H         1 <0>         0.0604
     46 H15         3.9973   -6.5215   -1.7175 H         1 <0>         0.0594
     47 H16        -3.4469   -5.5427    3.7102 H         1 <0>         0.1344
     48 H17        -5.5694   -5.5309    4.9493 H         1 <0>         0.1444
     49 H18        -5.5777   -1.2543    4.9178 H         1 <0>         0.1367
     50 H19        -3.4487   -1.2525    3.6898 H         1 <0>         0.1478
     51 H20        -6.7387   -1.5523    6.6290 H         1 <0>         0.1028
     52 H21        -7.6354   -1.5649    5.0914 H         1 <0>         0.1028
     53 H22        -9.1218   -0.3433    6.9786 H         1 <0>         0.4114
     54 H23       -11.3950   -1.9906    7.2875 H         1 <0>         0.0931
     55 H24       -10.4983   -1.9780    8.8251 H         1 <0>         0.0931
     56 H25       -10.5968    0.4994    8.8622 H         1 <0>         0.1426
     57 H26       -11.4935    0.4868    7.3247 H         1 <0>         0.1426
     58 H27       -13.2031   -0.7736    8.4086 H         1 <0>         0.4398
     59 H28       -12.3731   -0.7620    9.8319 H         1 <0>         0.4398
     60 H29       -12.9521    0.6472    9.2044 H         1 <0>         0.4453
@<TRIPOS>BOND
     1    1    2 1
     2    1   33 1
     3    1   34 1
     4    1   35 1
     5    2    3 1
     6    2   36 1
     7    2   37 1
     8    3    4 1
     9    3   38 1
    10    3   39 1
    11    4   10 am
    12    4    5 1
    13    5   18 1
    14    5    6 2
    15    6    7 1
    16    6   15 1
    17    7    8 2
    18    7    9 am
    19    9   10 am
    20    9   12 1
    21   10   11 2
    22   12   13 1
    23   12   40 1
    24   12   41 1
    25   13   14 1
    26   13   42 1
    27   13   43 1
    28   14   44 1
    29   14   45 1
    30   14   46 1
    31   15   16 1
    32   15   17 1
    33   17   18 2
    34   17   19 1
    35   19   24 ar
    36   19   20 ar
    37   20   21 ar
    38   20   47 1
    39   21   22 ar
    40   21   48 1
    41   22   23 ar
    42   22   25 1
    43   23   24 ar
    44   23   49 1
    45   24   50 1
    46   25   26 1
    47   26   27 1
    48   26   51 1
    49   26   52 1
    50   27   28 2
    51   27   29 am
    52   29   30 1
    53   29   53 1
    54   30   31 1
    55   30   54 1
    56   30   55 1
    57   31   32 1
    58   31   56 1
    59   31   57 1
    60   32   58 1
    61   32   59 1
    62   32   60 1
@<TRIPOS>MOLECULE
ZINC04475274
   62    65     0     0     0
SMALL
USER_CHARGES

@<TRIPOS>ATOM
      1 C1         -0.0642    1.5178    0.0741 C.3       1 <0>        -0.1472
      2 C2         -0.0386   -0.0119    0.0578 C.3       1 <0>        -0.1385
      3 C3          0.6856   -0.4965   -1.1998 C.3       1 <0>         0.1189
      4 N1          0.7101   -1.9612   -1.2154 N.am      1 <0>        -0.5084
      5 C4         -0.3212   -2.6643   -1.8191 C.2       1 <0>         0.3302
      6 C5         -0.2733   -4.0549   -1.8198 C.2       1 <0>        -0.1466
      7 C6          0.8186   -4.7053   -1.2088 C.2       1 <0>         0.5932
      8 O1          0.8829   -5.9217   -1.1971 O.2       1 <0>        -0.5104
      9 N2          1.7915   -3.9653   -0.6378 N.am      1 <0>        -0.5483
     10 C7          1.7366   -2.6224   -0.6484 C.2       1 <0>         0.7076
     11 O2          2.6346   -1.9885   -0.1285 O.2       1 <0>        -0.5281
     12 C8          2.9279   -4.6357   -0.0012 C.3       1 <0>         0.1136
     13 C9          4.0396   -4.8442   -1.0316 C.3       1 <0>        -0.1379
     14 C10         5.2264   -5.5443   -0.3668 C.3       1 <0>        -0.1474
     15 N3         -1.4100   -4.4856   -2.4782 N.pl3     1 <0>        -0.5161
     16 C11        -2.0969   -3.3692   -2.8483 C.2       1 <0>         0.3483
     17 N4         -1.4368   -2.2993   -2.4494 N.2       1 <0>        -0.4851
     18 H1         -1.6684   -5.4055   -2.6448 H         1 <0>         0.4364
     19 C12        -3.3788   -3.3584   -3.5816 C.ar      1 <0>        -0.0753
     20 C13        -3.9864   -4.5618   -3.9475 C.ar      1 <0>        -0.0540
     21 C14        -5.1822   -4.5474   -4.6316 C.ar      1 <0>        -0.1416
     22 C15        -5.7835   -3.3382   -4.9580 C.ar      1 <0>         0.1534
     23 C16        -5.1821   -2.1391   -4.5962 C.ar      1 <0>        -0.2112
     24 C17        -3.9897   -2.1449   -3.9062 C.ar      1 <0>        -0.0187
     25 O3         -6.9618   -3.3283   -5.6326 O.3       1 <0>        -0.2842
     26 C18        -7.5249   -2.0504   -5.9361 C.3       1 <0>         0.0401
     27 C19        -8.8214   -2.2369   -6.6814 C.2       1 <0>         0.5167
     28 O4         -9.2236   -3.3541   -6.9283 O.2       1 <0>        -0.4864
     29 N5         -9.5339   -1.1622   -7.0734 N.am      1 <0>        -0.6700
     30 C20       -10.6835   -1.3313   -7.8462 C.ar      1 <0>         0.1727
     31 C21       -11.5070   -2.4320   -7.6333 C.ar      1 <0>        -0.1229
     32 C22       -12.6419   -2.6024   -8.3942 C.ar      1 <0>        -0.0487
     33 C23       -12.9663   -1.6674   -9.3811 C.ar      1 <0>        -0.0415
     34 C24       -12.1368   -0.5624   -9.5920 C.ar      1 <0>        -0.0491
     35 C25       -11.0063   -0.3958   -8.8237 C.ar      1 <0>        -0.1431
     36 C26       -14.1455   -1.8414  -10.1748 C.1       1 <0>         0.2513
     37 N6        -15.0810   -1.9795  -10.8043 N.1       1 <0>        -0.4127
     38 H2          0.9573    1.8982    0.0737 H         1 <0>         0.0590
     39 H3         -0.5879    1.8819   -0.8098 H         1 <0>         0.0586
     40 H4         -0.5801    1.8630    0.9701 H         1 <0>         0.0607
     41 H5          0.4851   -0.3760    0.9417 H         1 <0>         0.0681
     42 H6         -1.0601   -0.3924    0.0582 H         1 <0>         0.0681
     43 H7          0.1619   -0.1324   -2.0837 H         1 <0>         0.0986
     44 H8          1.7070   -0.1160   -1.2002 H         1 <0>         0.1006
     45 H9          3.3016   -4.0196    0.8167 H         1 <0>         0.1035
     46 H10         2.6079   -5.6020    0.3886 H         1 <0>         0.1018
     47 H11         3.6659   -5.4603   -1.8495 H         1 <0>         0.0673
     48 H12         4.3596   -3.8779   -1.4214 H         1 <0>         0.0694
     49 H13         5.6001   -4.9282    0.4511 H         1 <0>         0.0598
     50 H14         4.9064   -6.5106    0.0231 H         1 <0>         0.0590
     51 H15         6.0184   -5.6929   -1.1008 H         1 <0>         0.0615
     52 H16        -3.5192   -5.5021   -3.6948 H         1 <0>         0.1322
     53 H17        -5.6526   -5.4774   -4.9148 H         1 <0>         0.1444
     54 H18        -5.6523   -1.2012   -4.8524 H         1 <0>         0.1392
     55 H19        -3.5255   -1.2125   -3.6208 H         1 <0>         0.1466
     56 H20        -7.7131   -1.5071   -5.0101 H         1 <0>         0.1036
     57 H21        -6.8286   -1.4841   -6.5546 H         1 <0>         0.1039
     58 H22        -9.2477   -0.2712   -6.8185 H         1 <0>         0.4173
     59 H23       -11.2556   -3.1541   -6.8704 H         1 <0>         0.1500
     60 H24       -13.2804   -3.4576   -8.2288 H         1 <0>         0.1387
     61 H25       -12.3842    0.1619  -10.3540 H         1 <0>         0.1395
     62 H26       -10.3672    0.4601   -8.9831 H         1 <0>         0.1394
@<TRIPOS>BOND
     1    1    2 1
     2    1   38 1
     3    1   39 1
     4    1   40 1
     5    2    3 1
     6    2   41 1
     7    2   42 1
     8    3   43 1
     9    3   44 1
    10    3    4 1
    11    4    5 1
    12    4   10 am
    13    5   17 1
    14    5    6 2
    15    6    7 1
    16    6   15 1
    17    7    9 am
    18    7    8 2
    19    9   10 am
    20    9   12 1
    21   10   11 2
    22   12   13 1
    23   12   45 1
    24   12   46 1
    25   13   14 1
    26   13   47 1
    27   13   48 1
    28   14   49 1
    29   14   50 1
    30   14   51 1
    31   15   18 1
    32   15   16 1
    33   16   19 1
    34   16   17 2
    35   19   24 ar
    36   19   20 ar
    37   20   21 ar
    38   20   52 1
    39   21   22 ar
    40   21   53 1
    41   22   23 ar
    42   22   25 1
    43   23   24 ar
    44   23   54 1
    45   24   55 1
    46   25   26 1
    47   26   27 1
    48   26   56 1
    49   26   57 1
    50   27   28 2
    51   27   29 am
    52   29   30 1
    53   29   58 1
    54   30   35 ar
    55   30   31 ar
    56   31   32 ar
    57   31   59 1
    58   32   33 ar
    59   32   60 1
    60   33   34 ar
    61   33   36 1
    62   34   35 ar
    63   34   61 1
    64   35   62 1
    65   36   37 3
@<TRIPOS>MOLECULE
ZINC03861807
   30    31     0     0     0
SMALL
USER_CHARGES

@<TRIPOS>ATOM
      1 C1         -0.0187    1.5258    0.0104 C.3       1 <0>        -0.1415
      2 C2          0.0021   -0.0041    0.0020 C.3       1 <0>        -0.1122
      3 C3          0.7421   -0.5109    1.2415 C.3       1 <0>        -0.1434
      4 C4         -1.4333   -0.5336    0.0129 C.3       1 <0>         0.1228
      5 N1         -2.1054   -0.1483   -1.2305 N.am      1 <0>        -0.5064
      6 C5         -2.7896    1.0542   -1.3029 C.2       1 <0>         0.3270
      7 C6         -3.4188    1.3971   -2.4931 C.2       1 <0>        -0.1566
      8 C7         -3.3428    0.5129   -3.5907 C.2       1 <0>         0.5930
      9 O1         -3.8857    0.7913   -4.6449 O.2       1 <0>        -0.5148
     10 N2         -2.6613   -0.6442   -3.4587 N.am      1 <0>        -0.5518
     11 C8         -2.0526   -0.9608   -2.3028 C.2       1 <0>         0.7063
     12 O2         -1.4428   -2.0098   -2.2221 O.2       1 <0>        -0.5287
     13 C9         -2.5785   -1.5664   -4.5940 C.3       1 <0>         0.0827
     14 N3         -4.0103    2.6257   -2.2774 N.pl3     1 <0>        -0.5187
     15 H1         -4.5284    3.1372   -2.9183 H         1 <0>         0.4381
     16 C10        -3.7321    2.9790   -1.0073 C.2       1 <0>         0.2767
     17 N4         -3.0113    2.0471   -0.4377 N.2       1 <0>        -0.4957
     18 H2          1.0039    1.9031    0.0027 H         1 <0>         0.0532
     19 H3         -0.5459    1.8868   -0.8726 H         1 <0>         0.0473
     20 H4         -0.5289    1.8773    0.9072 H         1 <0>         0.0653
     21 H5          0.5123   -0.3556   -0.8948 H         1 <0>         0.0742
     22 H6          0.2319   -0.1594    2.1383 H         1 <0>         0.0596
     23 H7          0.7568   -1.6008    1.2356 H         1 <0>         0.0591
     24 H8          1.7647   -0.1336    1.2338 H         1 <0>         0.0613
     25 H9         -1.4190   -1.6203    0.0965 H         1 <0>         0.1003
     26 H10        -1.9701   -0.1109    0.8621 H         1 <0>         0.1000
     27 H11        -3.1215   -1.1486   -5.4417 H         1 <0>         0.1034
     28 H12        -1.5337   -1.7124   -4.8680 H         1 <0>         0.0826
     29 H13        -3.0188   -2.5242   -4.3168 H         1 <0>         0.0828
     30 H14        -4.0547    3.8934   -0.5315 H         1 <0>         0.2343
@<TRIPOS>BOND
     1    1    2 1
     2    1   18 1
     3    1   19 1
     4    1   20 1
     5    2    3 1
     6    2    4 1
     7    2   21 1
     8    3   22 1
     9    3   23 1
    10    3   24 1
    11    4    5 1
    12    4   25 1
    13    4   26 1
    14    5   11 am
    15    5    6 1
    16    6   17 1
    17    6    7 2
    18    7    8 1
    19    7   14 1
    20    8    9 2
    21    8   10 am
    22   10   11 am
    23   10   13 1
    24   11   12 2
    25   13   27 1
    26   13   28 1
    27   13   29 1
    28   14   15 1
    29   14   16 1
    30   16   17 2
    31   16   30 1
@<TRIPOS>MOLECULE
ZINC00057674
   27    29     0     0     0
SMALL
USER_CHARGES

@<TRIPOS>ATOM
      1 C1         -0.0167    1.3795    0.0096 C.ar      1 <0>        -0.0927
      2 C2          1.1683    2.0941    0.0021 C.ar      1 <0>        -0.1234
      3 C3          2.3774    1.4305   -0.0134 C.ar      1 <0>        -0.0788
      4 C4          2.4038    0.0341   -0.0211 C.ar      1 <0>        -0.0759
      5 C5          1.2040   -0.6806   -0.0130 C.ar      1 <0>        -0.0797
      6 C6          0.0021   -0.0041    0.0020 C.ar      1 <0>        -0.1211
      7 C7          3.6944   -0.6832   -0.0382 C.2       1 <0>         0.2130
      8 C8          3.6862   -2.0434   -0.0509 C.2       1 <0>        -0.3188
      9 C9          4.9130   -2.7475   -0.0679 C.2       1 <0>         0.4216
     10 O1          4.9443   -3.9668   -0.0801 O.2       1 <0>        -0.4694
     11 C10         6.1541   -1.9476   -0.0708 C.ar      1 <0>        -0.2229
     12 C11         7.4082   -2.5556   -0.0877 C.ar      1 <0>        -0.0309
     13 C12         8.5427   -1.7738   -0.0903 C.ar      1 <0>        -0.1474
     14 C13         8.4391   -0.3905   -0.0763 C.ar      1 <0>        -0.0567
     15 C14         7.2043    0.2225   -0.0592 C.ar      1 <0>        -0.1399
     16 C15         6.0479   -0.5480   -0.0567 C.ar      1 <0>         0.1453
     17 O2          4.8296    0.0320   -0.0461 O.3       1 <0>        -0.2207
     18 H1         -0.9606    1.9042    0.0260 H         1 <0>         0.1308
     19 H2          1.1464    3.1738    0.0081 H         1 <0>         0.1325
     20 H3          3.3015    1.9894   -0.0199 H         1 <0>         0.1349
     21 H4          1.2172   -1.7605   -0.0192 H         1 <0>         0.1361
     22 H5         -0.9265   -0.5555    0.0082 H         1 <0>         0.1346
     23 H6          2.7500   -2.5817   -0.0478 H         1 <0>         0.1622
     24 H7          7.4901   -3.6324   -0.0982 H         1 <0>         0.1431
     25 H8          9.5169   -2.2399   -0.1029 H         1 <0>         0.1378
     26 H9          9.3351    0.2126   -0.0785 H         1 <0>         0.1423
     27 H10         7.1359    1.3003   -0.0477 H         1 <0>         0.1443
@<TRIPOS>BOND
     1    1    6 ar
     2    1    2 ar
     3    1   18 1
     4    2    3 ar
     5    2   19 1
     6    3    4 ar
     7    3   20 1
     8    4    5 ar
     9    4    7 1
    10    5    6 ar
    11    5   21 1
    12    6   22 1
    13    7   17 1
    14    7    8 2
    15    8    9 1
    16    8   23 1
    17    9   10 2
    18    9   11 1
    19   11   16 ar
    20   11   12 ar
    21   12   13 ar
    22   12   24 1
    23   13   14 ar
    24   13   25 1
    25   14   15 ar
    26   14   26 1
    27   15   16 ar
    28   15   27 1
    29   16   17 1
@<TRIPOS>MOLECULE
ZINC02516057
   36    37     0     0     0
SMALL
USER_CHARGES

@<TRIPOS>ATOM
      1 C1         -0.0187    1.5258    0.0104 C.3       1 <0>        -0.1474
      2 C2          0.0021   -0.0041    0.0020 C.3       1 <0>        -0.1381
      3 C3          0.7182   -0.4975   -1.2568 C.3       1 <0>         0.1194
      4 N1          0.7381   -1.9623   -1.2648 N.am      1 <0>        -0.5083
      5 C4          1.7899   -2.6430   -0.6733 C.2       1 <0>         0.3194
      6 C5          1.7858   -4.0321   -0.6940 C.2       1 <0>        -0.1571
      7 C6          0.7133   -4.7075   -1.3154 C.2       1 <0>         0.5952
      8 O1          0.6868   -5.9248   -1.3462 O.2       1 <0>        -0.5130
      9 N2         -0.2825   -3.9887   -1.8744 N.am      1 <0>        -0.5494
     10 C7         -0.2685   -2.6450   -1.8422 C.2       1 <0>         0.7072
     11 O2         -1.1858   -2.0304   -2.3516 O.2       1 <0>        -0.5303
     12 C8         -1.3986   -4.6834   -2.5209 C.3       1 <0>         0.1141
     13 C9         -2.5024   -4.9418   -1.4933 C.3       1 <0>        -0.1375
     14 C10        -3.6680   -5.6673   -2.1685 C.3       1 <0>        -0.1473
     15 N3          2.9356   -4.4316   -0.0428 N.pl3     1 <0>        -0.4127
     16 C11         3.5803   -3.3122    0.3401 C.2       1 <0>         0.2667
     17 N4          2.8987   -2.2600   -0.0352 N.2       1 <0>        -0.4981
     18 C12         3.3717   -5.8109    0.1887 C.3       1 <0>         0.0688
     19 H1          1.0039    1.9031    0.0027 H         1 <0>         0.0590
     20 H2         -0.5459    1.8868   -0.8726 H         1 <0>         0.0589
     21 H3         -0.5289    1.8773    0.9072 H         1 <0>         0.0606
     22 H4          0.5293   -0.3651    0.8851 H         1 <0>         0.0677
     23 H5         -1.0205   -0.3814    0.0098 H         1 <0>         0.0674
     24 H6          0.1910   -0.1364   -2.1398 H         1 <0>         0.0998
     25 H7          1.7408   -0.1202   -1.2645 H         1 <0>         0.0985
     26 H8         -1.7917   -4.0663   -3.3288 H         1 <0>         0.1029
     27 H9         -1.0497   -5.6333   -2.9260 H         1 <0>         0.1012
     28 H10        -2.1094   -5.5590   -0.6854 H         1 <0>         0.0667
     29 H11        -2.8513   -3.9920   -1.0882 H         1 <0>         0.0690
     30 H12        -4.4543   -5.8514   -1.4364 H         1 <0>         0.0614
     31 H13        -4.0610   -5.0502   -2.9764 H         1 <0>         0.0599
     32 H14        -3.3191   -6.6172   -2.5735 H         1 <0>         0.0588
     33 H15         4.5175   -3.2871    0.8762 H         1 <0>         0.2308
     34 H16         3.9892   -6.1417   -0.6463 H         1 <0>         0.0875
     35 H17         3.9513   -5.8588    1.1106 H         1 <0>         0.0981
     36 H18         2.4990   -6.4583    0.2742 H         1 <0>         0.1001
@<TRIPOS>BOND
     1    1    2 1
     2    1   19 1
     3    1   20 1
     4    1   21 1
     5    2    3 1
     6    2   22 1
     7    2   23 1
     8    3    4 1
     9    3   24 1
    10    3   25 1
    11    4   10 am
    12    4    5 1
    13    5   17 1
    14    5    6 2
    15    6    7 1
    16    6   15 1
    17    7    8 2
    18    7    9 am
    19    9   10 am
    20    9   12 1
    21   10   11 2
    22   12   13 1
    23   12   26 1
    24   12   27 1
    25   13   14 1
    26   13   28 1
    27   13   29 1
    28   14   30 1
    29   14   31 1
    30   14   32 1
    31   15   16 1
    32   15   18 1
    33   16   17 2
    34   16   33 1
    35   18   34 1
    36   18   35 1
    37   18   36 1
@<TRIPOS>MOLECULE
ZINC13826983
   47    49     0     0     0
SMALL
USER_CHARGES
1,3-dimethyl-8-[(E)-2-(2,3,4-trimethoxyphenyl)vinyl]-7H-purine-2,6-dione
@<TRIPOS>ATOM
      1 C1         -1.3614    4.8321    2.7593 C.3       1 <0>         0.0888
      2 N1         -1.0806    3.3976    2.6612 N.am      1 <0>        -0.5115
      3 C2         -1.5803    2.5272    3.6182 C.2       1 <0>         0.3282
      4 C3         -1.2981    1.1685    3.5006 C.2       1 <0>        -0.1474
      5 C4         -0.5162    0.7208    2.4171 C.2       1 <0>         0.5931
      6 O1         -0.2564   -0.4631    2.2929 O.2       1 <0>        -0.5148
      7 N2         -0.0589    1.6172    1.5187 N.am      1 <0>        -0.5514
      8 C5         -0.3335    2.9268    1.6452 C.2       1 <0>         0.7072
      9 O2          0.1000    3.7056    0.8180 O.2       1 <0>        -0.5299
     10 C6          0.7547    1.1567    0.3908 C.3       1 <0>         0.0829
     11 N3         -1.9112    0.5450    4.5729 N.pl3     1 <0>        -0.5202
     12 H1         -1.9006   -0.4332    4.7804 H         1 <0>         0.4447
     13 C7         -2.5338    1.5246    5.2933 C.2       1 <0>         0.3397
     14 N4         -2.3245    2.6932    4.7089 N.2       1 <0>        -0.4899
     15 C8         -3.3087    1.3150    6.5166 C.2       1 <0>        -0.1344
     16 C9         -3.8796    2.3659    7.1422 C.2       1 <0>        -0.0040
     17 C10        -4.6578    2.1554    8.3705 C.ar      1 <0>        -0.1222
     18 C11        -4.8138    0.8654    8.8913 C.ar      1 <0>        -0.0502
     19 C12        -5.5391    0.6717   10.0454 C.ar      1 <0>        -0.2053
     20 C13        -6.1288    1.7516   10.6922 C.ar      1 <0>         0.1392
     21 C14        -5.9858    3.0375   10.1822 C.ar      1 <0>         0.0397
     22 C15        -5.2526    3.2462    9.0233 C.ar      1 <0>         0.1468
     23 O3         -5.1104    4.5010    8.5227 O.3       1 <0>        -0.3260
     24 C16        -6.1369    4.9698    7.6460 C.3       1 <0>         0.0378
     25 O4         -6.5655    4.0910   10.8198 O.3       1 <0>        -0.3187
     26 C17        -5.7899    4.7480   11.8242 C.3       1 <0>         0.0371
     27 O5         -6.8477    1.5500   11.8276 O.3       1 <0>        -0.3009
     28 C18        -6.9551    0.2047   12.2971 C.3       1 <0>         0.0218
     29 H2         -0.5798    5.3162    3.3448 H         1 <0>         0.0739
     30 H3         -1.3881    5.2662    1.7598 H         1 <0>         0.0939
     31 H4         -2.3251    4.9813    3.2461 H         1 <0>         0.0924
     32 H5          0.8790    0.0754    0.4500 H         1 <0>         0.1037
     33 H6          1.7323    1.6374    0.4278 H         1 <0>         0.0828
     34 H7          0.2582    1.4147   -0.5446 H         1 <0>         0.0828
     35 H8         -3.4240    0.3194    6.9189 H         1 <0>         0.1433
     36 H9         -3.7644    3.3615    6.7399 H         1 <0>         0.1444
     37 H10        -4.3616    0.0224    8.3899 H         1 <0>         0.1401
     38 H11        -5.6542   -0.3240   10.4475 H         1 <0>         0.1416
     39 H12        -7.1014    4.9079    8.1499 H         1 <0>         0.0548
     40 H13        -5.9359    6.0056    7.3723 H         1 <0>         0.0996
     41 H14        -6.1564    4.3537    6.7471 H         1 <0>         0.0504
     42 H15        -6.3945    5.5172   12.3048 H         1 <0>         0.0951
     43 H16        -5.4688    4.0201   12.5693 H         1 <0>         0.0459
     44 H17        -4.9150    5.2078   11.3648 H         1 <0>         0.0503
     45 H18        -7.4341   -0.4092   11.5344 H         1 <0>         0.0601
     46 H19        -5.9600   -0.1875   12.5070 H         1 <0>         0.0593
     47 H20        -7.5532    0.1845   13.2082 H         1 <0>         0.1054
@<TRIPOS>BOND
     1    1    2 1
     2    1   29 1
     3    1   30 1
     4    1   31 1
     5    2    8 am
     6    2    3 1
     7    3   14 1
     8    3    4 2
     9    4    5 1
    10    4   11 1
    11    5    6 2
    12    5    7 am
    13    7    8 am
    14    7   10 1
    15    8    9 2
    16   10   32 1
    17   10   33 1
    18   10   34 1
    19   11   12 1
    20   11   13 1
    21   13   14 2
    22   13   15 1
    23   15   16 2
    24   15   35 1
    25   16   17 1
    26   16   36 1
    27   17   22 ar
    28   17   18 ar
    29   18   19 ar
    30   18   37 1
    31   19   20 ar
    32   19   38 1
    33   20   21 ar
    34   20   27 1
    35   21   22 ar
    36   21   25 1
    37   22   23 1
    38   23   24 1
    39   24   39 1
    40   24   40 1
    41   24   41 1
    42   25   26 1
    43   26   42 1
    44   26   43 1
    45   26   44 1
    46   27   28 1
    47   28   45 1
    48   28   46 1
    49   28   47 1
@<TRIPOS>MOLECULE
ZINC13826983
   48    50     0     0     0
SMALL
USER_CHARGES
1,3-dimethyl-8-[(E)-2-(2,3,4-trimethoxyphenyl)vinyl]-7H-purine-2,6-dione
@<TRIPOS>ATOM
      1 C1         -1.3614    4.8321    2.7593 C.3       1 <0>         0.0631
      2 N1         -1.0806    3.3976    2.6612 N.am      1 <0>        -0.5136
      3 C2         -1.5803    2.5272    3.6182 C.2       1 <0>         0.3548
      4 C3         -1.2981    1.1685    3.5006 C.2       1 <0>        -0.0720
      5 C4         -0.5162    0.7208    2.4171 C.2       1 <0>         0.5879
      6 O1         -0.2564   -0.4631    2.2929 O.2       1 <0>        -0.4678
      7 N2         -0.0589    1.6172    1.5187 N.am      1 <0>        -0.5417
      8 C5         -0.3335    2.9268    1.6452 C.2       1 <0>         0.7078
      9 O2          0.1000    3.7056    0.8180 O.2       1 <0>        -0.4821
     10 C6          0.7547    1.1567    0.3908 C.3       1 <0>         0.0747
     11 N3         -1.9112    0.5450    4.5729 N.pl3     1 <0>        -0.4662
     12 H1         -1.9006   -0.4332    4.7804 H         1 <0>         0.4844
     13 C7         -2.5338    1.5246    5.2933 C.cat     1 <0>         0.4401
     14 C8         -3.3087    1.3150    6.5166 C.2       1 <0>        -0.2063
     15 C9         -3.8796    2.3659    7.1422 C.2       1 <0>         0.0644
     16 C10        -4.6578    2.1554    8.3705 C.ar      1 <0>        -0.1647
     17 C11        -4.8138    0.8654    8.8913 C.ar      1 <0>        -0.0257
     18 C12        -5.5391    0.6717   10.0454 C.ar      1 <0>        -0.2101
     19 C13        -6.1288    1.7516   10.6922 C.ar      1 <0>         0.1714
     20 C14        -5.9858    3.0375   10.1822 C.ar      1 <0>         0.0377
     21 C15        -5.2526    3.2462    9.0233 C.ar      1 <0>         0.1654
     22 O3         -5.1104    4.5010    8.5227 O.3       1 <0>        -0.3298
     23 C16        -6.1369    4.9698    7.6460 C.3       1 <0>         0.0331
     24 O4         -6.5655    4.0910   10.8198 O.3       1 <0>        -0.3162
     25 C17        -5.7899    4.7480   11.8242 C.3       1 <0>         0.0356
     26 O5         -6.8477    1.5500   11.8276 O.3       1 <0>        -0.2919
     27 C18        -6.9551    0.2047   12.2971 C.3       1 <0>         0.0172
     28 H2         -0.5798    5.3162    3.3448 H         1 <0>         0.0963
     29 H3         -1.3881    5.2662    1.7598 H         1 <0>         0.1208
     30 H4         -2.3251    4.9813    3.2461 H         1 <0>         0.0893
     31 H5          0.8790    0.0754    0.4500 H         1 <0>         0.1135
     32 H6          1.7323    1.6374    0.4278 H         1 <0>         0.0946
     33 H7          0.2582    1.4147   -0.5446 H         1 <0>         0.0946
     34 H8         -3.4240    0.3194    6.9189 H         1 <0>         0.1798
     35 H9         -3.7644    3.3615    6.7399 H         1 <0>         0.1326
     36 H10        -4.3616    0.0224    8.3899 H         1 <0>         0.1453
     37 H11        -5.6542   -0.3240   10.4475 H         1 <0>         0.1507
     38 H12        -7.1014    4.9079    8.1499 H         1 <0>         0.0639
     39 H13        -5.9359    6.0056    7.3723 H         1 <0>         0.1056
     40 H14        -6.1564    4.3537    6.7471 H         1 <0>         0.0474
     41 H15        -6.3945    5.5172   12.3048 H         1 <0>         0.1014
     42 H16        -5.4688    4.0201   12.5693 H         1 <0>         0.0497
     43 H17        -4.9150    5.2078   11.3648 H         1 <0>         0.0514
     44 H18        -7.4341   -0.4092   11.5344 H         1 <0>         0.0654
     45 H19        -5.9600   -0.1875   12.5070 H         1 <0>         0.0646
     46 H20        -7.5532    0.1845   13.2082 H         1 <0>         0.1133
     47 N4         -2.3254    2.6955    4.7098 N.pl3     1 <0>        -0.5094
     48 H21        -2.6839    3.5964    5.0476 H         1 <0>         0.4796
@<TRIPOS>BOND
     1    1    2 1
     2    1   28 1
     3    1   29 1
     4    1   30 1
     5    2    8 am
     6    2    3 1
     7    3    4 2
     8    3   47 1
     9    4    5 1
    10    4   11 1
    11    5    6 2
    12    5    7 am
    13    7    8 am
    14    7   10 1
    15    8    9 2
    16   10   31 1
    17   10   32 1
    18   10   33 1
    19   11   12 1
    20   11   13 1
    21   13   14 1
    22   13   47 2
    23   14   15 2
    24   14   34 1
    25   15   16 1
    26   15   35 1
    27   16   21 ar
    28   16   17 ar
    29   17   18 ar
    30   17   36 1
    31   18   19 ar
    32   18   37 1
    33   19   20 ar
    34   19   26 1
    35   20   21 ar
    36   20   24 1
    37   21   22 1
    38   22   23 1
    39   23   38 1
    40   23   39 1
    41   23   40 1
    42   24   25 1
    43   25   41 1
    44   25   42 1
    45   25   43 1
    46   26   27 1
    47   27   44 1
    48   27   45 1
    49   27   46 1
    50   47   48 1
@<TRIPOS>MOLECULE
ZINC13826961
   43    45     0     0     0
SMALL
USER_CHARGES
8-[(E)-2-(2,3-dimethoxyphenyl)vinyl]-1,3-dimethyl-7H-purine-2,6-dione
@<TRIPOS>ATOM
      1 C1         -6.7282    1.1574   -0.8825 C.3       1 <0>         0.0853
      2 N1         -6.8185    0.5890   -2.2297 N.am      1 <0>        -0.5116
      3 C2         -5.6878    0.0631   -2.8365 C.2       1 <0>         0.3277
      4 C3         -5.8020   -0.4714   -4.1174 C.2       1 <0>        -0.1453
      5 C4         -7.0587   -0.4617   -4.7561 C.2       1 <0>         0.5934
      6 O1         -7.1838   -0.9238   -5.8764 O.2       1 <0>        -0.5137
      7 N2         -8.1214    0.0645   -4.1129 N.am      1 <0>        -0.5513
      8 C5         -7.9989    0.5775   -2.8767 C.2       1 <0>         0.7082
      9 O2         -8.9793    1.0435   -2.3288 O.2       1 <0>        -0.5308
     10 C6         -9.4297    0.0766   -4.7721 C.3       1 <0>         0.0828
     11 N3         -4.5415   -0.9166   -4.4716 N.pl3     1 <0>        -0.5184
     12 H1         -4.2831   -1.3533   -5.3333 H         1 <0>         0.4452
     13 C7         -3.7178   -0.6444   -3.4167 C.2       1 <0>         0.3351
     14 N4         -4.4196   -0.0678   -2.4550 N.2       1 <0>        -0.4865
     15 C8         -2.2868   -0.9483   -3.3573 C.2       1 <0>        -0.1194
     16 C9         -1.5752   -0.6304   -2.2569 C.2       1 <0>        -0.0167
     17 C10        -0.1378   -0.9357   -2.1972 C.ar      1 <0>        -0.0563
     18 C11         0.4963   -1.5517   -3.2821 C.ar      1 <0>        -0.1276
     19 C12         1.8420   -1.8405   -3.2196 C.ar      1 <0>        -0.0840
     20 C13         2.5746   -1.5203   -2.0885 C.ar      1 <0>        -0.1868
     21 C14         1.9623   -0.9059   -1.0080 C.ar      1 <0>         0.1105
     22 C15         0.6055   -0.6069   -1.0553 C.ar      1 <0>         0.0886
     23 O3          0.0021   -0.0041    0.0020 O.3       1 <0>        -0.3212
     24 C16        -0.0173    1.4248    0.0099 C.3       1 <0>         0.0346
     25 O4          2.6889   -0.5950    0.0988 O.3       1 <0>        -0.3054
     26 C17         4.0777   -0.9310    0.0786 C.3       1 <0>         0.0235
     27 H2         -7.7094    1.5180   -0.5738 H         1 <0>         0.1034
     28 H3         -6.3875    0.3906   -0.1867 H         1 <0>         0.0802
     29 H4         -6.0205    1.9864   -0.8846 H         1 <0>         0.0796
     30 H5         -9.3430   -0.3761   -5.7599 H         1 <0>         0.1038
     31 H6        -10.1432   -0.4903   -4.1740 H         1 <0>         0.0830
     32 H7         -9.7763    1.1051   -4.8729 H         1 <0>         0.0830
     33 H8         -1.8012   -1.4271   -4.1948 H         1 <0>         0.1457
     34 H9         -2.0608   -0.1516   -1.4194 H         1 <0>         0.1455
     35 H10        -0.0699   -1.8043   -4.1664 H         1 <0>         0.1345
     36 H11         2.3281   -2.3193   -4.0568 H         1 <0>         0.1337
     37 H12         3.6289   -1.7513   -2.0484 H         1 <0>         0.1361
     38 H13         1.0053    1.8021    0.0021 H         1 <0>         0.0479
     39 H14        -0.5445    1.7859   -0.8732 H         1 <0>         0.0477
     40 H15        -0.5275    1.7763    0.9067 H         1 <0>         0.0975
     41 H16         4.5381   -0.6296    1.0195 H         1 <0>         0.1038
     42 H17         4.1892   -2.0073   -0.0521 H         1 <0>         0.0580
     43 H18         4.5650   -0.4123   -0.7469 H         1 <0>         0.0568
@<TRIPOS>BOND
     1    1    2 1
     2    1   27 1
     3    1   28 1
     4    1   29 1
     5    2    8 am
     6    2    3 1
     7    3   14 1
     8    3    4 2
     9    4    5 1
    10    4   11 1
    11    5    6 2
    12    5    7 am
    13    7    8 am
    14    7   10 1
    15    8    9 2
    16   10   30 1
    17   10   31 1
    18   10   32 1
    19   11   12 1
    20   11   13 1
    21   13   14 2
    22   13   15 1
    23   15   16 2
    24   15   33 1
    25   16   17 1
    26   16   34 1
    27   17   22 ar
    28   17   18 ar
    29   18   19 ar
    30   18   35 1
    31   19   20 ar
    32   19   36 1
    33   20   21 ar
    34   20   37 1
    35   21   22 ar
    36   21   25 1
    37   22   23 1
    38   23   24 1
    39   24   38 1
    40   24   39 1
    41   24   40 1
    42   25   26 1
    43   26   41 1
    44   26   42 1
    45   26   43 1
@<TRIPOS>MOLECULE
ZINC13826961
   44    46     0     0     0
SMALL
USER_CHARGES
8-[(E)-2-(2,3-dimethoxyphenyl)vinyl]-1,3-dimethyl-7H-purine-2,6-dione
@<TRIPOS>ATOM
      1 C1         -6.7282    1.1574   -0.8825 C.3       1 <0>         0.0536
      2 N1         -6.8185    0.5890   -2.2297 N.am      1 <0>        -0.5132
      3 C2         -5.6878    0.0631   -2.8365 C.2       1 <0>         0.3559
      4 C3         -5.8020   -0.4714   -4.1174 C.2       1 <0>        -0.0703
      5 C4         -7.0587   -0.4617   -4.7561 C.2       1 <0>         0.5880
      6 O1         -7.1838   -0.9238   -5.8764 O.2       1 <0>        -0.4664
      7 N2         -8.1214    0.0645   -4.1129 N.am      1 <0>        -0.5415
      8 C5         -7.9989    0.5775   -2.8767 C.2       1 <0>         0.7085
      9 O2         -8.9793    1.0435   -2.3288 O.2       1 <0>        -0.4827
     10 C6         -9.4297    0.0766   -4.7721 C.3       1 <0>         0.0746
     11 N3         -4.5415   -0.9166   -4.4716 N.pl3     1 <0>        -0.4622
     12 H1         -4.2831   -1.3533   -5.3333 H         1 <0>         0.4852
     13 C7         -3.7178   -0.6444   -3.4167 C.cat     1 <0>         0.4350
     14 C8         -2.2868   -0.9483   -3.3573 C.2       1 <0>        -0.1881
     15 C9         -1.5752   -0.6304   -2.2569 C.2       1 <0>         0.0509
     16 C10        -0.1378   -0.9357   -2.1972 C.ar      1 <0>        -0.0954
     17 C11         0.4963   -1.5517   -3.2821 C.ar      1 <0>        -0.1074
     18 C12         1.8420   -1.8405   -3.2196 C.ar      1 <0>        -0.0835
     19 C13         2.5746   -1.5203   -2.0885 C.ar      1 <0>        -0.1593
     20 C14         1.9623   -0.9059   -1.0080 C.ar      1 <0>         0.1119
     21 C15         0.6055   -0.6069   -1.0553 C.ar      1 <0>         0.1055
     22 O3          0.0021   -0.0041    0.0020 O.3       1 <0>        -0.3244
     23 C16        -0.0173    1.4248    0.0099 C.3       1 <0>         0.0297
     24 O4          2.6889   -0.5950    0.0988 O.3       1 <0>        -0.3021
     25 C17         4.0777   -0.9310    0.0786 C.3       1 <0>         0.0200
     26 H2         -7.7094    1.5180   -0.5738 H         1 <0>         0.1300
     27 H3         -6.3875    0.3906   -0.1867 H         1 <0>         0.0929
     28 H4         -6.0205    1.9864   -0.8846 H         1 <0>         0.0924
     29 H5         -9.3430   -0.3761   -5.7599 H         1 <0>         0.1136
     30 H6        -10.1432   -0.4903   -4.1740 H         1 <0>         0.0949
     31 H7         -9.7763    1.1051   -4.8729 H         1 <0>         0.0949
     32 H8         -1.8012   -1.4271   -4.1948 H         1 <0>         0.1828
     33 H9         -2.0608   -0.1516   -1.4194 H         1 <0>         0.1340
     34 H10        -0.0699   -1.8043   -4.1664 H         1 <0>         0.1396
     35 H11         2.3281   -2.3193   -4.0568 H         1 <0>         0.1433
     36 H12         3.6289   -1.7513   -2.0484 H         1 <0>         0.1455
     37 H13         1.0053    1.8021    0.0021 H         1 <0>         0.0575
     38 H14        -0.5445    1.7859   -0.8732 H         1 <0>         0.0440
     39 H15        -0.5275    1.7763    0.9067 H         1 <0>         0.1032
     40 H16         4.5381   -0.6296    1.0195 H         1 <0>         0.1104
     41 H17         4.1892   -2.0073   -0.0521 H         1 <0>         0.0625
     42 H18         4.5650   -0.4123   -0.7469 H         1 <0>         0.0613
     43 N4         -4.4186   -0.0670   -2.4527 N.pl3     1 <0>        -0.5060
     44 H19        -4.0411    0.2346   -1.5468 H         1 <0>         0.4809
@<TRIPOS>BOND
     1    1    2 1
     2    1   26 1
     3    1   27 1
     4    1   28 1
     5    2    8 am
     6    2    3 1
     7    3    4 2
     8    3   43 1
     9    4    5 1
    10    4   11 1
    11    5    6 2
    12    5    7 am
    13    7    8 am
    14    7   10 1
    15    8    9 2
    16   10   29 1
    17   10   30 1
    18   10   31 1
    19   11   12 1
    20   11   13 1
    21   13   14 1
    22   13   43 2
    23   14   15 2
    24   14   32 1
    25   15   16 1
    26   15   33 1
    27   16   21 ar
    28   16   17 ar
    29   17   18 ar
    30   17   34 1
    31   18   19 ar
    32   18   35 1
    33   19   20 ar
    34   19   36 1
    35   20   21 ar
    36   20   24 1
    37   21   22 1
    38   22   23 1
    39   23   37 1
    40   23   38 1
    41   23   39 1
    42   24   25 1
    43   25   40 1
    44   25   41 1
    45   25   42 1
    46   43   44 1
@<TRIPOS>MOLECULE
ZINC01652977
   40    42     0     0     0
SMALL
USER_CHARGES
8-cyclohexyl-1,3,7-trimethyl-purine-2,6-dione
@<TRIPOS>ATOM
      1 C1         -0.0178    1.4608    0.0101 C.3       1 <0>         0.0661
      2 N1          0.0021   -0.0041    0.0020 N.pl3     1 <0>        -0.4081
      3 C2         -0.0034   -0.8194   -1.1120 C.2       1 <0>        -0.1572
      4 C3          0.0241   -2.1251   -0.6384 C.2       1 <0>         0.3192
      5 N2          0.0362   -2.0620    0.6956 N.2       1 <0>        -0.4880
      6 C4          0.0233   -0.8113    1.0805 C.2       1 <0>         0.2954
      7 C5          0.0305   -0.3446    2.5134 C.3       1 <0>        -0.0064
      8 C6          1.2935   -0.8553    3.2098 C.3       1 <0>        -0.1078
      9 C7          1.3008   -0.3815    4.6645 C.3       1 <0>        -0.1187
     10 C8          0.0657   -0.9262    5.3846 C.3       1 <0>        -0.1234
     11 C9         -1.1973   -0.4155    4.6882 C.3       1 <0>        -0.1187
     12 C10        -1.2046   -0.8893    3.2335 C.3       1 <0>        -0.1085
     13 N3          0.0291   -3.1675   -1.5510 N.am      1 <0>        -0.5098
     14 C11         0.0128   -2.9085   -2.8721 C.2       1 <0>         0.7075
     15 O1          0.0179   -3.8363   -3.6581 O.2       1 <0>        -0.5337
     16 N4         -0.0086   -1.6501   -3.3443 N.am      1 <0>        -0.5521
     17 C12        -0.0149   -0.5933   -2.5053 C.2       1 <0>         0.5951
     18 O2         -0.0350    0.5423   -2.9451 O.2       1 <0>        -0.5126
     19 C13        -0.0257   -1.4227   -4.7914 C.3       1 <0>         0.0828
     20 C14         0.0516   -4.5538   -1.0777 C.3       1 <0>         0.0895
     21 H1          1.0048    1.8381    0.0023 H         1 <0>         0.0880
     22 H2         -0.5450    1.8219   -0.8730 H         1 <0>         0.1026
     23 H3         -0.5280    1.8123    0.9069 H         1 <0>         0.0960
     24 H4          0.0160    0.7450    2.5407 H         1 <0>         0.0929
     25 H5          1.3081   -1.9449    3.1825 H         1 <0>         0.0798
     26 H6          2.1734   -0.4673    2.6968 H         1 <0>         0.0641
     27 H7          1.2863    0.7081    4.6918 H         1 <0>         0.0635
     28 H8          2.2006   -0.7454    5.1606 H         1 <0>         0.0687
     29 H9          0.0709   -0.5887    6.4210 H         1 <0>         0.0646
     30 H10         0.0802   -2.0158    5.3573 H         1 <0>         0.0660
     31 H11        -1.2119    0.6741    4.7155 H         1 <0>         0.0634
     32 H12        -2.0773   -0.8036    5.2012 H         1 <0>         0.0688
     33 H13        -2.1044   -0.5254    2.7374 H         1 <0>         0.0640
     34 H14        -1.1901   -1.9789    3.2062 H         1 <0>         0.0800
     35 H15        -0.0180   -2.3814   -5.3100 H         1 <0>         0.1058
     36 H16        -0.9257   -0.8706   -5.0618 H         1 <0>         0.0813
     37 H17         0.8540   -0.8469   -5.0791 H         1 <0>         0.0813
     38 H18        -0.9703   -4.9110   -0.9506 H         1 <0>         0.0732
     39 H19         0.5668   -5.1785   -1.8074 H         1 <0>         0.0934
     40 H20         0.5752   -4.6033   -0.1230 H         1 <0>         0.0919
@<TRIPOS>BOND
     1    1    2 1
     2    1   21 1
     3    1   22 1
     4    1   23 1
     5    2    6 1
     6    2    3 1
     7    3   17 1
     8    3    4 2
     9    4    5 1
    10    4   13 1
    11    5    6 2
    12    6    7 1
    13    7   12 1
    14    7    8 1
    15    7   24 1
    16    8    9 1
    17    8   25 1
    18    8   26 1
    19    9   10 1
    20    9   27 1
    21    9   28 1
    22   10   11 1
    23   10   29 1
    24   10   30 1
    25   11   12 1
    26   11   31 1
    27   11   32 1
    28   12   33 1
    29   12   34 1
    30   13   14 am
    31   13   20 1
    32   14   15 2
    33   14   16 am
    34   16   17 am
    35   16   19 1
    36   17   18 2
    37   19   35 1
    38   19   36 1
    39   19   37 1
    40   20   38 1
    41   20   39 1
    42   20   40 1
@<TRIPOS>MOLECULE
ZINC13826999
   47    49     0     0     0
SMALL
USER_CHARGES
8-[(E)-2-(3-fluorophenyl)vinyl]-1,3-dipropyl-7H-purine-2,6-dione
@<TRIPOS>ATOM
      1 C1         -2.8493   -5.6324   -4.3250 C.3       1 <0>        -0.1473
      2 C2         -2.8455   -4.9276   -2.9669 C.3       1 <0>        -0.1386
      3 C3         -1.4019   -4.6731   -2.5284 C.3       1 <0>         0.1191
      4 N1         -1.3983   -3.9984   -1.2281 N.am      1 <0>        -0.5088
      5 C4         -1.3766   -4.7459   -0.0602 C.2       1 <0>         0.3283
      6 C5         -1.3741   -4.0789    1.1622 C.2       1 <0>        -0.1445
      7 C6         -1.3932   -2.6687    1.1754 C.2       1 <0>         0.5929
      8 O1         -1.3911   -2.0626    2.2322 O.2       1 <0>        -0.5112
      9 N2         -1.4134   -1.9985    0.0048 N.am      1 <0>        -0.5485
     10 C7         -1.4212   -2.6537   -1.1686 C.2       1 <0>         0.7074
     11 O2         -1.4446   -2.0154   -2.2033 O.2       1 <0>        -0.5284
     12 C8         -1.4333   -0.5336    0.0129 C.3       1 <0>         0.1135
     13 C9          0.0021   -0.0041    0.0020 C.3       1 <0>        -0.1376
     14 C10        -0.0187    1.5258    0.0104 C.3       1 <0>        -0.1474
     15 N3         -1.3512   -5.0536    2.1418 N.pl3     1 <0>        -0.5175
     16 H1         -1.3438   -4.9055    3.1307 H         1 <0>         0.4450
     17 C11        -1.3406   -6.2577    1.4983 C.2       1 <0>         0.3303
     18 N4         -1.3560   -6.0525    0.1920 N.2       1 <0>        -0.4866
     19 C12        -1.3165   -7.5690    2.1513 C.2       1 <0>        -0.1129
     20 C13        -1.3080   -8.6922    1.4071 C.2       1 <0>        -0.0263
     21 C14        -1.2838  -10.0100    2.0633 C.ar      1 <0>        -0.0443
     22 C15        -1.2638  -10.0996    3.4588 C.ar      1 <0>        -0.1157
     23 C16        -1.2470  -11.3367    4.0674 C.ar      1 <0>        -0.0897
     24 C17        -1.2383  -12.4892    3.3015 C.ar      1 <0>        -0.1434
     25 C18        -1.2522  -12.4098    1.9179 C.ar      1 <0>         0.1001
     26 C19        -1.2749  -11.1772    1.2945 C.ar      1 <0>        -0.1305
     27 F1         -1.2432  -13.5398    1.1775 F         1 <0>        -0.1359
     28 H2         -2.3512   -5.0029   -5.0623 H         1 <0>         0.0590
     29 H3         -2.3216   -6.5826   -4.2427 H         1 <0>         0.0588
     30 H4         -3.8777   -5.8137   -4.6373 H         1 <0>         0.0608
     31 H5         -3.3436   -5.5571   -2.2295 H         1 <0>         0.0678
     32 H6         -3.3731   -3.9774   -3.0492 H         1 <0>         0.0681
     33 H7         -0.9038   -4.0437   -3.2658 H         1 <0>         0.1005
     34 H8         -0.8743   -5.6234   -2.4462 H         1 <0>         0.0987
     35 H9         -1.9435   -0.1821    0.9097 H         1 <0>         0.1015
     36 H10        -1.9605   -0.1726   -0.8702 H         1 <0>         0.1036
     37 H11         0.5123   -0.3556   -0.8948 H         1 <0>         0.0693
     38 H12         0.5293   -0.3651    0.8851 H         1 <0>         0.0672
     39 H13         1.0039    1.9031    0.0027 H         1 <0>         0.0616
     40 H14        -0.5459    1.8868   -0.8726 H         1 <0>         0.0599
     41 H15        -0.5289    1.8773    0.9072 H         1 <0>         0.0589
     42 H16        -1.3056   -7.6354    3.2292 H         1 <0>         0.1455
     43 H17        -1.3190   -8.6258    0.3292 H         1 <0>         0.1439
     44 H18        -1.2657   -9.2015    4.0586 H         1 <0>         0.1342
     45 H19        -1.2357  -11.4064    5.1451 H         1 <0>         0.1378
     46 H20        -1.2202  -13.4551    3.7842 H         1 <0>         0.1386
     47 H21        -1.2854  -11.1156    0.2163 H         1 <0>         0.1427
@<TRIPOS>BOND
     1    1    2 1
     2    1   28 1
     3    1   29 1
     4    1   30 1
     5    2    3 1
     6    2   31 1
     7    2   32 1
     8    3    4 1
     9    3   33 1
    10    3   34 1
    11    4   10 am
    12    4    5 1
    13    5   18 1
    14    5    6 2
    15    6    7 1
    16    6   15 1
    17    7    8 2
    18    7    9 am
    19    9   10 am
    20    9   12 1
    21   10   11 2
    22   12   13 1
    23   12   35 1
    24   12   36 1
    25   13   14 1
    26   13   37 1
    27   13   38 1
    28   14   39 1
    29   14   40 1
    30   14   41 1
    31   15   16 1
    32   15   17 1
    33   17   18 2
    34   17   19 1
    35   19   20 2
    36   19   42 1
    37   20   21 1
    38   20   43 1
    39   21   26 ar
    40   21   22 ar
    41   22   23 ar
    42   22   44 1
    43   23   24 ar
    44   23   45 1
    45   24   25 ar
    46   24   46 1
    47   25   26 ar
    48   25   27 1
    49   26   47 1
@<TRIPOS>MOLECULE
ZINC13826999
   48    50     0     0     0
SMALL
USER_CHARGES
8-[(E)-2-(3-fluorophenyl)vinyl]-1,3-dipropyl-7H-purine-2,6-dione
@<TRIPOS>ATOM
      1 C1         -2.8493   -5.6324   -4.3250 C.3       1 <0>        -0.1538
      2 C2         -2.8455   -4.9276   -2.9669 C.3       1 <0>        -0.1446
      3 C3         -1.4019   -4.6731   -2.5284 C.3       1 <0>         0.0954
      4 N1         -1.3983   -3.9984   -1.2281 N.am      1 <0>        -0.5111
      5 C4         -1.3766   -4.7459   -0.0602 C.2       1 <0>         0.3560
      6 C5         -1.3741   -4.0789    1.1622 C.2       1 <0>        -0.0698
      7 C6         -1.3932   -2.6687    1.1754 C.2       1 <0>         0.5871
      8 O1         -1.3911   -2.0626    2.2322 O.2       1 <0>        -0.4639
      9 N2         -1.4134   -1.9985    0.0048 N.am      1 <0>        -0.5392
     10 C7         -1.4212   -2.6537   -1.1686 C.2       1 <0>         0.7079
     11 O2         -1.4446   -2.0154   -2.2033 O.2       1 <0>        -0.4808
     12 C8         -1.4333   -0.5336    0.0129 C.3       1 <0>         0.1068
     13 C9          0.0021   -0.0041    0.0020 C.3       1 <0>        -0.1381
     14 C10        -0.0187    1.5258    0.0104 C.3       1 <0>        -0.1512
     15 N3         -1.3512   -5.0536    2.1418 N.pl3     1 <0>        -0.4598
     16 H1         -1.3438   -4.9055    3.1307 H         1 <0>         0.4853
     17 C11        -1.3406   -6.2577    1.4983 C.cat     1 <0>         0.4301
     18 C12        -1.3165   -7.5690    2.1513 C.2       1 <0>        -0.1815
     19 C13        -1.3080   -8.6922    1.4071 C.2       1 <0>         0.0418
     20 C14        -1.2838  -10.0100    2.0633 C.ar      1 <0>        -0.0847
     21 C15        -1.2638  -10.0996    3.4588 C.ar      1 <0>        -0.0937
     22 C16        -1.2470  -11.3367    4.0674 C.ar      1 <0>        -0.0903
     23 C17        -1.2383  -12.4892    3.3015 C.ar      1 <0>        -0.1139
     24 C18        -1.2522  -12.4098    1.9179 C.ar      1 <0>         0.1025
     25 C19        -1.2749  -11.1772    1.2945 C.ar      1 <0>        -0.1140
     26 F1         -1.2432  -13.5398    1.1775 F         1 <0>        -0.1269
     27 H2         -2.3512   -5.0029   -5.0623 H         1 <0>         0.0684
     28 H3         -2.3216   -6.5826   -4.2427 H         1 <0>         0.0602
     29 H4         -3.8777   -5.8137   -4.6373 H         1 <0>         0.0720
     30 H5         -3.3436   -5.5571   -2.2295 H         1 <0>         0.0640
     31 H6         -3.3731   -3.9774   -3.0492 H         1 <0>         0.0838
     32 H7         -0.9038   -4.0437   -3.2658 H         1 <0>         0.1282
     33 H8         -0.8743   -5.6234   -2.4462 H         1 <0>         0.0959
     34 H9         -1.9435   -0.1821    0.9097 H         1 <0>         0.1125
     35 H10        -1.9605   -0.1726   -0.8702 H         1 <0>         0.1135
     36 H11         0.5123   -0.3556   -0.8948 H         1 <0>         0.0711
     37 H12         0.5293   -0.3651    0.8851 H         1 <0>         0.0698
     38 H13         1.0039    1.9031    0.0027 H         1 <0>         0.0674
     39 H14        -0.5459    1.8868   -0.8726 H         1 <0>         0.0632
     40 H15        -0.5289    1.8773    0.9072 H         1 <0>         0.0626
     41 H16        -1.3056   -7.6354    3.2292 H         1 <0>         0.1825
     42 H17        -1.3190   -8.6258    0.3292 H         1 <0>         0.1339
     43 H18        -1.2657   -9.2015    4.0586 H         1 <0>         0.1392
     44 H19        -1.2357  -11.4064    5.1451 H         1 <0>         0.1474
     45 H20        -1.2202  -13.4551    3.7842 H         1 <0>         0.1488
     46 H21        -1.2854  -11.1156    0.2163 H         1 <0>         0.1465
     47 N4         -1.3560   -6.0543    0.1903 N.pl3     1 <0>        -0.5057
     48 H22        -1.3526   -6.7928   -0.5230 H         1 <0>         0.4795
@<TRIPOS>BOND
     1    1    2 1
     2    1   27 1
     3    1   28 1
     4    1   29 1
     5    2    3 1
     6    2   30 1
     7    2   31 1
     8    3    4 1
     9    3   32 1
    10    3   33 1
    11    4   10 am
    12    4    5 1
    13    5    6 2
    14    5   47 1
    15    6    7 1
    16    6   15 1
    17    7    8 2
    18    7    9 am
    19    9   10 am
    20    9   12 1
    21   10   11 2
    22   12   13 1
    23   12   34 1
    24   12   35 1
    25   13   14 1
    26   13   36 1
    27   13   37 1
    28   14   38 1
    29   14   39 1
    30   14   40 1
    31   15   16 1
    32   15   17 1
    33   17   18 1
    34   17   47 2
    35   18   19 2
    36   18   41 1
    37   19   20 1
    38   19   42 1
    39   20   25 ar
    40   20   21 ar
    41   21   22 ar
    42   21   43 1
    43   22   23 ar
    44   22   44 1
    45   23   24 ar
    46   23   45 1
    47   24   25 ar
    48   24   26 1
    49   25   46 1
    50   47   48 1
@<TRIPOS>MOLECULE
ZINC03995998
   45    48     0     0     0
SMALL
USER_CHARGES

@<TRIPOS>ATOM
      1 C1         -0.0164    1.3592    0.0095 C.2       1 <0>         0.2681
      2 N1          1.2005    1.8201    0.0004 N.2       1 <0>        -0.4560
      3 C2          2.0747    0.7850   -0.0135 C.ar      1 <0>        -0.1042
      4 C3          3.4758    0.6753   -0.0279 C.ar      1 <0>         0.5230
      5 N2          4.0162   -0.5385   -0.0400 N.ar      1 <0>        -0.5725
      6 C4          3.2613   -1.6237   -0.0386 C.ar      1 <0>         0.4317
      7 N3          1.9451   -1.5686   -0.0258 N.ar      1 <0>        -0.5360
      8 C5          1.3163   -0.3974   -0.0126 C.ar      1 <0>         0.3255
      9 N4          0.0021   -0.0041    0.0020 N.pl3     1 <0>        -0.4679
     10 C6         -1.1670   -0.8869    0.0084 C.3       1 <0>         0.3123
     11 H1         -0.9746   -1.7745   -0.5943 H         1 <0>         0.1247
     12 C7         -1.5302   -1.2878    1.4554 C.3       1 <0>         0.0792
     13 H2         -1.1596   -0.5452    2.1620 H         1 <0>         0.0858
     14 C8         -3.0750   -1.3163    1.4606 C.3       1 <0>         0.0477
     15 H3         -3.4681   -0.5878    2.1697 H         1 <0>         0.0875
     16 C9         -3.4624   -0.9293    0.0161 C.3       1 <0>         0.0503
     17 H4         -3.6240   -1.8235   -0.5860 H         1 <0>         0.1007
     18 O1         -2.3291   -0.1859   -0.4855 O.3       1 <0>        -0.3461
     19 C10        -4.7182   -0.0553    0.0175 C.3       1 <0>         0.0822
     20 O2         -5.1260    0.1947   -1.3291 O.3       1 <0>        -0.5634
     21 O3         -3.5506   -2.6266    1.7754 O.3       1 <0>        -0.5383
     22 O4         -1.0018   -2.5790    1.7649 O.3       1 <0>        -0.5248
     23 Cl1         4.0328   -3.1787   -0.0548 Cl        1 <0>         0.0350
     24 N5          4.2743    1.8056   -0.0299 N.pl3     1 <0>        -0.6800
     25 C11         5.7331    1.6718   -0.0450 C.3       1 <0>         0.1431
     26 C12         6.2685    1.5615    1.3975 C.3       1 <0>        -0.1342
     27 C13         7.6011    2.3504    1.3694 C.3       1 <0>        -0.1246
     28 C14         7.2728    3.5428    0.4369 C.3       1 <0>        -0.1247
     29 C15         6.3716    2.9316   -0.6558 C.3       1 <0>        -0.1333
     30 H5         -0.9091    1.9668    0.0254 H         1 <0>         0.2263
     31 H6         -5.5183   -0.5696    0.5499 H         1 <0>         0.0674
     32 H7         -4.5017    0.8911    0.5131 H         1 <0>         0.0611
     33 H8         -5.9182    0.7441   -1.4046 H         1 <0>         0.3870
     34 H9         -4.5145   -2.7016    1.7924 H         1 <0>         0.3876
     35 H10        -1.2003   -2.8805    2.6620 H         1 <0>         0.3912
     36 H11         3.8680    2.6864   -0.0214 H         1 <0>         0.4194
     37 H12         6.0211    0.7913   -0.6193 H         1 <0>         0.1002
     38 H13         5.5702    2.0171    2.0996 H         1 <0>         0.0683
     39 H14         6.4480    0.5187    1.6591 H         1 <0>         0.0746
     40 H15         7.8634    2.7014    2.3675 H         1 <0>         0.0690
     41 H16         8.4019    1.7413    0.9502 H         1 <0>         0.0711
     42 H17         6.7367    4.3184    0.9838 H         1 <0>         0.0670
     43 H18         8.1852    3.9459   -0.0025 H         1 <0>         0.0696
     44 H19         6.9702    2.6623   -1.5260 H         1 <0>         0.0780
     45 H20         5.5961    3.6424   -0.9410 H         1 <0>         0.0717
@<TRIPOS>BOND
     1    1    9 1
     2    1    2 2
     3    1   30 1
     4    2    3 1
     5    3    8 ar
     6    3    4 ar
     7    4    5 ar
     8    4   24 1
     9    5    6 ar
    10    6    7 ar
    11    6   23 1
    12    7    8 ar
    13    8    9 1
    14    9   10 1
    15   10   11 1
    16   10   18 1
    17   10   12 1
    18   12   13 1
    19   12   14 1
    20   12   22 1
    21   14   15 1
    22   14   16 1
    23   14   21 1
    24   16   17 1
    25   16   18 1
    26   16   19 1
    27   19   20 1
    28   19   31 1
    29   19   32 1
    30   20   33 1
    31   21   34 1
    32   22   35 1
    33   24   25 1
    34   24   36 1
    35   25   29 1
    36   25   26 1
    37   25   37 1
    38   26   27 1
    39   26   38 1
    40   26   39 1
    41   27   28 1
    42   27   40 1
    43   27   41 1
    44   28   29 1
    45   28   42 1
    46   28   43 1
    47   29   44 1
    48   29   45 1
@<TRIPOS>MOLECULE
ZINC03875976
   32    34     0     0     0
SMALL
USER_CHARGES

@<TRIPOS>ATOM
      1 C1         -0.0164    1.3592    0.0095 C.2       1 <0>         0.2702
      2 N1          1.2005    1.8201    0.0004 N.2       1 <0>        -0.4560
      3 C2          2.0747    0.7850   -0.0135 C.ar      1 <0>        -0.1052
      4 C3          3.4758    0.6753   -0.0279 C.ar      1 <0>         0.5255
      5 N2          4.0162   -0.5385   -0.0400 N.ar      1 <0>        -0.5767
      6 C4          3.2613   -1.6237   -0.0386 C.ar      1 <0>         0.4320
      7 N3          1.9451   -1.5686   -0.0258 N.ar      1 <0>        -0.5333
      8 C5          1.3163   -0.3974   -0.0126 C.ar      1 <0>         0.3255
      9 N4          0.0021   -0.0041    0.0020 N.pl3     1 <0>        -0.4676
     10 C6         -1.1670   -0.8869    0.0084 C.3       1 <0>         0.3117
     11 H1         -0.9746   -1.7745   -0.5943 H         1 <0>         0.1253
     12 C7         -1.5302   -1.2878    1.4554 C.3       1 <0>         0.0789
     13 H2         -1.1596   -0.5452    2.1620 H         1 <0>         0.0861
     14 C8         -3.0750   -1.3163    1.4606 C.3       1 <0>         0.0478
     15 H3         -3.4681   -0.5878    2.1697 H         1 <0>         0.0878
     16 C9         -3.4624   -0.9293    0.0161 C.3       1 <0>         0.0503
     17 H4         -3.6240   -1.8235   -0.5860 H         1 <0>         0.1010
     18 O1         -2.3291   -0.1859   -0.4855 O.3       1 <0>        -0.3461
     19 C10        -4.7182   -0.0553    0.0175 C.3       1 <0>         0.0821
     20 O2         -5.1260    0.1947   -1.3291 O.3       1 <0>        -0.5635
     21 O3         -3.5506   -2.6266    1.7754 O.3       1 <0>        -0.5383
     22 O4         -1.0018   -2.5790    1.7649 O.3       1 <0>        -0.5249
     23 Cl1         4.0328   -3.1787   -0.0548 Cl        1 <0>         0.0376
     24 N5          4.2743    1.8056   -0.0299 N.pl3     1 <0>        -0.8093
     25 H5         -0.9091    1.9668    0.0254 H         1 <0>         0.2274
     26 H6         -5.5183   -0.5696    0.5499 H         1 <0>         0.0675
     27 H7         -4.5017    0.8911    0.5131 H         1 <0>         0.0612
     28 H8         -5.9182    0.7441   -1.4046 H         1 <0>         0.3871
     29 H9         -4.5145   -2.7016    1.7924 H         1 <0>         0.3877
     30 H10        -1.2003   -2.8805    2.6620 H         1 <0>         0.3915
     31 H11         3.8680    2.6864   -0.0214 H         1 <0>         0.4227
     32 H12         5.2402    1.7170   -0.0399 H         1 <0>         0.4141
@<TRIPOS>BOND
     1    1    9 1
     2    1    2 2
     3    1   25 1
     4    2    3 1
     5    3    8 ar
     6    3    4 ar
     7    4    5 ar
     8    4   24 1
     9    5    6 ar
    10    6    7 ar
    11    6   23 1
    12    7    8 ar
    13    8    9 1
    14    9   10 1
    15   10   11 1
    16   10   18 1
    17   10   12 1
    18   12   13 1
    19   12   14 1
    20   12   22 1
    21   14   15 1
    22   14   16 1
    23   14   21 1
    24   16   17 1
    25   16   18 1
    26   16   19 1
    27   19   20 1
    28   19   26 1
    29   19   27 1
    30   20   28 1
    31   21   29 1
    32   22   30 1
    33   24   31 1
    34   24   32 1
@<TRIPOS>MOLECULE
ZINC13826963
   46    48     0     0     0
SMALL
USER_CHARGES
8-[(E)-2-(2,3-dimethoxyphenyl)vinyl]-1,3,7-trimethyl-purine-2,6-dione
@<TRIPOS>ATOM
      1 C1          0.0618    2.8419    5.8725 C.3       1 <0>         0.0688
      2 N1          0.2968    2.3897    4.4990 N.pl3     1 <0>        -0.4087
      3 C2          1.4964    2.0333    3.9522 C.2       1 <0>         0.3247
      4 N2          1.3116    1.6822    2.6903 N.2       1 <0>        -0.4872
      5 C3          0.0236    1.7925    2.3739 C.2       1 <0>         0.3245
      6 C4         -0.6533    2.2417    3.5050 C.2       1 <0>        -0.1492
      7 C5         -2.0467    2.4440    3.4363 C.2       1 <0>         0.5945
      8 O1         -2.6610    2.8361    4.4127 O.2       1 <0>        -0.5133
      9 N3         -2.6926    2.1981    2.2778 N.am      1 <0>        -0.5518
     10 C6         -2.0277    1.7697    1.1912 C.2       1 <0>         0.7076
     11 O2         -2.6433    1.5633    0.1631 O.2       1 <0>        -0.5319
     12 N4         -0.6984    1.5583    1.2133 N.am      1 <0>        -0.5110
     13 C7         -0.0127    1.0858    0.0080 C.3       1 <0>         0.0891
     14 C8         -4.1407    2.4068    2.2013 C.3       1 <0>         0.0839
     15 C9          2.7826    2.0388    4.6517 C.2       1 <0>        -0.1154
     16 C10         3.9042    1.6642    4.0034 C.2       1 <0>        -0.0198
     17 C11         5.1962    1.6697    4.7060 C.ar      1 <0>        -0.0548
     18 C12         5.2669    2.0686    6.0456 C.ar      1 <0>        -0.1284
     19 C13         6.4786    2.0666    6.7014 C.ar      1 <0>        -0.0836
     20 C14         7.6325    1.6824    6.0385 C.ar      1 <0>        -0.1874
     21 C15         7.5798    1.2904    4.7105 C.ar      1 <0>         0.1108
     22 C16         6.3643    1.2811    4.0359 C.ar      1 <0>         0.0881
     23 O3          6.3090    0.8970    2.7341 O.3       1 <0>        -0.3211
     24 C17         6.4747    1.9185    1.7486 C.3       1 <0>         0.0346
     25 O4          8.7174    0.9142    4.0670 O.3       1 <0>        -0.3054
     26 C18         9.9307    0.9479    4.8212 C.3       1 <0>         0.0235
     27 H1         -0.1520    1.9816    6.5067 H         1 <0>         0.0889
     28 H2          0.9494    3.3547    6.2430 H         1 <0>         0.0961
     29 H3         -0.7867    3.5258    5.8897 H         1 <0>         0.1030
     30 H4          0.0021   -0.0041    0.0020 H         1 <0>         0.0739
     31 H5          1.0099    1.4631    0.0003 H         1 <0>         0.0919
     32 H6         -0.5399    1.4469   -0.8751 H         1 <0>         0.0938
     33 H7         -4.3442    3.4311    1.8891 H         1 <0>         0.0766
     34 H8         -4.5698    1.7142    1.4771 H         1 <0>         0.0966
     35 H9         -4.5855    2.2301    3.1806 H         1 <0>         0.0949
     36 H10         2.8331    2.3429    5.6867 H         1 <0>         0.1435
     37 H11         3.8537    1.3601    2.9684 H         1 <0>         0.1450
     38 H12         4.3713    2.3737    6.5664 H         1 <0>         0.1336
     39 H13         6.5297    2.3709    7.7364 H         1 <0>         0.1335
     40 H14         8.5784    1.6881    6.5596 H         1 <0>         0.1360
     41 H15         6.4091    1.4777    0.7539 H         1 <0>         0.0974
     42 H16         5.6917    2.6675    1.8665 H         1 <0>         0.0476
     43 H17         7.4498    2.3893    1.8738 H         1 <0>         0.0478
     44 H18        10.7593    0.6251    4.1909 H         1 <0>         0.1037
     45 H19        10.1138    1.9643    5.1697 H         1 <0>         0.0568
     46 H20         9.8444    0.2799    5.6782 H         1 <0>         0.0579
@<TRIPOS>BOND
     1    1    2 1
     2    1   27 1
     3    1   28 1
     4    1   29 1
     5    2    6 1
     6    2    3 1
     7    3    4 2
     8    3   15 1
     9    4    5 1
    10    5   12 1
    11    5    6 2
    12    6    7 1
    13    7    8 2
    14    7    9 am
    15    9   10 am
    16    9   14 1
    17   10   11 2
    18   10   12 am
    19   12   13 1
    20   13   30 1
    21   13   31 1
    22   13   32 1
    23   14   33 1
    24   14   34 1
    25   14   35 1
    26   15   16 2
    27   15   36 1
    28   16   17 1
    29   16   37 1
    30   17   22 ar
    31   17   18 ar
    32   18   19 ar
    33   18   38 1
    34   19   20 ar
    35   19   39 1
    36   20   21 ar
    37   20   40 1
    38   21   22 ar
    39   21   25 1
    40   22   23 1
    41   23   24 1
    42   24   41 1
    43   24   42 1
    44   24   43 1
    45   25   26 1
    46   26   44 1
    47   26   45 1
    48   26   46 1
@<TRIPOS>MOLECULE
ZINC13826963
   47    49     0     0     0
SMALL
USER_CHARGES
8-[(E)-2-(2,3-dimethoxyphenyl)vinyl]-1,3,7-trimethyl-purine-2,6-dione
@<TRIPOS>ATOM
      1 C1          0.0618    2.8419    5.8725 C.3       1 <0>         0.0533
      2 N1          0.2968    2.3897    4.4990 N.pl3     1 <0>        -0.3546
      3 C2          1.4964    2.0333    3.9522 C.cat     1 <0>         0.4111
      4 C3          0.0236    1.7925    2.3739 C.2       1 <0>         0.3547
      5 C4         -0.6533    2.2417    3.5050 C.2       1 <0>        -0.0784
      6 C5         -2.0467    2.4440    3.4363 C.2       1 <0>         0.5900
      7 O1         -2.6610    2.8361    4.4127 O.2       1 <0>        -0.4676
      8 N2         -2.6926    2.1981    2.2778 N.am      1 <0>        -0.5420
      9 C6         -2.0277    1.7697    1.1912 C.2       1 <0>         0.7085
     10 O2         -2.6433    1.5633    0.1631 O.2       1 <0>        -0.4841
     11 N3         -0.6984    1.5583    1.2133 N.am      1 <0>        -0.5139
     12 C7         -0.0127    1.0858    0.0080 C.3       1 <0>         0.0633
     13 C8         -4.1407    2.4068    2.2013 C.3       1 <0>         0.0757
     14 C9          2.7826    2.0388    4.6517 C.2       1 <0>        -0.1817
     15 C10         3.9042    1.6642    4.0034 C.2       1 <0>         0.0446
     16 C11         5.1962    1.6697    4.7060 C.ar      1 <0>        -0.0926
     17 C12         5.2669    2.0686    6.0456 C.ar      1 <0>        -0.1092
     18 C13         6.4786    2.0666    6.7014 C.ar      1 <0>        -0.0829
     19 C14         7.6325    1.6824    6.0385 C.ar      1 <0>        -0.1610
     20 C15         7.5798    1.2904    4.7105 C.ar      1 <0>         0.1125
     21 C16         6.3643    1.2811    4.0359 C.ar      1 <0>         0.1042
     22 O3          6.3090    0.8970    2.7341 O.3       1 <0>        -0.3243
     23 C17         6.4747    1.9185    1.7486 C.3       1 <0>         0.0298
     24 O4          8.7174    0.9142    4.0670 O.3       1 <0>        -0.3022
     25 C18         9.9307    0.9479    4.8212 C.3       1 <0>         0.0201
     26 H1         -0.1520    1.9816    6.5067 H         1 <0>         0.1197
     27 H2          0.9494    3.3547    6.2430 H         1 <0>         0.1211
     28 H3         -0.7867    3.5258    5.8897 H         1 <0>         0.1290
     29 H4          0.0021   -0.0041    0.0020 H         1 <0>         0.0964
     30 H5          1.0099    1.4631    0.0003 H         1 <0>         0.0888
     31 H6         -0.5399    1.4469   -0.8751 H         1 <0>         0.1209
     32 H7         -4.3442    3.4311    1.8891 H         1 <0>         0.0895
     33 H8         -4.5698    1.7142    1.4771 H         1 <0>         0.1065
     34 H9         -4.5855    2.2301    3.1806 H         1 <0>         0.1058
     35 H10         2.8331    2.3429    5.6867 H         1 <0>         0.1794
     36 H11         3.8537    1.3601    2.9684 H         1 <0>         0.1329
     37 H12         4.3713    2.3737    6.5664 H         1 <0>         0.1384
     38 H13         6.5297    2.3709    7.7364 H         1 <0>         0.1429
     39 H14         8.5784    1.6881    6.5596 H         1 <0>         0.1452
     40 H15         6.4091    1.4777    0.7539 H         1 <0>         0.1030
     41 H16         5.6917    2.6675    1.8665 H         1 <0>         0.0437
     42 H17         7.4498    2.3893    1.8738 H         1 <0>         0.0574
     43 H18        10.7593    0.6251    4.1909 H         1 <0>         0.1102
     44 H19        10.1138    1.9643    5.1697 H         1 <0>         0.0612
     45 H20         9.8444    0.2799    5.6782 H         1 <0>         0.0624
     46 N4          1.3134    1.6814    2.6887 N.pl3     1 <0>        -0.5060
     47 H21         2.0535    1.3702    2.0486 H         1 <0>         0.4785
@<TRIPOS>BOND
     1    1    2 1
     2    1   26 1
     3    1   27 1
     4    1   28 1
     5    2    5 1
     6    2    3 1
     7    3   14 1
     8    3   46 2
     9    4   11 1
    10    4    5 2
    11    4   46 1
    12    5    6 1
    13    6    7 2
    14    6    8 am
    15    8    9 am
    16    8   13 1
    17    9   10 2
    18    9   11 am
    19   11   12 1
    20   12   29 1
    21   12   30 1
    22   12   31 1
    23   13   32 1
    24   13   33 1
    25   13   34 1
    26   14   15 2
    27   14   35 1
    28   15   16 1
    29   15   36 1
    30   16   21 ar
    31   16   17 ar
    32   17   18 ar
    33   17   37 1
    34   18   19 ar
    35   18   38 1
    36   19   20 ar
    37   19   39 1
    38   20   21 ar
    39   20   24 1
    40   21   22 1
    41   22   23 1
    42   23   40 1
    43   23   41 1
    44   23   42 1
    45   24   25 1
    46   25   43 1
    47   25   44 1
    48   25   45 1
    49   46   47 1
@<TRIPOS>MOLECULE
ZINC01683110
   35    37     0     0     0
SMALL
USER_CHARGES

@<TRIPOS>ATOM
      1 C1         -0.0178    1.4608    0.0101 C.3       1 <0>         0.0858
      2 N1          0.0021   -0.0041    0.0020 N.am      1 <0>        -0.7307
      3 C2          0.5851   -0.6645   -1.0180 C.2       1 <0>         0.5150
      4 O1          1.0933   -0.0461   -1.9292 O.2       1 <0>        -0.5025
      5 C3          0.6055   -2.1713   -1.0263 C.3       1 <0>         0.0318
      6 H1         -0.4062   -2.5682   -0.9422 H         1 <0>         0.1226
      7 C4          1.5005   -2.7114    0.1182 C.3       1 <0>         0.0507
      8 H2          2.3775   -2.0793    0.2574 H         1 <0>         0.0950
      9 C5          1.9044   -4.1068   -0.4169 C.3       1 <0>         0.0831
     10 H3          2.9518   -4.3118   -0.1954 H         1 <0>         0.0900
     11 C6          1.6847   -4.0058   -1.9388 C.3       1 <0>         0.3141
     12 H4          0.9189   -4.7160   -2.2506 H         1 <0>         0.1319
     13 O2          1.2474   -2.6645   -2.2218 O.3       1 <0>        -0.3270
     14 N2          2.9388   -4.2849   -2.6427 N.pl3     1 <0>        -0.4754
     15 C7          3.8437   -3.3616   -3.0753 C.2       1 <0>         0.2663
     16 N3          4.8419   -3.9575   -3.6601 N.2       1 <0>        -0.4588
     17 C8          4.6419   -5.2972   -3.6401 C.ar      1 <0>        -0.1080
     18 C9          3.4209   -5.5237   -2.9822 C.ar      1 <0>         0.3101
     19 N4          2.9940   -6.7723   -2.8248 N.ar      1 <0>        -0.5540
     20 C10         3.7034   -7.7857   -3.2750 C.ar      1 <0>         0.3667
     21 N5          4.8573   -7.6228   -3.8960 N.ar      1 <0>        -0.5907
     22 C11         5.3602   -6.4108   -4.1073 C.ar      1 <0>         0.5098
     23 N6          6.5708   -6.2501   -4.7583 N.pl3     1 <0>        -0.8163
     24 O3          1.0679   -5.1196    0.1458 O.3       1 <0>        -0.5315
     25 O4          0.7592   -2.8258    1.3345 O.3       1 <0>        -0.5363
     26 H5          1.0048    1.8381    0.0023 H         1 <0>         0.0653
     27 H6         -0.5450    1.8219   -0.8730 H         1 <0>         0.0657
     28 H7         -0.5280    1.8123    0.9069 H         1 <0>         0.0830
     29 H8         -0.4044   -0.4986    0.7308 H         1 <0>         0.3997
     30 H9          3.7463   -2.2932   -2.9513 H         1 <0>         0.2250
     31 H10         3.3278   -8.7880   -3.1306 H         1 <0>         0.2070
     32 H11         6.9329   -5.3609   -4.8966 H         1 <0>         0.4196
     33 H12         7.0573   -7.0267   -5.0762 H         1 <0>         0.4114
     34 H13         1.1247   -5.1864    1.1088 H         1 <0>         0.3970
     35 H14         0.4078   -1.9863    1.6614 H         1 <0>         0.3845
@<TRIPOS>BOND
     1    1    2 1
     2    1   26 1
     3    1   27 1
     4    1   28 1
     5    2    3 am
     6    2   29 1
     7    3    4 2
     8    3    5 1
     9    5    6 1
    10    5   13 1
    11    5    7 1
    12    7    8 1
    13    7    9 1
    14    7   25 1
    15    9   10 1
    16    9   11 1
    17    9   24 1
    18   11   12 1
    19   11   13 1
    20   11   14 1
    21   14   18 1
    22   14   15 1
    23   15   16 2
    24   15   30 1
    25   16   17 1
    26   17   22 ar
    27   17   18 ar
    28   18   19 ar
    29   19   20 ar
    30   20   21 ar
    31   20   31 1
    32   21   22 ar
    33   22   23 1
    34   23   32 1
    35   23   33 1
    36   24   34 1
    37   25   35 1
@<TRIPOS>MOLECULE
ZINC01566904
   28    30     0     0     0
SMALL
USER_CHARGES

@<TRIPOS>ATOM
      1 C1         -0.0158    1.3119    0.0093 C.ar      1 <0>         0.3644
      2 N1          1.0888    2.0360    0.0026 N.ar      1 <0>        -0.5942
      3 C2          2.2875    1.4625   -0.0119 C.ar      1 <0>         0.5092
      4 C3          2.3582    0.0588   -0.0202 C.ar      1 <0>        -0.1135
      5 C4          1.1547   -0.6659   -0.0126 C.ar      1 <0>         0.3009
      6 N2          0.0021   -0.0041    0.0020 N.ar      1 <0>        -0.5608
      7 N3          1.5110   -1.9908   -0.0227 N.pl3     1 <0>        -0.4624
      8 C5          2.8729   -2.0476   -0.0358 C.2       1 <0>         0.2504
      9 N4          3.3680   -0.8441   -0.0343 N.2       1 <0>        -0.4635
     10 C6          0.5956   -3.1347   -0.0195 C.3       1 <0>         0.1334
     11 C7          0.8671   -4.0321   -1.2445 C.3       1 <0>        -0.1348
     12 C8          1.8138   -5.1335   -0.7062 C.3       1 <0>        -0.1288
     13 C9          1.2558   -5.3996    0.7140 C.3       1 <0>        -0.1247
     14 C10         0.8428   -4.0041    1.2258 C.3       1 <0>        -0.1358
     15 N5          3.4393    2.2295   -0.0193 N.pl3     1 <0>        -0.8178
     16 H1         -0.9693    1.8187    0.0257 H         1 <0>         0.2047
     17 H2          3.4551   -2.9572   -0.0459 H         1 <0>         0.2175
     18 H3         -0.4371   -2.7861   -0.0326 H         1 <0>         0.1112
     19 H4         -0.0615   -4.4717   -1.6086 H         1 <0>         0.0892
     20 H5          1.3557   -3.4618   -2.0345 H         1 <0>         0.0759
     21 H6          1.7503   -6.0316   -1.3206 H         1 <0>         0.0771
     22 H7          2.8402   -4.7701   -0.6562 H         1 <0>         0.0688
     23 H8          0.3901   -6.0600    0.6662 H         1 <0>         0.0736
     24 H9          2.0282   -5.8271    1.3534 H         1 <0>         0.0737
     25 H10         1.6438   -3.5750    1.8277 H         1 <0>         0.0753
     26 H11        -0.0702   -4.0782    1.8166 H         1 <0>         0.0817
     27 H12         3.3774    3.1975   -0.0138 H         1 <0>         0.4106
     28 H13         4.3085    1.7992   -0.0299 H         1 <0>         0.4188
@<TRIPOS>BOND
     1    1    6 ar
     2    1    2 ar
     3    1   16 1
     4    2    3 ar
     5    3    4 ar
     6    3   15 1
     7    4    9 1
     8    4    5 ar
     9    5    6 ar
    10    5    7 1
    11    7    8 1
    12    7   10 1
    13    8    9 2
    14    8   17 1
    15   10   14 1
    16   10   11 1
    17   10   18 1
    18   11   12 1
    19   11   19 1
    20   11   20 1
    21   12   13 1
    22   12   21 1
    23   12   22 1
    24   13   14 1
    25   13   23 1
    26   13   24 1
    27   14   25 1
    28   14   26 1
    29   15   27 1
    30   15   28 1
@<TRIPOS>MOLECULE
ZINC17420244
   28    30     0     0     0
SMALL
USER_CHARGES
1,3-dimethyl-8-(2-thienyl)-7H-purine-2,6-dione
@<TRIPOS>ATOM
      1 C1         -1.5750    4.8084    2.7098 C.3       1 <0>         0.0867
      2 N1         -1.4521    3.3614    2.5170 N.am      1 <0>        -0.5100
      3 C2         -1.9760    2.4902    3.4600 C.2       1 <0>         0.3250
      4 C3         -1.8448    1.1200    3.2522 C.2       1 <0>        -0.1494
      5 C4         -1.1867    0.6610    2.0944 C.2       1 <0>         0.5944
      6 O1         -1.0594   -0.5337    1.8912 O.2       1 <0>        -0.5114
      7 N2         -0.6984    1.5583    1.2133 N.am      1 <0>        -0.5506
      8 C5         -0.8265    2.8791    1.4269 C.2       1 <0>         0.7073
      9 O2         -0.3691    3.6581    0.6129 O.2       1 <0>        -0.5302
     10 C6         -0.0127    1.0858    0.0080 C.3       1 <0>         0.0782
     11 N3         -2.4483    0.4992    4.3323 N.pl3     1 <0>        -0.5285
     12 H1         -2.4716   -0.5989    4.3930 H         1 <0>         0.4709
     13 C7         -2.9165    1.4913    5.1441 C.2       1 <0>         0.3970
     14 N4         -2.6263    2.6645    4.6088 N.2       1 <0>        -0.4790
     15 C8         -3.6299    1.2877    6.4115 C.2       1 <0>        -0.1498
     16 C9         -4.1298    2.2312    7.2928 C.2       1 <0>        -0.0764
     17 C10        -4.7657    1.7616    8.4181 C.2       1 <0>        -0.1703
     18 C11        -4.8628    0.4223    8.6135 C.2       1 <0>        -0.1811
     19 S1         -4.0711   -0.2398    7.2206 S.3       1 <0>         0.1484
     20 H2         -2.1119    5.0089    3.6487 H         1 <0>         0.1007
     21 H3         -2.1330    5.2444    1.8680 H         1 <0>         0.0812
     22 H4         -0.5724    5.2584    2.7574 H         1 <0>         0.0810
     23 H5          0.3157    1.9492   -0.5893 H         1 <0>         0.1078
     24 H6         -0.7015    0.4686   -0.5875 H         1 <0>         0.0835
     25 H7          0.8625    0.4849    0.2959 H         1 <0>         0.0832
     26 H8         -4.0272    3.2896    7.1035 H         1 <0>         0.1523
     27 H9         -5.1793    2.4506    9.1397 H         1 <0>         0.1450
     28 H10        -5.3219   -0.1038    9.4375 H         1 <0>         0.1942
@<TRIPOS>BOND
     1    1    2 1
     2    1   20 1
     3    1   21 1
     4    1   22 1
     5    2    8 am
     6    2    3 1
     7    3   14 1
     8    3    4 2
     9    4    5 1
    10    4   11 1
    11    5    6 2
    12    5    7 am
    13    7    8 am
    14    7   10 1
    15    8    9 2
    16   10   23 1
    17   10   24 1
    18   10   25 1
    19   11   12 1
    20   11   13 1
    21   13   14 2
    22   13   15 1
    23   15   19 1
    24   15   16 2
    25   16   17 1
    26   16   26 1
    27   17   18 2
    28   17   27 1
    29   18   19 1
    30   18   28 1
@<TRIPOS>MOLECULE
ZINC05162603
   31    34     0     0     0
SMALL
USER_CHARGES
8-chloro-1-phenyl-[1,2,4]triazolo[3,4-c]quinoxalin-4-amine
@<TRIPOS>ATOM
      1 C1         -0.0699    8.4891    0.0451 C.ar      1 <0>        -0.0936
      2 C2          1.2404    8.6846    0.4442 C.ar      1 <0>        -0.1150
      3 C3          2.1323    7.6323    0.4333 C.ar      1 <0>        -0.0699
      4 C4          1.7103    6.3681    0.0183 C.ar      1 <0>        -0.0359
      5 C5          0.3884    6.1790   -0.3885 C.ar      1 <0>        -0.0961
      6 C6         -0.4949    7.2385   -0.3669 C.ar      1 <0>        -0.1143
      7 C7          2.6604    5.2360    0.0041 C.2       1 <0>         0.2373
      8 N1          3.8194    5.1929   -0.6278 N.2       1 <0>        -0.2435
      9 N2          4.3890    4.0562   -0.4265 N.2       1 <0>        -0.2329
     10 C8          3.6279    3.3074    0.3452 C.2       1 <0>         0.1269
     11 N3          2.5049    4.0427    0.6392 N.pl3     1 <0>        -0.3746
     12 C9          1.5251    3.4895    1.4447 C.ar      1 <0>         0.0567
     13 C10         0.3800    4.2105    1.7589 C.ar      1 <0>        -0.1065
     14 C11        -0.5911    3.6495    2.5630 C.ar      1 <0>        -0.0315
     15 C12        -0.4356    2.3617    3.0577 C.ar      1 <0>        -0.0832
     16 C13         0.6939    1.6342    2.7630 C.ar      1 <0>        -0.0748
     17 C14         1.6904    2.1878    1.9485 C.ar      1 <0>         0.1567
     18 N4          2.8018    1.4660    1.6548 N.2       1 <0>        -0.5446
     19 C15         3.7547    1.9558    0.8941 C.2       1 <0>         0.5154
     20 N5          4.8753    1.1967    0.6129 N.pl3     1 <0>        -0.7996
     21 Cl1        -2.0195    4.5564    2.9514 Cl        1 <0>        -0.0489
     22 H1         -0.7642    9.3163    0.0555 H         1 <0>         0.1327
     23 H2          1.5656    9.6634    0.7646 H         1 <0>         0.1355
     24 H3          3.1547    7.7862    0.7454 H         1 <0>         0.1331
     25 H4          0.0568    5.2045   -0.7152 H         1 <0>         0.1259
     26 H5         -1.5191    7.0925   -0.6769 H         1 <0>         0.1349
     27 H6          0.2498    5.2110    1.3737 H         1 <0>         0.1564
     28 H7         -1.2039    1.9304    3.6822 H         1 <0>         0.1506
     29 H8          0.8106    0.6349    3.1557 H         1 <0>         0.1571
     30 H9          4.9586    0.3016    0.9773 H         1 <0>         0.4217
     31 H10         5.5782    1.5591    0.0513 H         1 <0>         0.4241
@<TRIPOS>BOND
     1    1    6 ar
     2    1    2 ar
     3    1   22 1
     4    2    3 ar
     5    2   23 1
     6    3    4 ar
     7    3   24 1
     8    4    5 ar
     9    4    7 1
    10    5    6 ar
    11    5   25 1
    12    6   26 1
    13    7   11 1
    14    7    8 2
    15    8    9 1
    16    9   10 2
    17   10   19 1
    18   10   11 1
    19   11   12 1
    20   12   17 ar
    21   12   13 ar
    22   13   14 ar
    23   13   27 1
    24   14   15 ar
    25   14   21 1
    26   15   16 ar
    27   15   28 1
    28   16   17 ar
    29   16   29 1
    30   17   18 1
    31   18   19 2
    32   19   20 1
    33   20   30 1
    34   20   31 1
@<TRIPOS>MOLECULE
ZINC00402896
   21    22     0     0     0
SMALL
USER_CHARGES
9-ethylpurin-6-amine
@<TRIPOS>ATOM
      1 C1          4.1141   -2.3912   -1.4861 C.3       1 <0>        -0.1701
      2 C2          4.0820   -1.8748   -0.0463 C.3       1 <0>         0.1066
      3 N1          3.6082   -0.4886   -0.0350 N.pl3     1 <0>        -0.4733
      4 C3          4.3871    0.6301   -0.0364 C.2       1 <0>         0.2640
      5 N2          3.6375    1.6938   -0.0236 N.2       1 <0>        -0.4695
      6 C4          2.3336    1.3265   -0.0131 C.ar      1 <0>        -0.1052
      7 C5          2.2991   -0.0783   -0.0203 C.ar      1 <0>         0.2930
      8 N3          1.1222   -0.6955   -0.0124 N.ar      1 <0>        -0.5401
      9 C6          0.0021   -0.0041    0.0020 C.ar      1 <0>         0.3485
     10 N4         -0.0158    1.3162    0.0093 N.ar      1 <0>        -0.5502
     11 C7          1.1116    2.0200    0.0023 C.ar      1 <0>         0.4559
     12 N5          1.0828    3.4036    0.0095 N.pl3     1 <0>        -0.7513
     13 H1          4.7873   -1.7723   -2.0792 H         1 <0>         0.0627
     14 H2          4.4666   -3.4226   -1.4945 H         1 <0>         0.0815
     15 H3          3.1110   -2.3466   -1.9105 H         1 <0>         0.0646
     16 H4          5.0851   -1.9194    0.3781 H         1 <0>         0.1008
     17 H5          3.4088   -2.4938    0.5468 H         1 <0>         0.0969
     18 H6          5.4670    0.6332   -0.0473 H         1 <0>         0.2257
     19 H7         -0.9375   -0.5367    0.0078 H         1 <0>         0.2093
     20 H8          0.5970    3.7311   -0.8009 H         1 <0>         0.3674
     21 H9          1.9125    3.9060    0.0043 H         1 <0>         0.3830
@<TRIPOS>BOND
     1    1    2 1
     2    1   13 1
     3    1   14 1
     4    1   15 1
     5    2    3 1
     6    2   16 1
     7    2   17 1
     8    3    7 1
     9    3    4 1
    10    4    5 2
    11    4   18 1
    12    5    6 1
    13    6   11 ar
    14    6    7 ar
    15    7    8 ar
    16    8    9 ar
    17    9   10 ar
    18    9   19 1
    19   10   11 ar
    20   11   12 1
    21   12   20 1
    22   12   21 1
@<TRIPOS>MOLECULE
ZINC12405386
   66    68     0     0     0
SMALL
USER_CHARGES

@<TRIPOS>ATOM
      1 C1         -0.0187    1.5258    0.0104 C.3       1 <0>        -0.1482
      2 C2          0.0021   -0.0041    0.0020 C.3       1 <0>        -0.1390
      3 C3         -1.4333   -0.5336    0.0129 C.3       1 <0>         0.1175
      4 N1         -1.4134   -1.9985    0.0048 N.am      1 <0>        -0.5089
      5 C4         -1.4097   -2.6840   -1.2003 C.2       1 <0>         0.3318
      6 C5         -1.3903   -4.0750   -1.1798 C.2       1 <0>        -0.1280
      7 C6         -1.3752   -4.7440    0.0625 C.2       1 <0>         0.5926
      8 O1         -1.3577   -5.9612    0.1063 O.2       1 <0>        -0.5054
      9 N2         -1.3800   -4.0203    1.2010 N.am      1 <0>        -0.5463
     10 C7         -1.3932   -2.6767    1.1675 C.2       1 <0>         0.7061
     11 O2         -1.3921   -2.0579    2.2143 O.2       1 <0>        -0.5172
     12 C8         -1.3650   -4.7094    2.4938 C.3       1 <0>         0.1123
     13 C9          0.0826   -4.9297    2.9374 C.3       1 <0>        -0.1379
     14 C10         0.0984   -5.6494    4.2875 C.3       1 <0>        -0.1484
     15 N3         -1.3914   -4.4859   -2.4986 N.pl3     1 <0>        -0.5079
     16 H1         -1.3808   -5.4014   -2.8191 H         1 <0>         0.4367
     17 C11        -1.4110   -3.3589   -3.2620 C.2       1 <0>         0.3066
     18 N4         -1.4217   -2.3004   -2.4763 N.2       1 <0>        -0.4666
     19 C12        -1.4187   -3.3270   -4.7399 C.ar      1 <0>         0.0405
     20 C13        -1.4112   -4.5186   -5.4668 C.ar      1 <0>        -0.1239
     21 C14        -1.4189   -4.4818   -6.8458 C.ar      1 <0>        -0.0301
     22 C15        -1.4335   -3.2673   -7.5085 C.ar      1 <0>        -0.6738
     23 C16        -1.4409   -2.0824   -6.7940 C.ar      1 <0>        -0.0110
     24 C17        -1.4392   -2.1052   -5.4146 C.ar      1 <0>        -0.0813
     25 S1         -1.4421   -3.2293   -9.2700 S.o2      1 <0>         2.6837
     26 O3         -0.9049   -1.9703   -9.6517 O.2       1 <0>        -0.9254
     27 O4         -0.8816   -4.4603   -9.7055 O.2       1 <0>        -0.9427
     28 N5         -3.0263   -3.2337   -9.7522 N.pl3     1 <0>        -0.9939
     29 C18        -3.7390   -1.9673   -9.9380 C.3       1 <0>         0.0799
     30 C19        -3.7152   -4.5040   -9.9929 C.3       1 <0>         0.0883
     31 C20        -4.4779   -4.9173   -8.7326 C.3       1 <0>        -0.0447
     32 N6         -5.1687   -6.1911   -8.9739 N.4       1 <0>        -0.3830
     33 C21        -4.1767   -7.2522   -9.1933 C.3       1 <0>        -0.0605
     34 C22        -5.9962   -6.5280   -7.8079 C.3       1 <0>        -0.0481
     35 H2          1.0039    1.9031    0.0027 H         1 <0>         0.0629
     36 H3         -0.5459    1.8868   -0.8726 H         1 <0>         0.0585
     37 H4         -0.5289    1.8773    0.9072 H         1 <0>         0.0608
     38 H5          0.5123   -0.3556   -0.8948 H         1 <0>         0.0667
     39 H6          0.5293   -0.3651    0.8851 H         1 <0>         0.0699
     40 H7         -1.9435   -0.1821    0.9097 H         1 <0>         0.1041
     41 H8         -1.9605   -0.1726   -0.8702 H         1 <0>         0.0989
     42 H9         -1.8838   -4.1020    3.2353 H         1 <0>         0.1063
     43 H10        -1.8662   -5.6726    2.3979 H         1 <0>         0.1033
     44 H11         0.6015   -5.5371    2.1958 H         1 <0>         0.0668
     45 H12         0.5838   -3.9665    3.0333 H         1 <0>         0.0703
     46 H13         1.1297   -5.8063    4.6036 H         1 <0>         0.0635
     47 H14        -0.4205   -5.0420    5.0291 H         1 <0>         0.0613
     48 H15        -0.4028   -6.6126    4.1916 H         1 <0>         0.0593
     49 H16        -1.3991   -5.4672   -4.9508 H         1 <0>         0.1357
     50 H17        -1.4132   -5.4030   -7.4095 H         1 <0>         0.1450
     51 H18        -1.4523   -1.1377   -7.3173 H         1 <0>         0.1545
     52 H19        -1.4492   -1.1797   -4.8580 H         1 <0>         0.1579
     53 H20        -3.6167   -1.6291  -10.9670 H         1 <0>         0.0767
     54 H21        -4.7984   -2.1122   -9.7267 H         1 <0>         0.0790
     55 H22        -3.3321   -1.2183   -9.2587 H         1 <0>         0.0853
     56 H23        -4.4159   -4.3864  -10.8195 H         1 <0>         0.1135
     57 H24        -2.9836   -5.2723  -10.2432 H         1 <0>         0.1171
     58 H25        -3.7772   -5.0349   -7.9060 H         1 <0>         0.1278
     59 H26        -5.2095   -4.1491   -8.4823 H         1 <0>         0.1409
     60 H27        -3.5422   -7.3443   -8.3119 H         1 <0>         0.1242
     61 H28        -4.6893   -8.1974   -9.3724 H         1 <0>         0.1307
     62 H29        -3.5627   -7.0022  -10.0585 H         1 <0>         0.1294
     63 H30        -6.7323   -5.7407   -7.6451 H         1 <0>         0.1247
     64 H31        -6.5088   -7.4732   -7.9870 H         1 <0>         0.1287
     65 H32        -5.3617   -6.6201   -6.9264 H         1 <0>         0.1216
     66 H33        -5.7561   -6.1059   -9.7899 H         1 <0>         0.4305
@<TRIPOS>BOND
     1    1    2 1
     2    1   35 1
     3    1   36 1
     4    1   37 1
     5    2    3 1
     6    2   38 1
     7    2   39 1
     8    3    4 1
     9    3   40 1
    10    3   41 1
    11    4   10 am
    12    4    5 1
    13    5   18 1
    14    5    6 2
    15    6    7 1
    16    6   15 1
    17    7    8 2
    18    7    9 am
    19    9   10 am
    20    9   12 1
    21   10   11 2
    22   12   13 1
    23   12   42 1
    24   12   43 1
    25   13   14 1
    26   13   44 1
    27   13   45 1
    28   14   46 1
    29   14   47 1
    30   14   48 1
    31   15   16 1
    32   15   17 1
    33   17   18 2
    34   17   19 1
    35   19   24 ar
    36   19   20 ar
    37   20   21 ar
    38   20   49 1
    39   21   22 ar
    40   21   50 1
    41   22   23 ar
    42   22   25 1
    43   23   24 ar
    44   23   51 1
    45   24   52 1
    46   25   26 2
    47   25   27 2
    48   25   28 1
    49   28   29 1
    50   28   30 1
    51   29   53 1
    52   29   54 1
    53   29   55 1
    54   30   31 1
    55   30   56 1
    56   30   57 1
    57   31   32 1
    58   31   58 1
    59   31   59 1
    60   32   33 1
    61   32   34 1
    62   32   66 1
    63   33   60 1
    64   33   61 1
    65   33   62 1
    66   34   63 1
    67   34   64 1
    68   34   65 1
@<TRIPOS>MOLECULE
ZINC00120273
   30    32     0     0     0
SMALL
USER_CHARGES

@<TRIPOS>ATOM
      1 C1         -0.0163    1.3802    0.0111 C.ar      1 <0>        -0.0990
      2 C2          0.2374    0.3974    0.9516 C.ar      1 <0>        -0.1230
      3 C3          1.4405   -0.2770    0.9418 C.ar      1 <0>        -0.0655
      4 C4          2.4040    0.0343   -0.0206 C.ar      1 <0>        -0.0531
      5 C5          2.1410    1.0276   -0.9670 C.ar      1 <0>        -0.0849
      6 C6          0.9335    1.6938   -0.9452 C.ar      1 <0>        -0.1245
      7 C7          3.6939   -0.6826   -0.0372 C.2       1 <0>         0.1351
      8 C8          3.6900   -2.0410    0.0540 C.2       1 <0>        -0.0465
      9 C9          4.9235   -2.7456    0.0389 C.2       1 <0>         0.4008
     10 O1          4.9595   -3.9630    0.1183 O.2       1 <0>        -0.4497
     11 C10         6.1558   -1.9502   -0.0767 C.ar      1 <0>        -0.2692
     12 C11         7.4165   -2.5618   -0.0999 C.ar      1 <0>         0.2242
     13 C12         8.5506   -1.7796   -0.2100 C.ar      1 <0>        -0.2087
     14 C13         8.4394   -0.3957   -0.2971 C.ar      1 <0>         0.1994
     15 C14         7.1961    0.2162   -0.2748 C.ar      1 <0>        -0.1861
     16 C15         6.0463   -0.5513   -0.1648 C.ar      1 <0>         0.1875
     17 O2          4.8285    0.0294   -0.1473 O.3       1 <0>        -0.1979
     18 O3          9.5600    0.3630   -0.4045 O.3       1 <0>        -0.4868
     19 O4          7.5229   -3.9121   -0.0144 O.3       1 <0>        -0.4727
     20 O5          2.5145   -2.7180    0.1592 O.3       1 <0>        -0.4489
     21 H1         -0.9619    1.9019    0.0207 H         1 <0>         0.1278
     22 H2         -0.5083    0.1581    1.6953 H         1 <0>         0.1307
     23 H3          1.6374   -1.0436    1.6767 H         1 <0>         0.1313
     24 H4          2.8815    1.2735   -1.7137 H         1 <0>         0.1284
     25 H5          0.7287    2.4620   -1.6762 H         1 <0>         0.1298
     26 H6          9.5255   -2.2439   -0.2282 H         1 <0>         0.1512
     27 H7          7.1227    1.2915   -0.3431 H         1 <0>         0.1553
     28 H8          9.8402    0.5239   -1.3159 H         1 <0>         0.4048
     29 H9          7.5088   -4.3627   -0.8698 H         1 <0>         0.4035
     30 H10         2.6173   -3.6777    0.2183 H         1 <0>         0.4067
@<TRIPOS>BOND
     1    1    6 ar
     2    1    2 ar
     3    1   21 1
     4    2    3 ar
     5    2   22 1
     6    3    4 ar
     7    3   23 1
     8    4    5 ar
     9    4    7 1
    10    5    6 ar
    11    5   24 1
    12    6   25 1
    13    7   17 1
    14    7    8 2
    15    8    9 1
    16    8   20 1
    17    9   10 2
    18    9   11 1
    19   11   16 ar
    20   11   12 ar
    21   12   13 ar
    22   12   19 1
    23   13   14 ar
    24   13   26 1
    25   14   15 ar
    26   14   18 1
    27   15   16 ar
    28   15   27 1
    29   16   17 1
    30   18   28 1
    31   19   29 1
    32   20   30 1
@<TRIPOS>MOLECULE
ZINC13832607
   55    58     0     0     0
SMALL
USER_CHARGES
3-[2-(4-aminophenyl)ethyl]-8-cyclopentyl-1-propyl-7H-purine-2,6-dione
@<TRIPOS>ATOM
      1 C1         -0.0187    1.5258    0.0104 C.3       1 <0>        -0.1473
      2 C2          0.0021   -0.0041    0.0020 C.3       1 <0>        -0.1376
      3 C3         -1.4333   -0.5336    0.0129 C.3       1 <0>         0.1139
      4 N1         -1.4134   -1.9985    0.0048 N.am      1 <0>        -0.5487
      5 C4         -1.3932   -2.6693    1.1754 C.2       1 <0>         0.5940
      6 O1         -1.3914   -2.0640    2.2324 O.2       1 <0>        -0.5135
      7 C5         -1.3746   -4.0806    1.1608 C.2       1 <0>        -0.1549
      8 C6         -1.3776   -4.7450   -0.0593 C.2       1 <0>         0.3251
      9 N2         -1.3581   -6.0543    0.2029 N.2       1 <0>        -0.4906
     10 C7         -1.3433   -6.2471    1.4972 C.2       1 <0>         0.3071
     11 N3         -1.3526   -5.0597    2.1337 N.pl3     1 <0>        -0.5165
     12 H1         -1.3450   -4.9151    3.1232 H         1 <0>         0.4407
     13 C8         -1.3186   -7.5937    2.1734 C.3       1 <0>        -0.0163
     14 C9         -2.0939   -7.5304    3.5056 C.3       1 <0>        -0.1241
     15 C10        -1.2812   -8.4406    4.4608 C.3       1 <0>        -0.1244
     16 C11         0.1836   -8.1393    4.0575 C.3       1 <0>        -0.1287
     17 C12         0.1288   -7.9811    2.5239 C.3       1 <0>        -0.1170
     18 N4         -1.3988   -3.9992   -1.2268 N.am      1 <0>        -0.5074
     19 C13        -1.4212   -2.6542   -1.1685 C.2       1 <0>         0.7070
     20 O2         -1.4443   -2.0165   -2.2037 O.2       1 <0>        -0.5287
     21 C14        -1.4029   -4.6751   -2.5265 C.3       1 <0>         0.1255
     22 C15        -2.8466   -4.9291   -2.9647 C.3       1 <0>        -0.0834
     23 C16        -2.8508   -5.6244   -4.3017 C.ar      1 <0>        -0.1428
     24 C17        -2.8776   -4.8797   -5.4665 C.ar      1 <0>        -0.0608
     25 C18        -2.8758   -5.5136   -6.6935 C.ar      1 <0>        -0.1978
     26 C19        -2.8585   -6.9011   -6.7566 C.ar      1 <0>         0.2152
     27 C20        -2.8372   -7.6463   -5.5844 C.ar      1 <0>        -0.1982
     28 C21        -2.8335   -7.0059   -4.3609 C.ar      1 <0>        -0.0607
     29 N5         -2.8619   -7.5456   -7.9957 N.pl3     1 <0>        -0.8797
     30 H2          1.0039    1.9031    0.0027 H         1 <0>         0.0612
     31 H3         -0.5459    1.8868   -0.8726 H         1 <0>         0.0598
     32 H4         -0.5289    1.8773    0.9072 H         1 <0>         0.0587
     33 H5          0.5123   -0.3556   -0.8948 H         1 <0>         0.0693
     34 H6          0.5293   -0.3651    0.8851 H         1 <0>         0.0669
     35 H7         -1.9435   -0.1821    0.9097 H         1 <0>         0.1009
     36 H8         -1.9605   -0.1726   -0.8702 H         1 <0>         0.1034
     37 H9         -1.7591   -8.3472    1.5205 H         1 <0>         0.1172
     38 H10        -2.1203   -6.5083    3.8834 H         1 <0>         0.0624
     39 H11        -3.1049   -7.9169    3.3773 H         1 <0>         0.0821
     40 H12        -1.5208   -9.4901    4.2902 H         1 <0>         0.0759
     41 H13        -1.4597   -8.1666    5.5006 H         1 <0>         0.0735
     42 H14         0.8335   -8.9700    4.3323 H         1 <0>         0.0739
     43 H15         0.5255   -7.2155    4.5243 H         1 <0>         0.0665
     44 H16         0.3904   -8.9230    2.0418 H         1 <0>         0.0818
     45 H17         0.8133   -7.1951    2.2049 H         1 <0>         0.0684
     46 H18        -0.9044   -4.0466   -3.2645 H         1 <0>         0.1006
     47 H19        -0.8758   -5.6256   -2.4433 H         1 <0>         0.0994
     48 H20        -3.3450   -5.5576   -2.2267 H         1 <0>         0.0744
     49 H21        -3.3736   -3.9786   -3.0478 H         1 <0>         0.0744
     50 H22        -2.8959   -3.8010   -5.4167 H         1 <0>         0.1226
     51 H23        -2.8924   -4.9312   -7.6029 H         1 <0>         0.1194
     52 H24        -2.8241   -8.7253   -5.6299 H         1 <0>         0.1193
     53 H25        -2.8166   -7.5847   -3.4492 H         1 <0>         0.1226
     54 H26        -2.8494   -8.5146   -8.0385 H         1 <0>         0.3979
     55 H27        -2.8767   -7.0242   -8.8135 H         1 <0>         0.3980
@<TRIPOS>BOND
     1    1    2 1
     2    1   30 1
     3    1   31 1
     4    1   32 1
     5    2    3 1
     6    2   33 1
     7    2   34 1
     8    3    4 1
     9    3   35 1
    10    3   36 1
    11    4   19 am
    12    4    5 am
    13    5    6 2
    14    5    7 1
    15    7   11 1
    16    7    8 2
    17    8    9 1
    18    8   18 1
    19    9   10 2
    20   10   11 1
    21   10   13 1
    22   11   12 1
    23   13   17 1
    24   13   14 1
    25   13   37 1
    26   14   15 1
    27   14   38 1
    28   14   39 1
    29   15   16 1
    30   15   40 1
    31   15   41 1
    32   16   17 1
    33   16   42 1
    34   16   43 1
    35   17   44 1
    36   17   45 1
    37   18   19 am
    38   18   21 1
    39   19   20 2
    40   21   22 1
    41   21   46 1
    42   21   47 1
    43   22   23 1
    44   22   48 1
    45   22   49 1
    46   23   28 ar
    47   23   24 ar
    48   24   25 ar
    49   24   50 1
    50   25   26 ar
    51   25   51 1
    52   26   27 ar
    53   26   29 1
    54   27   28 ar
    55   27   52 1
    56   28   53 1
    57   29   54 1
    58   29   55 1
@<TRIPOS>MOLECULE
ZINC03800030
   54    57     0     0     0
SMALL
USER_CHARGES
2-[6-amino-2-[2-(1-cyclohexenyl)ethylamino]purin-9-yl]-5-(hydroxymethyl)tetrahydrofuran-3,4-diol
@<TRIPOS>ATOM
      1 C1          4.0860    1.3429    0.4887 C.2       1 <0>         0.2548
      2 N1          5.3693    1.1648    0.3710 N.2       1 <0>        -0.4441
      3 C2          5.6456    0.6747   -0.8625 C.ar      1 <0>        -0.1172
      4 C3          6.8231    0.3057   -1.5364 C.ar      1 <0>         0.4850
      5 N2          6.7269   -0.1505   -2.7800 N.ar      1 <0>        -0.6076
      6 C4          5.5490   -0.2591   -3.3817 C.ar      1 <0>         0.6151
      7 N3          4.4174    0.0765   -2.7843 N.ar      1 <0>        -0.5851
      8 C5          4.4221    0.5426   -1.5392 C.ar      1 <0>         0.3506
      9 N4          3.4565    0.9675   -0.6622 N.pl3     1 <0>        -0.4770
     10 C6          2.0146    1.0153   -0.9168 C.3       1 <0>         0.3161
     11 H1          1.8217    1.3114   -1.9480 H         1 <0>         0.1203
     12 C7          1.3706   -0.3575   -0.6221 C.3       1 <0>         0.0794
     13 H2          1.9790   -0.9208    0.0855 H         1 <0>         0.0858
     14 C8          0.0021   -0.0041    0.0020 C.3       1 <0>         0.0465
     15 H3         -0.0661   -0.3925    1.0182 H         1 <0>         0.0873
     16 C9         -0.0189    1.5406    0.0105 C.3       1 <0>         0.0505
     17 H4         -0.5253    1.9181   -0.8778 H         1 <0>         0.0995
     18 O1          1.3722    1.9285   -0.0007 O.3       1 <0>        -0.3460
     19 C10        -0.7057    2.0570    1.2764 C.3       1 <0>         0.0819
     20 O2         -0.8186    3.4800    1.2104 O.3       1 <0>        -0.5635
     21 O3         -1.0642   -0.5149   -0.8005 O.3       1 <0>        -0.5408
     22 O4          1.1932   -1.0974   -1.8317 O.3       1 <0>        -0.5265
     23 N5          5.5029   -0.7406   -4.6797 N.pl3     1 <0>        -0.6958
     24 C11         6.7411   -1.1198   -5.3647 C.3       1 <0>         0.1464
     25 C12         6.4128   -1.6152   -6.7745 C.3       1 <0>        -0.1005
     26 C13         7.6865   -2.0054   -7.4792 C.2       1 <0>        -0.1196
     27 C14         8.0445   -3.2487   -7.4418 C.2       1 <0>        -0.1469
     28 C15         9.2866   -3.7860   -8.0902 C.3       1 <0>        -0.0914
     29 C16         9.8232   -2.7844   -9.1152 C.3       1 <0>        -0.1216
     30 C17         9.8919   -1.4024   -8.4530 C.3       1 <0>        -0.1208
     31 C18         8.4641   -0.9271   -8.1755 C.3       1 <0>        -0.0835
     32 N6          8.0555    0.4150   -0.9171 N.pl3     1 <0>        -0.7413
     33 H5          3.5917    1.7279    1.3683 H         1 <0>         0.2222
     34 H6         -1.6997    1.6169    1.3558 H         1 <0>         0.0667
     35 H7         -0.1148    1.7795    2.1493 H         1 <0>         0.0617
     36 H8         -1.2456    3.8769    1.9819 H         1 <0>         0.3868
     37 H9         -1.9453   -0.2710   -0.4854 H         1 <0>         0.3879
     38 H10         0.7383   -1.9425   -1.7128 H         1 <0>         0.3901
     39 H11         4.6508   -0.8267   -5.1351 H         1 <0>         0.4149
     40 H12         7.4009   -0.2545   -5.4281 H         1 <0>         0.0675
     41 H13         7.2364   -1.9143   -4.8066 H         1 <0>         0.0678
     42 H14         5.7530   -2.4805   -6.7111 H         1 <0>         0.0748
     43 H15         5.9175   -0.8207   -7.3327 H         1 <0>         0.0761
     44 H16         7.4078   -3.9434   -6.9140 H         1 <0>         0.1032
     45 H17         9.0577   -4.7271   -8.5903 H         1 <0>         0.0714
     46 H18        10.0422   -3.9586   -7.3239 H         1 <0>         0.0736
     47 H19         9.1541   -2.7458   -9.9748 H         1 <0>         0.0639
     48 H20        10.8200   -3.0869   -9.4360 H         1 <0>         0.0649
     49 H21        10.3885   -0.6998   -9.1222 H         1 <0>         0.0652
     50 H22        10.4446   -1.4688   -7.5158 H         1 <0>         0.0649
     51 H23         7.9756   -0.6809   -9.1183 H         1 <0>         0.0729
     52 H24         8.4972   -0.0399   -7.5432 H         1 <0>         0.0714
     53 H25         8.2183    1.3688   -0.6647 H         1 <0>         0.3707
     54 H26         8.8613    0.1574   -1.3916 H         1 <0>         0.3717
@<TRIPOS>BOND
     1    1    9 1
     2    1    2 2
     3    1   33 1
     4    2    3 1
     5    3    8 ar
     6    3    4 ar
     7    4    5 ar
     8    4   32 1
     9    5    6 ar
    10    6    7 ar
    11    6   23 1
    12    7    8 ar
    13    8    9 1
    14    9   10 1
    15   10   11 1
    16   10   18 1
    17   10   12 1
    18   12   13 1
    19   12   14 1
    20   12   22 1
    21   14   15 1
    22   14   16 1
    23   14   21 1
    24   16   17 1
    25   16   18 1
    26   16   19 1
    27   19   20 1
    28   19   34 1
    29   19   35 1
    30   20   36 1
    31   21   37 1
    32   22   38 1
    33   23   24 1
    34   23   39 1
    35   24   25 1
    36   24   40 1
    37   24   41 1
    38   25   26 1
    39   25   42 1
    40   25   43 1
    41   26   31 1
    42   26   27 2
    43   27   28 1
    44   27   44 1
    45   28   29 1
    46   28   45 1
    47   28   46 1
    48   29   30 1
    49   29   47 1
    50   29   48 1
    51   30   31 1
    52   30   49 1
    53   30   50 1
    54   31   51 1
    55   31   52 1
    56   32   53 1
    57   32   54 1
@<TRIPOS>MOLECULE
ZINC08581223
   37    39     0     0     0
SMALL
USER_CHARGES
8-cyclohexyl-1,3-dimethyl-7H-purine-2,6-dione
@<TRIPOS>ATOM
      1 C1          3.0658   -2.1400   -0.0391 C.3       1 <0>         0.0873
      2 N1          1.6616   -1.7224   -0.0235 N.am      1 <0>        -0.5100
      3 C2          1.3409   -0.3746   -0.0128 C.2       1 <0>         0.3177
      4 C3          0.0021   -0.0041    0.0020 C.2       1 <0>        -0.1631
      5 C4         -0.9895   -1.0086    0.0057 C.2       1 <0>         0.5945
      6 O1         -2.1700   -0.7090    0.0189 O.2       1 <0>        -0.5146
      7 N2         -0.6144   -2.3047   -0.0052 N.am      1 <0>        -0.5514
      8 C5          0.6848   -2.6490   -0.0190 C.2       1 <0>         0.7064
      9 O2          0.9856   -3.8272   -0.0282 O.2       1 <0>        -0.5327
     10 C6         -1.6385   -3.3523   -0.0015 C.3       1 <0>         0.0785
     11 N3         -0.0166    1.3763    0.0096 N.pl3     1 <0>        -0.5247
     12 H1         -0.9765    1.9133    0.0216 H         1 <0>         0.4665
     13 C7          1.2663    1.7875   -0.0004 C.2       1 <0>         0.3157
     14 N4          2.0626    0.7490   -0.0136 N.2       1 <0>        -0.4961
     15 C8          1.7164    3.2257    0.0030 C.3       1 <0>        -0.0088
     16 C9          0.7489    4.0608    0.8441 C.3       1 <0>        -0.1199
     17 C10         1.2058    5.5210    0.8476 C.3       1 <0>        -0.1185
     18 C11         1.2244    6.0530   -0.5868 C.3       1 <0>        -0.1250
     19 C12         2.1919    5.2179   -1.4279 C.3       1 <0>        -0.1196
     20 C13         1.7350    3.7577   -1.4314 C.3       1 <0>        -0.1122
     21 H2          3.7129   -1.2504   -0.0406 H         1 <0>         0.1004
     22 H3          3.2608   -2.7369   -0.9423 H         1 <0>         0.0800
     23 H4          3.2780   -2.7462    0.8539 H         1 <0>         0.0799
     24 H5         -1.1533   -4.3394   -0.0117 H         1 <0>         0.1073
     25 H6         -2.2740   -3.2469   -0.8931 H         1 <0>         0.0826
     26 H7         -2.2571   -3.2571    0.9031 H         1 <0>         0.0826
     27 H8          2.7271    3.2771    0.4341 H         1 <0>         0.1145
     28 H9         -0.2617    3.9938    0.4150 H         1 <0>         0.0644
     29 H10         0.7354    3.6783    1.8754 H         1 <0>         0.0721
     30 H11         0.5102    6.1214    1.4524 H         1 <0>         0.0694
     31 H12         2.2165    5.5880    1.2767 H         1 <0>         0.0692
     32 H13         0.2137    5.9860   -1.0158 H         1 <0>         0.0633
     33 H14         1.5528    7.1028   -0.5843 H         1 <0>         0.0669
     34 H15         2.2053    5.6004   -2.4592 H         1 <0>         0.0692
     35 H16         3.2026    5.2848   -0.9988 H         1 <0>         0.0687
     36 H17         2.4306    3.1573   -2.0361 H         1 <0>         0.0742
     37 H18         0.7243    3.6908   -1.8605 H         1 <0>         0.0654
@<TRIPOS>BOND
     1    1    2 1
     2    1   21 1
     3    1   22 1
     4    1   23 1
     5    2    8 am
     6    2    3 1
     7    3   14 1
     8    3    4 2
     9    4    5 1
    10    4   11 1
    11    5    6 2
    12    5    7 am
    13    7    8 am
    14    7   10 1
    15    8    9 2
    16   10   24 1
    17   10   25 1
    18   10   26 1
    19   11   12 1
    20   11   13 1
    21   13   14 2
    22   13   15 1
    23   15   20 1
    24   15   16 1
    25   15   27 1
    26   16   17 1
    27   16   28 1
    28   16   29 1
    29   17   18 1
    30   17   30 1
    31   17   31 1
    32   18   19 1
    33   18   32 1
    34   18   33 1
    35   19   20 1
    36   19   34 1
    37   19   35 1
    38   20   36 1
    39   20   37 1
@<TRIPOS>MOLECULE
ZINC03918045
   64    67     0     0     0
SMALL
USER_CHARGES

@<TRIPOS>ATOM
      1 C1         -0.0187    1.5258    0.0104 C.3       1 <0>        -0.1674
      2 C2          0.0021   -0.0041    0.0020 C.3       1 <0>         0.1138
      3 N1         -1.3723   -0.5112    0.0124 N.am      1 <0>        -0.7285
      4 C3         -1.6006   -1.8394    0.0075 C.2       1 <0>         0.5161
      5 O1         -0.6682   -2.6149   -0.0056 O.2       1 <0>        -0.5030
      6 C4         -3.0144   -2.3611    0.0182 C.3       1 <0>         0.0322
      7 H1         -3.5805   -1.9494   -0.8174 H         1 <0>         0.1204
      8 C5         -3.7084   -2.0293    1.3638 C.3       1 <0>         0.0505
      9 H2         -3.0081   -2.1165    2.1945 H         1 <0>         0.0942
     10 C6         -4.8001   -3.1239    1.4442 C.3       1 <0>         0.0831
     11 H3         -4.8843   -3.5048    2.4620 H         1 <0>         0.0903
     12 C7         -4.2978   -4.2288    0.4946 C.3       1 <0>         0.3175
     13 H4         -5.0029   -4.3610   -0.3260 H         1 <0>         0.1284
     14 O2         -3.0242   -3.8042   -0.0230 O.3       1 <0>        -0.3269
     15 N2         -4.1477   -5.4871    1.2297 N.pl3     1 <0>        -0.4802
     16 C8         -3.0008   -5.9569    1.8003 C.2       1 <0>         0.2432
     17 N3         -3.2267   -7.1034    2.3721 N.2       1 <0>        -0.4481
     18 C9         -4.5290   -7.4419    2.2057 C.ar      1 <0>        -0.1569
     19 C10        -5.1358   -6.4064    1.4757 C.ar      1 <0>         0.3582
     20 N4         -6.4289   -6.4937    1.1805 N.ar      1 <0>        -0.6111
     21 C11        -7.1392   -7.5399    1.5700 C.ar      1 <0>         0.6334
     22 N5         -6.6075   -8.5385    2.2633 N.ar      1 <0>        -0.6206
     23 C12        -5.3210   -8.5359    2.5945 C.ar      1 <0>         0.5455
     24 N6         -4.7758   -9.5810    3.3191 N.pl3     1 <0>        -0.8154
     25 N7         -8.4842   -7.5943    1.2433 N.pl3     1 <0>        -0.6931
     26 C13        -9.2940   -8.7410    1.6621 C.3       1 <0>         0.1436
     27 C14       -10.7329   -8.5537    1.1769 C.3       1 <0>        -0.0856
     28 C15       -11.5659   -9.7334    1.6077 C.ar      1 <0>        -0.1035
     29 C16       -11.6726  -10.8406    0.7871 C.ar      1 <0>        -0.1102
     30 C17       -12.4367  -11.9227    1.1822 C.ar      1 <0>        -0.1197
     31 C18       -13.0937  -11.8977    2.3982 C.ar      1 <0>        -0.0611
     32 C19       -12.9862  -10.7908    3.2192 C.ar      1 <0>        -0.1198
     33 C20       -12.2187   -9.7105    2.8260 C.ar      1 <0>        -0.1103
     34 C21       -13.9275  -13.0770    2.8286 C.3       1 <0>        -0.0621
     35 C22       -13.0545  -14.0606    3.6104 C.3       1 <0>        -0.1744
     36 C23       -13.8883  -15.2399    4.0407 C.2       1 <0>         0.4893
     37 O3        -15.0711  -15.2890    3.7491 O.co2     1 <0>        -0.6989
     38 O4        -13.3800  -16.1448    4.6804 O.co2     1 <0>        -0.7061
     39 O5         -6.0569   -2.6106    0.9981 O.3       1 <0>        -0.5315
     40 O6         -4.2936   -0.7261    1.3280 O.3       1 <0>        -0.5367
     41 H5          1.0039    1.9031    0.0027 H         1 <0>         0.0782
     42 H6         -0.5459    1.8868   -0.8726 H         1 <0>         0.0641
     43 H7         -0.5289    1.8773    0.9072 H         1 <0>         0.0635
     44 H8          0.5123   -0.3556   -0.8948 H         1 <0>         0.0723
     45 H9          0.5293   -0.3651    0.8851 H         1 <0>         0.0723
     46 H10        -2.1181    0.1091    0.0229 H         1 <0>         0.3976
     47 H11        -2.0464   -5.4520    1.7797 H         1 <0>         0.2192
     48 H12        -3.8374   -9.5637    3.5640 H         1 <0>         0.4192
     49 H13        -5.3319  -10.3310    3.5820 H         1 <0>         0.4113
     50 H14        -8.8899   -6.8730    0.7372 H         1 <0>         0.4139
     51 H15        -8.8814   -9.6536    1.2319 H         1 <0>         0.0706
     52 H16        -9.2840   -8.8152    2.7495 H         1 <0>         0.0705
     53 H17       -11.1455   -7.6411    1.6071 H         1 <0>         0.0758
     54 H18       -10.7429   -8.4796    0.0895 H         1 <0>         0.0759
     55 H19       -11.1593  -10.8602   -0.1629 H         1 <0>         0.1169
     56 H20       -12.5206  -12.7875    0.5408 H         1 <0>         0.1208
     57 H21       -13.4998  -10.7711    4.1691 H         1 <0>         0.1207
     58 H22       -12.1317   -8.8472    3.4691 H         1 <0>         0.1168
     59 H23       -14.7441  -12.7324    3.4630 H         1 <0>         0.0703
     60 H24       -14.3358  -13.5737    1.9485 H         1 <0>         0.0703
     61 H25       -12.2379  -14.4052    2.9760 H         1 <0>         0.0570
     62 H26       -12.6461  -13.5639    4.4905 H         1 <0>         0.0569
     63 H27        -6.3912   -1.8738    1.5276 H         1 <0>         0.3949
     64 H28        -3.6563   -0.0124    1.1882 H         1 <0>         0.3823
@<TRIPOS>BOND
     1    1    2 1
     2    1   41 1
     3    1   42 1
     4    1   43 1
     5    2    3 1
     6    2   44 1
     7    2   45 1
     8    3    4 am
     9    3   46 1
    10    4    5 2
    11    4    6 1
    12    6    7 1
    13    6   14 1
    14    6    8 1
    15    8    9 1
    16    8   10 1
    17    8   40 1
    18   10   11 1
    19   10   12 1
    20   10   39 1
    21   12   13 1
    22   12   14 1
    23   12   15 1
    24   15   19 1
    25   15   16 1
    26   16   17 2
    27   16   47 1
    28   17   18 1
    29   18   23 ar
    30   18   19 ar
    31   19   20 ar
    32   20   21 ar
    33   21   22 ar
    34   21   25 1
    35   22   23 ar
    36   23   24 1
    37   24   48 1
    38   24   49 1
    39   25   26 1
    40   25   50 1
    41   26   27 1
    42   26   51 1
    43   26   52 1
    44   27   28 1
    45   27   53 1
    46   27   54 1
    47   28   33 ar
    48   28   29 ar
    49   29   30 ar
    50   29   55 1
    51   30   31 ar
    52   30   56 1
    53   31   32 ar
    54   31   34 1
    55   32   33 ar
    56   32   57 1
    57   33   58 1
    58   34   35 1
    59   34   59 1
    60   34   60 1
    61   35   36 1
    62   35   61 1
    63   35   62 1
    64   36   37 2
    65   36   38 1
    66   39   63 1
    67   40   64 1
@<TRIPOS>MOLECULE
ZINC13600452
   58    60     0     0     0
SMALL
USER_CHARGES
8-[(Z)-2-(3,4-dimethoxyphenyl)vinyl]-7-methyl-1,3-dipropyl-purine-2,6-dione
@<TRIPOS>ATOM
      1 C1          5.1896    4.5657    0.7901 C.3       1 <0>        -0.1460
      2 C2          4.5329    3.2780    1.2917 C.3       1 <0>        -0.1361
      3 C3          4.1963    2.3795    0.0999 C.3       1 <0>         0.1200
      4 N1          3.4637    1.2006    0.5687 N.am      1 <0>        -0.5069
      5 C4          2.0770    1.1961    0.5543 C.2       1 <0>         0.3220
      6 C5          1.4060    0.0625    1.0060 C.2       1 <0>        -0.1543
      7 C6          2.1537   -1.0420    1.4625 C.2       1 <0>         0.5941
      8 O1          1.5893   -2.0448    1.8628 O.2       1 <0>        -0.5147
      9 N2          3.5011   -0.9764    1.4511 N.am      1 <0>        -0.5494
     10 C7          4.1376    0.1234    1.0133 C.2       1 <0>         0.7066
     11 O2          5.3534    0.1457    1.0184 O.2       1 <0>        -0.5313
     12 C8          4.2828   -2.1217    1.9240 C.3       1 <0>         0.1145
     13 C9          4.5393   -1.9790    3.4256 C.3       1 <0>        -0.1372
     14 C10         5.3556   -3.1751    3.9195 C.3       1 <0>        -0.1470
     15 N3          0.0549    0.3299    0.8823 N.pl3     1 <0>        -0.4077
     16 C11        -0.0508    1.5914    0.3699 C.2       1 <0>         0.3156
     17 N4          1.1612    2.0873    0.1828 N.2       1 <0>        -0.4684
     18 C12        -1.3060    2.2828    0.0696 C.2       1 <0>        -0.1239
     19 C13        -1.2854    3.4731   -0.5637 C.2       1 <0>        -0.0212
     20 C14        -0.0368    3.9632   -1.1678 C.ar      1 <0>        -0.0698
     21 C15         0.7619    3.1000   -1.9254 C.ar      1 <0>        -0.0287
     22 C16         1.9308    3.5619   -2.4907 C.ar      1 <0>        -0.1873
     23 C17         2.3184    4.8825   -2.3109 C.ar      1 <0>         0.1154
     24 C18         1.5279    5.7487   -1.5574 C.ar      1 <0>         0.0879
     25 C19         0.3522    5.2954   -0.9912 C.ar      1 <0>        -0.1438
     26 O3          1.9116    7.0418   -1.3839 O.3       1 <0>        -0.3076
     27 C20         1.0536    7.8735   -0.6002 C.3       1 <0>         0.0272
     28 O4          3.4721    5.3322   -2.8707 O.3       1 <0>        -0.3045
     29 C21         4.1767    4.4257   -3.7214 C.3       1 <0>         0.0257
     30 C22        -1.0495   -0.5666    1.2330 C.3       1 <0>         0.0699
     31 H1          6.1467    4.3284    0.3255 H         1 <0>         0.0571
     32 H2          4.5390    5.0440    0.0580 H         1 <0>         0.0614
     33 H3          5.3510    5.2420    1.6295 H         1 <0>         0.0593
     34 H4          3.6184    3.5230    1.8317 H         1 <0>         0.0646
     35 H5          5.2195    2.7557    1.9580 H         1 <0>         0.0684
     36 H6          5.1180    2.0639   -0.3889 H         1 <0>         0.0939
     37 H7          3.5798    2.9321   -0.6091 H         1 <0>         0.1000
     38 H8          3.7295   -3.0418    1.7357 H         1 <0>         0.1006
     39 H9          5.2348   -2.1553    1.3944 H         1 <0>         0.1023
     40 H10         5.0925   -1.0589    3.6139 H         1 <0>         0.0687
     41 H11         3.5872   -1.9453    3.9552 H         1 <0>         0.0665
     42 H12         5.5383   -3.0734    4.9892 H         1 <0>         0.0612
     43 H13         4.8023   -4.0952    3.7312 H         1 <0>         0.0587
     44 H14         6.3077   -3.2087    3.3898 H         1 <0>         0.0597
     45 H15        -2.2485    1.8395    0.3553 H         1 <0>         0.1461
     46 H16        -2.1854    4.0665   -0.6275 H         1 <0>         0.1427
     47 H17         0.4625    2.0722   -2.0676 H         1 <0>         0.1135
     48 H18         2.5467    2.8946   -3.0753 H         1 <0>         0.1298
     49 H19        -0.2634    5.9667   -0.4110 H         1 <0>         0.1337
     50 H20         1.4752    8.8769   -0.5409 H         1 <0>         0.0992
     51 H21         0.0689    7.9201   -1.0652 H         1 <0>         0.0534
     52 H22         0.9623    7.4579    0.4034 H         1 <0>         0.0534
     53 H23         5.1005    4.8921   -4.0636 H         1 <0>         0.1010
     54 H24         4.4121    3.5165   -3.1680 H         1 <0>         0.0531
     55 H25         3.5551    4.1768   -4.5815 H         1 <0>         0.0548
     56 H26        -1.3122   -1.1751    0.3677 H         1 <0>         0.0873
     57 H27        -0.7442   -1.2152    2.0541 H         1 <0>         0.1010
     58 H28        -1.9136    0.0235    1.5381 H         1 <0>         0.0955
@<TRIPOS>BOND
     1    1    2 1
     2    1   31 1
     3    1   32 1
     4    1   33 1
     5    2    3 1
     6    2   34 1
     7    2   35 1
     8    3    4 1
     9    3   36 1
    10    3   37 1
    11    4   10 am
    12    4    5 1
    13    5   17 1
    14    5    6 2
    15    6    7 1
    16    6   15 1
    17    7    8 2
    18    7    9 am
    19    9   10 am
    20    9   12 1
    21   10   11 2
    22   12   13 1
    23   12   38 1
    24   12   39 1
    25   13   14 1
    26   13   40 1
    27   13   41 1
    28   14   42 1
    29   14   43 1
    30   14   44 1
    31   15   16 1
    32   15   30 1
    33   16   17 2
    34   16   18 1
    35   18   19 2
    36   18   45 1
    37   19   20 1
    38   19   46 1
    39   20   25 ar
    40   20   21 ar
    41   21   22 ar
    42   21   47 1
    43   22   23 ar
    44   22   48 1
    45   23   24 ar
    46   23   28 1
    47   24   25 ar
    48   24   26 1
    49   25   49 1
    50   26   27 1
    51   27   50 1
    52   27   51 1
    53   27   52 1
    54   28   29 1
    55   29   53 1
    56   29   54 1
    57   29   55 1
    58   30   56 1
    59   30   57 1
    60   30   58 1
@<TRIPOS>MOLECULE
ZINC13600452
   59    61     0     0     0
SMALL
USER_CHARGES
8-[(Z)-2-(3,4-dimethoxyphenyl)vinyl]-7-methyl-1,3-dipropyl-purine-2,6-dione
@<TRIPOS>ATOM
      1 C1          5.1896    4.5657    0.7901 C.3       1 <0>        -0.1529
      2 C2          4.5329    3.2780    1.2917 C.3       1 <0>        -0.1449
      3 C3          4.1963    2.3795    0.0999 C.3       1 <0>         0.0982
      4 N1          3.4637    1.2006    0.5687 N.am      1 <0>        -0.5115
      5 C4          2.0770    1.1961    0.5543 C.2       1 <0>         0.3467
      6 C5          1.4060    0.0625    1.0060 C.2       1 <0>        -0.0827
      7 C6          2.1537   -1.0420    1.4625 C.2       1 <0>         0.5907
      8 O1          1.5893   -2.0448    1.8628 O.2       1 <0>        -0.4681
      9 N2          3.5011   -0.9764    1.4511 N.am      1 <0>        -0.5400
     10 C7          4.1376    0.1234    1.0133 C.2       1 <0>         0.7087
     11 O2          5.3534    0.1457    1.0184 O.2       1 <0>        -0.4844
     12 C8          4.2828   -2.1217    1.9240 C.3       1 <0>         0.1076
     13 C9          4.5393   -1.9790    3.4256 C.3       1 <0>        -0.1381
     14 C10         5.3556   -3.1751    3.9195 C.3       1 <0>        -0.1506
     15 N3          0.0549    0.3299    0.8823 N.pl3     1 <0>        -0.3519
     16 C11        -0.0508    1.5914    0.3699 C.cat     1 <0>         0.3950
     17 C12        -1.3060    2.2828    0.0696 C.2       1 <0>        -0.1610
     18 C13        -1.2854    3.4731   -0.5637 C.2       1 <0>         0.0301
     19 C14        -0.0368    3.9632   -1.1678 C.ar      1 <0>        -0.1448
     20 C15         0.7619    3.1000   -1.9254 C.ar      1 <0>        -0.1264
     21 C16         1.9308    3.5619   -2.4907 C.ar      1 <0>        -0.1923
     22 C17         2.3184    4.8825   -2.3109 C.ar      1 <0>         0.1380
     23 C18         1.5279    5.7487   -1.5574 C.ar      1 <0>         0.1140
     24 C19         0.3522    5.2954   -0.9912 C.ar      1 <0>        -0.1410
     25 O3          1.9116    7.0418   -1.3839 O.3       1 <0>        -0.2908
     26 C20         1.0536    7.8735   -0.6002 C.3       1 <0>         0.0174
     27 O4          3.4721    5.3322   -2.8707 O.3       1 <0>        -0.2864
     28 C21         4.1767    4.4257   -3.7214 C.3       1 <0>         0.0162
     29 C22        -1.0495   -0.5666    1.2330 C.3       1 <0>         0.0528
     30 H1          6.1467    4.3284    0.3255 H         1 <0>         0.0684
     31 H2          4.5390    5.0440    0.0580 H         1 <0>         0.0591
     32 H3          5.3510    5.2420    1.6295 H         1 <0>         0.0723
     33 H4          3.6184    3.5230    1.8317 H         1 <0>         0.0632
     34 H5          5.2195    2.7557    1.9580 H         1 <0>         0.0873
     35 H6          5.1180    2.0639   -0.3889 H         1 <0>         0.1253
     36 H7          3.5798    2.9321   -0.6091 H         1 <0>         0.0858
     37 H8          3.7295   -3.0418    1.7357 H         1 <0>         0.1119
     38 H9          5.2348   -2.1553    1.3944 H         1 <0>         0.1125
     39 H10         5.0925   -1.0589    3.6139 H         1 <0>         0.0707
     40 H11         3.5872   -1.9453    3.9552 H         1 <0>         0.0693
     41 H12         5.5383   -3.0734    4.9892 H         1 <0>         0.0669
     42 H13         4.8023   -4.0952    3.7312 H         1 <0>         0.0624
     43 H14         6.3077   -3.2087    3.3898 H         1 <0>         0.0629
     44 H15        -2.2485    1.8395    0.3553 H         1 <0>         0.1861
     45 H16        -2.1854    4.0665   -0.6275 H         1 <0>         0.1757
     46 H17         0.4625    2.0722   -2.0676 H         1 <0>         0.1400
     47 H18         2.5467    2.8946   -3.0753 H         1 <0>         0.1555
     48 H19        -0.2634    5.9667   -0.4110 H         1 <0>         0.1593
     49 H20         1.4752    8.8769   -0.5409 H         1 <0>         0.1144
     50 H21         0.0689    7.9201   -1.0652 H         1 <0>         0.0642
     51 H22         0.9623    7.4579    0.4034 H         1 <0>         0.0610
     52 H23         5.1005    4.8921   -4.0636 H         1 <0>         0.1165
     53 H24         4.4121    3.5165   -3.1680 H         1 <0>         0.0586
     54 H25         3.5551    4.1768   -4.5815 H         1 <0>         0.0665
     55 H26        -1.3122   -1.1751    0.3677 H         1 <0>         0.1192
     56 H27        -0.7442   -1.2152    2.0541 H         1 <0>         0.1280
     57 H28        -1.9136    0.0235    1.5381 H         1 <0>         0.1216
     58 N4          1.1617    2.0896    0.1819 N.pl3     1 <0>        -0.5051
     59 H29         1.3655    3.0231   -0.1940 H         1 <0>         0.4726
@<TRIPOS>BOND
     1    1    2 1
     2    1   30 1
     3    1   31 1
     4    1   32 1
     5    2    3 1
     6    2   33 1
     7    2   34 1
     8    3    4 1
     9    3   35 1
    10    3   36 1
    11    4   10 am
    12    4    5 1
    13    5    6 2
    14    5   58 1
    15    6    7 1
    16    6   15 1
    17    7    8 2
    18    7    9 am
    19    9   10 am
    20    9   12 1
    21   10   11 2
    22   12   13 1
    23   12   37 1
    24   12   38 1
    25   13   14 1
    26   13   39 1
    27   13   40 1
    28   14   41 1
    29   14   42 1
    30   14   43 1
    31   15   16 1
    32   15   29 1
    33   16   17 1
    34   16   58 2
    35   17   18 2
    36   17   44 1
    37   18   19 1
    38   18   45 1
    39   19   24 ar
    40   19   20 ar
    41   20   21 ar
    42   20   46 1
    43   21   22 ar
    44   21   47 1
    45   22   23 ar
    46   22   27 1
    47   23   24 ar
    48   23   25 1
    49   24   48 1
    50   25   26 1
    51   26   49 1
    52   26   50 1
    53   26   51 1
    54   27   28 1
    55   28   52 1
    56   28   53 1
    57   28   54 1
    58   29   55 1
    59   29   56 1
    60   29   57 1
    61   58   59 1
@<TRIPOS>MOLECULE
ZINC04632541
   54    57     0     0     0
SMALL
USER_CHARGES
3-[2-[4-(3,4-dimethylphenyl)piperazin-1-yl]ethyl]isoindolin-1-one
@<TRIPOS>ATOM
      1 C1          7.8495   -7.8113   -8.5815 C.3       1 <0>        -0.1249
      2 C2          7.5575   -7.0117   -7.3380 C.ar      1 <0>        -0.0892
      3 C3          8.2223   -5.8202   -7.1119 C.ar      1 <0>        -0.0896
      4 C4          7.9530   -5.0821   -5.9763 C.ar      1 <0>        -0.1644
      5 C5          7.0203   -5.5428   -5.0554 C.ar      1 <0>         0.0817
      6 C6          6.3545   -6.7398   -5.2856 C.ar      1 <0>        -0.1253
      7 C7          6.6252   -7.4706   -6.4259 C.ar      1 <0>        -0.0577
      8 C8          5.9032   -8.7695   -6.6765 C.3       1 <0>        -0.1254
      9 N1          6.7486   -4.8009   -3.9036 N.pl3     1 <0>        -0.4850
     10 C9          7.5607   -3.5769   -3.8617 C.3       1 <0>         0.0204
     11 C10         7.2927   -2.8347   -2.5503 C.3       1 <0>         0.0027
     12 C11         5.0490   -3.7410   -2.4959 C.3       1 <0>        -0.0019
     13 C12         5.3170   -4.4833   -3.8072 C.3       1 <0>         0.0256
     14 C13         5.5754   -1.7368   -1.2426 C.3       1 <0>        -0.0061
     15 C14         4.1385   -1.2144   -1.2995 C.3       1 <0>        -0.1573
     16 C15         3.8408   -0.4018   -0.0377 C.3       1 <0>         0.1875
     17 H1          4.0710   -0.9903    0.8504 H         1 <0>         0.1123
     18 C16         2.3920    0.0171   -0.0208 C.ar      1 <0>        -0.0963
     19 C17         1.2083   -0.6840   -0.0132 C.ar      1 <0>        -0.0985
     20 C18         0.0021   -0.0041    0.0020 C.ar      1 <0>        -0.0822
     21 C19        -0.0167    1.3796    0.0096 C.ar      1 <0>        -0.1135
     22 C20         1.1644    2.0922    0.0022 C.ar      1 <0>        -0.0412
     23 C21         2.3846    1.4137   -0.0132 C.ar      1 <0>        -0.1557
     24 C22         3.7831    1.8839   -0.0249 C.2       1 <0>         0.5626
     25 O1          4.1238    3.0507   -0.0221 O.2       1 <0>        -0.5036
     26 N2          4.6266    0.8374   -0.0391 N.am      1 <0>        -0.7316
     27 H2          7.1801   -7.4959   -9.3818 H         1 <0>         0.0752
     28 H3          8.8830   -7.6455   -8.8857 H         1 <0>         0.0699
     29 H4          7.6967   -8.8709   -8.3764 H         1 <0>         0.0750
     30 H5          8.9497   -5.4643   -7.8265 H         1 <0>         0.1290
     31 H6          8.4693   -4.1496   -5.8026 H         1 <0>         0.1255
     32 H7          5.6256   -7.0984   -4.5739 H         1 <0>         0.1268
     33 H8          4.9895   -8.5748   -7.2380 H         1 <0>         0.0765
     34 H9          6.5462   -9.4379   -7.2492 H         1 <0>         0.0775
     35 H10         5.6519   -9.2352   -5.7236 H         1 <0>         0.0695
     36 H11         7.2963   -2.9361   -4.7029 H         1 <0>         0.0707
     37 H12         8.6170   -3.8391   -3.9219 H         1 <0>         0.1300
     38 H13         7.8722   -1.9117   -2.5299 H         1 <0>         0.1378
     39 H14         7.5828   -3.4648   -1.7096 H         1 <0>         0.1419
     40 H15         5.3135   -4.3818   -1.6547 H         1 <0>         0.1427
     41 H16         3.9927   -3.4788   -2.4357 H         1 <0>         0.1379
     42 H17         5.0271   -3.8528   -4.6478 H         1 <0>         0.0684
     43 H18         4.7375   -5.4062   -3.8277 H         1 <0>         0.1280
     44 H19         6.2657   -0.8954   -1.1810 H         1 <0>         0.1289
     45 H20         5.6968   -2.3713   -0.3647 H         1 <0>         0.1391
     46 H21         3.4482   -2.0558   -1.3610 H         1 <0>         0.1062
     47 H22         4.0170   -0.5799   -2.1774 H         1 <0>         0.0980
     48 H23         1.2198   -1.7639   -0.0187 H         1 <0>         0.1322
     49 H24        -0.9267   -0.5552    0.0076 H         1 <0>         0.1396
     50 H25        -0.9607    1.9042    0.0169 H         1 <0>         0.1405
     51 H26         1.1453    3.1720    0.0078 H         1 <0>         0.1382
     52 H27         5.5950    0.8923   -0.0486 H         1 <0>         0.4229
     53 N3          5.8544   -2.5019   -2.4766 N.4       1 <0>        -0.3975
     54 H28         5.6026   -1.9274   -3.2894 H         1 <0>         0.4261
@<TRIPOS>BOND
     1    1    2 1
     2    1   27 1
     3    1   28 1
     4    1   29 1
     5    2    7 ar
     6    2    3 ar
     7    3    4 ar
     8    3   30 1
     9    4    5 ar
    10    4   31 1
    11    5    6 ar
    12    5    9 1
    13    6    7 ar
    14    6   32 1
    15    7    8 1
    16    8   33 1
    17    8   34 1
    18    8   35 1
    19    9   13 1
    20    9   10 1
    21   10   11 1
    22   10   36 1
    23   10   37 1
    24   11   38 1
    25   11   39 1
    26   11   53 1
    27   12   13 1
    28   12   40 1
    29   12   41 1
    30   12   53 1
    31   13   42 1
    32   13   43 1
    33   14   15 1
    34   14   44 1
    35   14   45 1
    36   14   53 1
    37   15   16 1
    38   15   46 1
    39   15   47 1
    40   16   17 1
    41   16   26 1
    42   16   18 1
    43   18   23 ar
    44   18   19 ar
    45   19   20 ar
    46   19   48 1
    47   20   21 ar
    48   20   49 1
    49   21   22 ar
    50   21   50 1
    51   22   23 ar
    52   22   51 1
    53   23   24 1
    54   24   25 2
    55   24   26 am
    56   26   52 1
    57   53   54 1
@<TRIPOS>MOLECULE
ZINC03827164
   54    57     0     0     0
SMALL
USER_CHARGES
3-[2-[4-(3,4-dimethylphenyl)piperazin-1-yl]ethyl]isoindolin-1-one
@<TRIPOS>ATOM
      1 C1          1.7632   -0.4862    5.8957 C.3       1 <0>        -0.1249
      2 C2          1.1087    0.0582    4.6522 C.ar      1 <0>        -0.0892
      3 C3          1.6104   -0.2734    3.4068 C.ar      1 <0>        -0.0896
      4 C4          1.0096    0.2191    2.2652 C.ar      1 <0>        -0.1641
      5 C5         -0.0939    1.0567    2.3690 C.ar      1 <0>         0.0816
      6 C6         -0.5952    1.3877    3.6213 C.ar      1 <0>        -0.1256
      7 C7          0.0077    0.8877    4.7590 C.ar      1 <0>        -0.0577
      8 C8         -0.5355    1.2463    6.1182 C.3       1 <0>        -0.1251
      9 N1         -0.7014    1.5602    1.2164 N.pl3     1 <0>        -0.4850
     10 C9         -0.0127    1.0858    0.0080 C.3       1 <0>         0.0204
     11 C10        -0.7538    1.5933   -1.2312 C.3       1 <0>         0.0026
     12 C11        -1.4953    3.5359    0.0077 C.3       1 <0>        -0.0018
     13 C12        -0.7542    3.0285    1.2469 C.3       1 <0>         0.0257
     14 C13        -1.4446    3.5911   -2.4129 C.3       1 <0>        -0.0061
     15 C14        -1.2602    5.1090   -2.4650 C.3       1 <0>        -0.1571
     16 C15        -1.9252    5.6605   -3.7277 C.3       1 <0>         0.1876
     17 H1         -2.9710    5.3555   -3.7636 H         1 <0>         0.1124
     18 C16        -1.8216    7.1650   -3.7532 C.ar      1 <0>        -0.0963
     19 C17        -2.2800    8.1556   -2.9157 C.ar      1 <0>        -0.0983
     20 C18        -2.0219    9.4839   -3.2096 C.ar      1 <0>        -0.0822
     21 C19        -1.3036    9.8187   -4.3441 C.ar      1 <0>        -0.1135
     22 C20        -0.8395    8.8333   -5.1904 C.ar      1 <0>        -0.0412
     23 C21        -1.0957    7.4917   -4.9008 C.ar      1 <0>        -0.1558
     24 C22        -0.7408    6.2396   -5.5959 C.2       1 <0>         0.5627
     25 O1         -0.1073    6.1753   -6.6313 O.2       1 <0>        -0.5036
     26 N2         -1.2186    5.1800   -4.9206 N.am      1 <0>        -0.7318
     27 H2          1.3010   -1.4364    6.1634 H         1 <0>         0.0763
     28 H3          2.8263   -0.6390    5.7096 H         1 <0>         0.0693
     29 H4          1.6358    0.2230    6.7136 H         1 <0>         0.0745
     30 H5          2.4708   -0.9213    3.3269 H         1 <0>         0.1290
     31 H6          1.3992   -0.0438    1.2928 H         1 <0>         0.1255
     32 H7         -1.4556    2.0350    3.7054 H         1 <0>         0.1268
     33 H8         -1.2863    0.5136    6.4143 H         1 <0>         0.0781
     34 H9          0.2767    1.2483    6.8451 H         1 <0>         0.0769
     35 H10        -0.9899    2.2362    6.0783 H         1 <0>         0.0684
     36 H11         0.0021   -0.0041    0.0020 H         1 <0>         0.1300
     37 H12         1.0098    1.4634    0.0003 H         1 <0>         0.0707
     38 H13        -0.2280    1.2668   -2.1285 H         1 <0>         0.1378
     39 H14        -1.7678    1.1933   -1.2378 H         1 <0>         0.1419
     40 H15        -1.5101    4.6258    0.0137 H         1 <0>         0.1379
     41 H16        -2.5177    3.1580    0.0152 H         1 <0>         0.1427
     42 H17         0.2597    3.4285    1.2535 H         1 <0>         0.0685
     43 H18        -1.2798    3.3552    2.1442 H         1 <0>         0.1280
     44 H19        -0.9858    3.1390   -3.2922 H         1 <0>         0.1288
     45 H20        -2.5086    3.3547   -2.3961 H         1 <0>         0.1391
     46 H21        -1.7190    5.5612   -1.5857 H         1 <0>         0.1063
     47 H22        -0.1963    5.3454   -2.4818 H         1 <0>         0.0978
     48 H23        -2.8409    7.8973   -2.0296 H         1 <0>         0.1322
     49 H24        -2.3818   10.2608   -2.5514 H         1 <0>         0.1396
     50 H25        -1.1059   10.8565   -4.5681 H         1 <0>         0.1405
     51 H26        -0.2790    9.0989   -6.0746 H         1 <0>         0.1382
     52 H27        -1.1138    4.2511   -5.1794 H         1 <0>         0.4228
     53 N3         -0.7798    3.0707   -1.1992 N.4       1 <0>        -0.3974
     54 H28         0.1850    3.4209   -1.1711 H         1 <0>         0.4261
@<TRIPOS>BOND
     1    1    2 1
     2    1   27 1
     3    1   28 1
     4    1   29 1
     5    2    7 ar
     6    2    3 ar
     7    3    4 ar
     8    3   30 1
     9    4    5 ar
    10    4   31 1
    11    5    6 ar
    12    5    9 1
    13    6    7 ar
    14    6   32 1
    15    7    8 1
    16    8   33 1
    17    8   34 1
    18    8   35 1
    19    9   13 1
    20    9   10 1
    21   10   11 1
    22   10   36 1
    23   10   37 1
    24   11   38 1
    25   11   39 1
    26   11   53 1
    27   12   13 1
    28   12   40 1
    29   12   41 1
    30   12   53 1
    31   13   42 1
    32   13   43 1
    33   14   15 1
    34   14   44 1
    35   14   45 1
    36   14   53 1
    37   15   16 1
    38   15   46 1
    39   15   47 1
    40   16   17 1
    41   16   26 1
    42   16   18 1
    43   18   23 ar
    44   18   19 ar
    45   19   20 ar
    46   19   48 1
    47   20   21 ar
    48   20   49 1
    49   21   22 ar
    50   21   50 1
    51   22   23 ar
    52   22   51 1
    53   23   24 1
    54   24   25 2
    55   24   26 am
    56   26   52 1
    57   53   54 1
@<TRIPOS>MOLECULE
ZINC01318428
   45    48     0     0     0
SMALL
USER_CHARGES

@<TRIPOS>ATOM
      1 C1         -0.0167    1.3781    0.0096 C.ar      1 <0>        -0.1100
      2 C2          1.1709    2.0855    0.0021 C.ar      1 <0>        -0.1223
      3 C3          2.3773    1.4107   -0.0130 C.ar      1 <0>        -0.0985
      4 C4          2.3960    0.0285   -0.0201 C.ar      1 <0>        -0.1141
      5 C5          1.2084   -0.6789   -0.0117 C.ar      1 <0>        -0.0982
      6 C6          0.0021   -0.0041    0.0020 C.ar      1 <0>        -0.1220
      7 C7          3.7112   -0.7071   -0.0376 C.3       1 <0>         0.1698
      8 N1          4.1518   -0.9524    1.3379 N.pl3     1 <0>        -0.6895
      9 C8          5.3418   -1.6178    1.5750 C.ar      1 <0>         0.5064
     10 C9          5.7772   -1.8669    2.8879 C.ar      1 <0>        -0.1066
     11 C10         6.9937   -2.5468    3.0655 C.ar      1 <0>         0.3136
     12 N2          7.6834   -2.9273    1.9949 N.ar      1 <0>        -0.5504
     13 C11         7.2363   -2.6726    0.7834 C.ar      1 <0>         0.3651
     14 N3          6.0968   -2.0410    0.5666 N.ar      1 <0>        -0.5883
     15 N4          7.1733   -2.6528    4.4215 N.pl3     1 <0>        -0.4716
     16 C12         6.1042   -2.0585    5.0231 C.2       1 <0>         0.2618
     17 N5          5.2862   -1.5981    4.1215 N.2       1 <0>        -0.4599
     18 C13         8.3061   -3.2886    5.0988 C.3       1 <0>         0.3140
     19 H1          8.6443   -4.1585    4.5358 H         1 <0>         0.1230
     20 C14         9.4624   -2.2795    5.2754 C.3       1 <0>         0.0797
     21 H2          9.0821   -1.2580    5.2693 H         1 <0>         0.0851
     22 C15        10.0566   -2.6277    6.6586 C.3       1 <0>         0.0473
     23 H3          9.9700   -1.7783    7.3362 H         1 <0>         0.0869
     24 C16         9.1890   -3.8059    7.1540 C.3       1 <0>         0.0504
     25 H4          9.6632   -4.7560    6.9078 H         1 <0>         0.1001
     26 O1          7.9385   -3.6711    6.4422 O.3       1 <0>        -0.3469
     27 C17         8.9603   -3.7013    8.6632 C.3       1 <0>         0.0821
     28 O2          8.2565   -4.8582    9.1197 O.3       1 <0>        -0.5634
     29 O3         11.4226   -3.0273    6.5305 O.3       1 <0>        -0.5387
     30 O4         10.4408   -2.4544    4.2487 O.3       1 <0>        -0.5252
     31 H5         -0.9591    1.9053    0.0259 H         1 <0>         0.1239
     32 H6          1.1563    3.1654    0.0076 H         1 <0>         0.1246
     33 H7          3.3051    1.9634   -0.0196 H         1 <0>         0.1239
     34 H8          1.2231   -1.7588   -0.0176 H         1 <0>         0.1241
     35 H9         -0.9258   -0.5567    0.0082 H         1 <0>         0.1248
     36 H10         3.5884   -1.6586   -0.5549 H         1 <0>         0.0799
     37 H11         4.4573   -0.1052   -0.5563 H         1 <0>         0.0799
     38 H12         3.6095   -0.6484    2.0824 H         1 <0>         0.4188
     39 H13         7.8213   -2.9952   -0.0651 H         1 <0>         0.2052
     40 H14         5.9575   -1.9811    6.0902 H         1 <0>         0.2226
     41 H15         9.9216   -3.6362    9.1727 H         1 <0>         0.0671
     42 H16         8.3727   -2.8093    8.8806 H         1 <0>         0.0609
     43 H17         8.0765   -4.8596   10.0698 H         1 <0>         0.3868
     44 H18        11.8453   -3.2574    7.3692 H         1 <0>         0.3873
     45 H19        11.1897   -1.8460    4.3114 H         1 <0>         0.3905
@<TRIPOS>BOND
     1    1    6 ar
     2    1    2 ar
     3    1   31 1
     4    2    3 ar
     5    2   32 1
     6    3    4 ar
     7    3   33 1
     8    4    5 ar
     9    4    7 1
    10    5    6 ar
    11    5   34 1
    12    6   35 1
    13    7    8 1
    14    7   36 1
    15    7   37 1
    16    8    9 1
    17    8   38 1
    18    9   14 ar
    19    9   10 ar
    20   10   17 1
    21   10   11 ar
    22   11   12 ar
    23   11   15 1
    24   12   13 ar
    25   13   14 ar
    26   13   39 1
    27   15   16 1
    28   15   18 1
    29   16   17 2
    30   16   40 1
    31   18   19 1
    32   18   26 1
    33   18   20 1
    34   20   21 1
    35   20   22 1
    36   20   30 1
    37   22   23 1
    38   22   24 1
    39   22   29 1
    40   24   25 1
    41   24   26 1
    42   24   27 1
    43   27   28 1
    44   27   41 1
    45   27   42 1
    46   28   43 1
    47   29   44 1
    48   30   45 1
@<TRIPOS>MOLECULE
ZINC22058213
   46    48     0     0     0
SMALL
USER_CHARGES

@<TRIPOS>ATOM
      1 C1         -0.0187    1.5258    0.0104 C.3       1 <0>        -0.1464
      2 C2          0.0021   -0.0041    0.0020 C.3       1 <0>        -0.1391
      3 C3          0.7421   -0.5109    1.2415 C.3       1 <0>         0.1191
      4 N1          0.7619   -1.9757    1.2335 N.am      1 <0>        -0.5069
      5 C4         -0.2661   -2.6852    1.8352 C.2       1 <0>         0.3263
      6 C5         -0.2232   -4.0756    1.8129 C.2       1 <0>        -0.1520
      7 C6          0.8617   -4.7198    1.1812 C.2       1 <0>         0.5952
      8 O1          0.9214   -5.9360    1.1483 O.2       1 <0>        -0.5132
      9 N2          1.8317   -3.9735    0.6136 N.am      1 <0>        -0.5494
     10 C7          1.7755   -2.6308    0.6370 C.2       1 <0>         0.7089
     11 O2          2.6658   -1.9913    0.1106 O.2       1 <0>        -0.5345
     12 C8          2.9607   -4.6368   -0.0434 C.3       1 <0>         0.1150
     13 C9          2.6270   -4.8707   -1.5181 C.3       1 <0>        -0.1386
     14 C10         3.8061   -5.5634   -2.2042 C.3       1 <0>        -0.1461
     15 N3         -1.3542   -4.5128    2.4747 N.pl3     1 <0>        -0.5150
     16 H1         -1.6140   -5.4345    2.6289 H         1 <0>         0.4373
     17 C11        -2.0336   -3.4010    2.8694 C.2       1 <0>         0.3560
     18 N4         -1.3745   -2.3270    2.4821 N.2       1 <0>        -0.4821
     19 C12        -3.3102   -3.3986    3.6148 C.ar      1 <0>        -0.0252
     20 C13        -3.9134   -4.6044    3.9759 C.ar      1 <0>        -0.1221
     21 C14        -5.1044   -4.5951    4.6719 C.ar      1 <0>        -0.0316
     22 C15        -5.7014   -3.3940    5.0116 C.ar      1 <0>        -0.6327
     23 C16        -5.1088   -2.1952    4.6567 C.ar      1 <0>        -0.0340
     24 C17        -3.9147   -2.1904    3.9656 C.ar      1 <0>        -0.0867
     25 S1         -7.2232   -3.3911    5.8996 S.o2      1 <0>         2.6913
     26 O3         -7.9409   -2.1892    5.5039 O.2       1 <0>        -1.0573
     27 O4         -7.9368   -4.6002    5.5188 O.2       1 <0>        -1.0586
     28 O5         -6.8866   -3.3818    7.3147 O.3       1 <0>        -1.0570
     29 H2          1.0039    1.9031    0.0027 H         1 <0>         0.0572
     30 H3         -0.5459    1.8868   -0.8726 H         1 <0>         0.0598
     31 H4         -0.5289    1.8773    0.9072 H         1 <0>         0.0602
     32 H5         -1.0205   -0.3814    0.0098 H         1 <0>         0.0697
     33 H6          0.5123   -0.3556   -0.8948 H         1 <0>         0.0666
     34 H7          1.7647   -0.1336    1.2338 H         1 <0>         0.0994
     35 H8          0.2319   -0.1594    2.1383 H         1 <0>         0.0999
     36 H9          3.8469   -4.0067    0.0331 H         1 <0>         0.1021
     37 H10         3.1524   -5.5938    0.4420 H         1 <0>         0.1006
     38 H11         1.7409   -5.5008   -1.5946 H         1 <0>         0.0677
     39 H12         2.4353   -3.9137   -2.0034 H         1 <0>         0.0692
     40 H13         4.6922   -4.9333   -2.1277 H         1 <0>         0.0588
     41 H14         3.9978   -6.5204   -1.7188 H         1 <0>         0.0584
     42 H15         3.5683   -5.7300   -3.2548 H         1 <0>         0.0602
     43 H16        -3.4488   -5.5427    3.7108 H         1 <0>         0.1218
     44 H17        -5.5722   -5.5274    4.9520 H         1 <0>         0.1427
     45 H18        -5.5798   -1.2611    4.9249 H         1 <0>         0.1441
     46 H19        -3.4511   -1.2539    3.6928 H         1 <0>         0.1410
@<TRIPOS>BOND
     1    1    2 1
     2    1   29 1
     3    1   30 1
     4    1   31 1
     5    2    3 1
     6    2   32 1
     7    2   33 1
     8    3    4 1
     9    3   34 1
    10    3   35 1
    11    4   10 am
    12    4    5 1
    13    5   18 1
    14    5    6 2
    15    6    7 1
    16    6   15 1
    17    7    8 2
    18    7    9 am
    19    9   10 am
    20    9   12 1
    21   10   11 2
    22   12   13 1
    23   12   36 1
    24   12   37 1
    25   13   14 1
    26   13   38 1
    27   13   39 1
    28   14   40 1
    29   14   41 1
    30   14   42 1
    31   15   16 1
    32   15   17 1
    33   17   18 2
    34   17   19 1
    35   19   24 ar
    36   19   20 ar
    37   20   21 ar
    38   20   43 1
    39   21   22 ar
    40   21   44 1
    41   22   23 ar
    42   22   25 1
    43   23   24 ar
    44   23   45 1
    45   24   46 1
    46   25   26 2
    47   25   27 2
    48   25   28 1
@<TRIPOS>MOLECULE
ZINC25758996
   47    49     0     0     0
SMALL
USER_CHARGES

@<TRIPOS>ATOM
      1 C1         -0.0184    1.5028    0.0103 C.3       1 <0>        -0.1173
      2 C2          0.0021   -0.0041    0.0020 C.ar      1 <0>        -0.0924
      3 C3          0.0058   -0.6879   -1.2010 C.ar      1 <0>        -0.0947
      4 C4          0.0249   -2.0710   -1.2175 C.ar      1 <0>        -0.1230
      5 C5          0.0401   -2.7779   -0.0326 C.ar      1 <0>        -0.0925
      6 C6          0.0364   -2.0945    1.1841 C.ar      1 <0>        -0.1322
      7 C7          0.0228   -0.6986    1.1936 C.ar      1 <0>        -0.0603
      8 C8          0.0521   -2.8454    2.4576 C.2       1 <0>         0.5689
      9 O1          0.0490   -2.2475    3.5158 O.2       1 <0>        -0.5295
     10 N1          0.0700   -4.1930    2.4450 N.am      1 <0>        -0.7189
     11 C9          0.0855   -4.9372    3.7068 C.3       1 <0>         0.2803
     12 N2         -1.2877   -5.3082    4.0735 N.3       1 <0>        -0.5515
     13 C10        -1.7253   -6.5012    3.3364 C.3       1 <0>         0.0435
     14 C11        -3.2132   -6.7480    3.6077 C.3       1 <0>         0.1497
     15 N3         -3.4195   -6.8055    5.0629 N.pl3     1 <0>        -0.6835
     16 C12        -2.8858   -5.7091    5.8852 C.3       1 <0>         0.1490
     17 C13        -1.4109   -5.5032    5.5242 C.3       1 <0>         0.0499
     18 C14        -4.1012   -7.8679    5.6455 C.ar      1 <0>         0.2214
     19 C15        -3.4080   -8.9954    6.0662 C.ar      1 <0>        -0.1267
     20 C16        -4.0869  -10.0489    6.6443 C.ar      1 <0>        -0.0834
     21 C17        -5.4616   -9.9918    6.8092 C.ar      1 <0>        -0.1238
     22 C18        -6.1665   -8.8816    6.3980 C.ar      1 <0>        -0.0657
     23 C19        -5.4929   -7.8042    5.8167 C.ar      1 <0>        -0.0414
     24 C20        -6.2186   -6.6446    5.3930 C.1       1 <0>         0.2580
     25 N4         -6.7942   -5.7248    5.0568 N.1       1 <0>        -0.4144
     26 H1          1.0042    1.8801    0.0026 H         1 <0>         0.0737
     27 H2         -0.5455    1.8639   -0.8728 H         1 <0>         0.0694
     28 H3         -0.5286    1.8543    0.9071 H         1 <0>         0.0699
     29 H4         -0.0067   -0.1393   -2.1313 H         1 <0>         0.1277
     30 H5          0.0277   -2.5987   -2.1598 H         1 <0>         0.1296
     31 H6          0.0543   -3.8577   -0.0468 H         1 <0>         0.1237
     32 H7          0.0244   -0.1637    2.1318 H         1 <0>         0.1358
     33 H8          0.0725   -4.6702    1.6005 H         1 <0>         0.3981
     34 H9          0.6865   -5.8389    3.5894 H         1 <0>         0.0594
     35 H10         0.5151   -4.3138    4.4910 H         1 <0>         0.1002
     36 H11        -1.5712   -6.3459    2.2686 H         1 <0>         0.0774
     37 H12        -1.1474   -7.3646    3.6659 H         1 <0>         0.0404
     38 H13        -3.8023   -5.9334    3.1863 H         1 <0>         0.0579
     39 H14        -3.5156   -7.6934    3.1574 H         1 <0>         0.0751
     40 H15        -3.4434   -4.7946    5.6828 H         1 <0>         0.0595
     41 H16        -2.9718   -5.9676    6.9406 H         1 <0>         0.0769
     42 H17        -0.8373   -6.3805    5.8233 H         1 <0>         0.0409
     43 H18        -1.0287   -4.6241    6.0431 H         1 <0>         0.0862
     44 H19        -2.3367   -9.0481    5.9407 H         1 <0>         0.1304
     45 H20        -3.5433  -10.9235    6.9699 H         1 <0>         0.1311
     46 H21        -5.9832  -10.8220    7.2621 H         1 <0>         0.1342
     47 H22        -7.2379   -8.8423    6.5289 H         1 <0>         0.1331
@<TRIPOS>BOND
     1    1    2 1
     2    1   26 1
     3    1   27 1
     4    1   28 1
     5    2    7 ar
     6    2    3 ar
     7    3    4 ar
     8    3   29 1
     9    4    5 ar
    10    4   30 1
    11    5    6 ar
    12    5   31 1
    13    6    7 ar
    14    6    8 1
    15    7   32 1
    16    8    9 2
    17    8   10 am
    18   10   11 1
    19   10   33 1
    20   11   12 1
    21   11   34 1
    22   11   35 1
    23   12   17 1
    24   12   13 1
    25   13   14 1
    26   13   36 1
    27   13   37 1
    28   14   15 1
    29   14   38 1
    30   14   39 1
    31   15   16 1
    32   15   18 1
    33   16   17 1
    34   16   40 1
    35   16   41 1
    36   17   42 1
    37   17   43 1
    38   18   23 ar
    39   18   19 ar
    40   19   20 ar
    41   19   44 1
    42   20   21 ar
    43   20   45 1
    44   21   22 ar
    45   21   46 1
    46   22   23 ar
    47   22   47 1
    48   23   24 1
    49   24   25 3
