@<TRIPOS>MOLECULE
ZINC15880093
   34    36     0     0     0
SMALL
USER_CHARGES

@<TRIPOS>ATOM
      1 C1         -0.0178    1.4608    0.0101 C.3       1 <0>         0.0854
      2 N1          0.0021   -0.0041    0.0020 N.am      1 <0>        -0.5106
      3 C2         -1.1889   -0.7120    0.0039 C.2       1 <0>         0.3238
      4 C3         -1.1437   -2.1005   -0.0039 C.2       1 <0>        -0.1540
      5 C4          0.1107   -2.7476   -0.0134 C.2       1 <0>         0.5938
      6 O1          0.1765   -3.9638   -0.0207 O.2       1 <0>        -0.5125
      7 N2          1.2361   -2.0032   -0.0148 N.am      1 <0>        -0.5511
      8 C5          1.1776   -0.6603   -0.0127 C.2       1 <0>         0.7080
      9 O2          2.2126   -0.0219   -0.0196 O.2       1 <0>        -0.5321
     10 C6          2.5413   -2.6685   -0.0246 C.3       1 <0>         0.0833
     11 N3         -2.4557   -2.5297    0.0001 N.pl3     1 <0>        -0.5129
     12 H1         -2.7618   -3.4502   -0.0030 H         1 <0>         0.4351
     13 C7         -3.2306   -1.4275    0.0098 C.2       1 <0>         0.3086
     14 N4         -2.4766   -0.3579    0.0120 N.2       1 <0>        -0.4911
     15 C8         -4.7376   -1.4266    0.0162 C.3       1 <0>        -0.0169
     16 C9         -5.2635   -2.6576    0.7829 C.3       1 <0>        -0.1247
     17 C10        -6.5224   -3.0893   -0.0094 C.3       1 <0>        -0.1243
     18 C11        -6.1023   -2.8421   -1.4796 C.3       1 <0>        -0.1289
     19 C12        -5.2709   -1.5439   -1.4224 C.3       1 <0>        -0.1171
     20 H2          1.0048    1.8381    0.0023 H         1 <0>         0.1034
     21 H3         -0.5450    1.8219   -0.8730 H         1 <0>         0.0796
     22 H4         -0.5280    1.8123    0.9069 H         1 <0>         0.0799
     23 H5          2.8601   -2.8279   -1.0547 H         1 <0>         0.0772
     24 H6          3.2716   -2.0434    0.4891 H         1 <0>         0.0972
     25 H7          2.4632   -3.6292    0.4844 H         1 <0>         0.0953
     26 H8         -5.1081   -0.5116    0.4783 H         1 <0>         0.1182
     27 H9         -4.5198   -3.4544    0.7812 H         1 <0>         0.0624
     28 H10        -5.5302   -2.3856    1.8042 H         1 <0>         0.0826
     29 H11        -6.7412   -4.1439    0.1577 H         1 <0>         0.0739
     30 H12        -7.3782   -2.4691    0.2573 H         1 <0>         0.0763
     31 H13        -5.4941   -3.6687   -1.8467 H         1 <0>         0.0666
     32 H14        -6.9812   -2.7047   -2.1096 H         1 <0>         0.0745
     33 H15        -5.9010   -0.6863   -1.6581 H         1 <0>         0.0826
     34 H16        -4.4397   -1.6015   -2.1252 H         1 <0>         0.0685
@<TRIPOS>BOND
     1    1    2 1
     2    1   20 1
     3    1   21 1
     4    1   22 1
     5    2    8 am
     6    2    3 1
     7    3   14 1
     8    3    4 2
     9    4    5 1
    10    4   11 1
    11    5    6 2
    12    5    7 am
    13    7    8 am
    14    7   10 1
    15    8    9 2
    16   10   23 1
    17   10   24 1
    18   10   25 1
    19   11   12 1
    20   11   13 1
    21   13   14 2
    22   13   15 1
    23   15   19 1
    24   15   16 1
    25   15   26 1
    26   16   17 1
    27   16   27 1
    28   16   28 1
    29   17   18 1
    30   17   29 1
    31   17   30 1
    32   18   19 1
    33   18   31 1
    34   18   32 1
    35   19   33 1
    36   19   34 1
@<TRIPOS>MOLECULE
ZINC00005258
   41    44     0     0     0
SMALL
USER_CHARGES

@<TRIPOS>ATOM
      1 C1         -0.0162    1.3434    0.0094 C.2       1 <0>        -0.2218
      2 C2          1.3251    1.7745   -0.0011 C.2       1 <0>        -0.0887
      3 C3          2.0961    0.6548   -0.0144 C.2       1 <0>        -0.0062
      4 O1          1.2796   -0.4166   -0.0124 O.3       1 <0>        -0.1583
      5 C4          0.0021   -0.0041    0.0020 C.2       1 <0>         0.0256
      6 C5          3.5734    0.6193   -0.0287 C.2       1 <0>         0.4157
      7 N1          4.3742    1.6925   -0.0248 N.2       1 <0>        -0.4645
      8 C6          5.6386    1.3040   -0.0409 C.2       1 <0>         0.5441
      9 N2          6.8046    1.9657   -0.0448 N.2       1 <0>        -0.5016
     10 C7          7.9464    1.2979   -0.0627 C.2       1 <0>         0.6561
     11 N3          7.9670   -0.0378   -0.0777 N.pl3     1 <0>        -0.5981
     12 C8          6.8416   -0.7289   -0.0744 C.cat     1 <0>         0.7695
     13 N4          5.6489   -0.0664   -0.0556 N.pl3     1 <0>        -0.4039
     14 N5          4.3107   -0.4751   -0.0417 N.2       1 <0>        -0.2939
     15 N6          6.8714   -2.0989   -0.0903 N.pl3     1 <0>        -0.7459
     16 N7          9.1377    1.9935   -0.0665 N.pl3     1 <0>        -0.6525
     17 C9          9.1306    3.4584   -0.0508 C.3       1 <0>         0.1217
     18 C10        10.5705    3.9755   -0.0588 C.3       1 <0>        -0.0898
     19 C11        10.5632    5.4824   -0.0426 C.ar      1 <0>        -0.1082
     20 C12        10.5428    6.1853   -1.2331 C.ar      1 <0>        -0.0920
     21 C13        10.5366    7.5667   -1.2210 C.ar      1 <0>        -0.1431
     22 C14        10.5502    8.2486   -0.0129 C.ar      1 <0>         0.1179
     23 C15        10.5702    7.5411    1.1802 C.ar      1 <0>        -0.1430
     24 C16        10.5712    6.1597    1.1628 C.ar      1 <0>        -0.0920
     25 O2         10.5445    9.6076    0.0017 O.3       1 <0>        -0.4985
     26 H1         -0.8931    1.9737    0.0252 H         1 <0>         0.1685
     27 H2          1.6734    2.7967    0.0008 H         1 <0>         0.1702
     28 H3         -0.8667   -0.6456    0.0069 H         1 <0>         0.2226
     29 H4          7.7217   -2.5654   -0.1039 H         1 <0>         0.4476
     30 H5          6.0421   -2.6021   -0.0878 H         1 <0>         0.4601
     31 H6          9.9800    1.5127   -0.0796 H         1 <0>         0.4298
     32 H7          8.6066    3.8287   -0.9319 H         1 <0>         0.0992
     33 H8          8.6234    3.8096    0.8478 H         1 <0>         0.0992
     34 H9         11.0945    3.6052    0.8223 H         1 <0>         0.0876
     35 H10        11.0777    3.6243   -0.9574 H         1 <0>         0.0877
     36 H11        10.5322    5.6540   -2.1733 H         1 <0>         0.1282
     37 H12        10.5214    8.1153   -2.1511 H         1 <0>         0.1332
     38 H13        10.5809    8.0697    2.1220 H         1 <0>         0.1332
     39 H14        10.5822    5.6084    2.0914 H         1 <0>         0.1282
     40 H15         9.6596    9.9970    0.0181 H         1 <0>         0.3968
     41 H16         8.8171   -0.5047   -0.0913 H         1 <0>         0.4591
@<TRIPOS>BOND
     1    1    5 2
     2    1    2 1
     3    1   26 1
     4    2    3 2
     5    2   27 1
     6    3    4 1
     7    3    6 1
     8    4    5 1
     9    5   28 1
    10    6   14 2
    11    6    7 1
    12    7    8 2
    13    8   13 1
    14    8    9 1
    15    9   10 2
    16   10   11 1
    17   10   16 1
    18   11   12 2
    19   11   41 1
    20   12   13 1
    21   12   15 1
    22   13   14 1
    23   15   29 1
    24   15   30 1
    25   16   17 1
    26   16   31 1
    27   17   18 1
    28   17   32 1
    29   17   33 1
    30   18   19 1
    31   18   34 1
    32   18   35 1
    33   19   24 ar
    34   19   20 ar
    35   20   21 ar
    36   20   36 1
    37   21   22 ar
    38   21   37 1
    39   22   23 ar
    40   22   25 1
    41   23   24 ar
    42   23   38 1
    43   24   39 1
    44   25   40 1
@<TRIPOS>MOLECULE
ZINC13473627
   39    41     0     0     0
SMALL
USER_CHARGES

@<TRIPOS>ATOM
      1 C1         -0.0127    1.0858    0.0080 C.3       1 <0>         0.0888
      2 N1         -0.7213    1.5711   -1.1789 N.am      1 <0>        -0.5110
      3 C2         -2.0905    1.7830   -1.1292 C.2       1 <0>         0.3298
      4 C3         -2.7388    2.2443   -2.2707 C.2       1 <0>        -0.1533
      5 C4         -1.9869    2.4816   -3.4395 C.2       1 <0>         0.5937
      6 O1         -2.5321    2.8859   -4.4512 O.2       1 <0>        -0.5158
      7 N2         -0.6568    2.2563   -3.4251 N.am      1 <0>        -0.5516
      8 C5         -0.0410    1.8159   -2.3145 C.2       1 <0>         0.7074
      9 O2          1.1603    1.6293   -2.3375 O.2       1 <0>        -0.5309
     10 C6          0.1294    2.5011   -4.6368 C.3       1 <0>         0.0832
     11 N3         -4.0762    2.3635   -1.9405 N.pl3     1 <0>        -0.5208
     12 C7         -4.1955    1.9799   -0.6389 C.2       1 <0>         0.3628
     13 N4         -3.0087    1.6393   -0.1746 N.2       1 <0>        -0.4926
     14 H1         -4.7915    2.6630   -2.5232 H         1 <0>         0.4353
     15 C8         -5.4549    1.9499    0.1310 C.ar      1 <0>        -0.1084
     16 C9         -6.6551    2.3305   -0.4749 C.ar      1 <0>        -0.0419
     17 C10        -7.8280    2.3015    0.2459 C.ar      1 <0>        -0.1993
     18 C11        -7.8189    1.8938    1.5762 C.ar      1 <0>         0.2409
     19 C12        -6.6253    1.5146    2.1826 C.ar      1 <0>        -0.2023
     20 C13        -5.4500    1.5355    1.4654 C.ar      1 <0>        -0.0082
     21 N5         -9.0071    1.8656    2.3025 N.pl3     1 <0>        -0.6290
     22 C14       -10.2645    2.2649    1.6657 C.3       1 <0>         0.0864
     23 C15        -8.9993    1.4365    3.7033 C.3       1 <0>         0.0863
     24 H2          0.0021   -0.0041    0.0020 H         1 <0>         0.0737
     25 H3          1.0099    1.4631    0.0003 H         1 <0>         0.0937
     26 H4         -0.5229    1.4373    0.9048 H         1 <0>         0.0923
     27 H5         -0.5277    2.8562   -5.4307 H         1 <0>         0.1035
     28 H6          0.8898    3.2544   -4.4305 H         1 <0>         0.0825
     29 H7          0.6110    1.5751   -4.9507 H         1 <0>         0.0825
     30 H8         -6.6627    2.6473   -1.5073 H         1 <0>         0.1216
     31 H9         -8.7559    2.5958   -0.2218 H         1 <0>         0.1317
     32 H10        -6.6215    1.1990    3.2154 H         1 <0>         0.1330
     33 H11        -4.5247    1.2365    1.9352 H         1 <0>         0.1406
     34 H12       -10.7346    1.3928    1.2113 H         1 <0>         0.0538
     35 H13       -10.9329    2.6886    2.4153 H         1 <0>         0.0710
     36 H14       -10.0617    3.0104    0.8968 H         1 <0>         0.0721
     37 H15        -8.8391    2.3013    4.3472 H         1 <0>         0.0542
     38 H16        -9.9558    0.9742    3.9470 H         1 <0>         0.0708
     39 H17        -8.1971    0.7149    3.8578 H         1 <0>         0.0733
@<TRIPOS>BOND
     1    1   24 1
     2    1   25 1
     3    1   26 1
     4    1    2 1
     5    2    3 1
     6    2    8 am
     7    3   13 1
     8    3    4 2
     9    4    5 1
    10    4   11 1
    11    5    7 am
    12    5    6 2
    13    7    8 am
    14    7   10 1
    15    8    9 2
    16   10   27 1
    17   10   28 1
    18   10   29 1
    19   11   14 1
    20   11   12 1
    21   12   15 1
    22   12   13 2
    23   15   20 ar
    24   15   16 ar
    25   16   17 ar
    26   16   30 1
    27   17   18 ar
    28   17   31 1
    29   18   19 ar
    30   18   21 1
    31   19   20 ar
    32   19   32 1
    33   20   33 1
    34   21   22 1
    35   21   23 1
    36   22   34 1
    37   22   35 1
    38   22   36 1
    39   23   37 1
    40   23   38 1
    41   23   39 1
@<TRIPOS>MOLECULE
ZINC09229229
   37    39     0     0     0
SMALL
USER_CHARGES

@<TRIPOS>ATOM
      1 C1         -0.0187    1.5258    0.0104 C.3       1 <0>        -0.1680
      2 C2          0.0021   -0.0041    0.0020 C.3       1 <0>         0.1152
      3 N1          0.6878   -0.4765   -1.2033 N.am      1 <0>        -0.5082
      4 C3         -0.0334   -0.7052   -2.3651 C.2       1 <0>         0.3290
      5 C4          0.6423   -1.1532   -3.4958 C.2       1 <0>        -0.1457
      6 C5          2.0362   -1.3610   -3.4264 C.2       1 <0>         0.5940
      7 O1          2.6500   -1.7525   -4.4030 O.2       1 <0>        -0.5110
      8 N2          2.6815   -1.1207   -2.2662 N.am      1 <0>        -0.5483
      9 C6          2.0179   -0.6826   -1.1826 C.2       1 <0>         0.7080
     10 O2          2.6341   -0.4721   -0.1556 O.2       1 <0>        -0.5290
     11 C7          4.1286   -1.3351   -2.1880 C.3       1 <0>         0.1102
     12 C8          4.8567   -0.0443   -2.5684 C.3       1 <0>        -0.1672
     13 N3         -0.3074   -1.2946   -4.4889 N.pl3     1 <0>        -0.5144
     14 H1         -0.1525   -1.5921   -5.3991 H         1 <0>         0.4365
     15 C9         -1.5027   -0.9366   -3.9443 C.2       1 <0>         0.3420
     16 N4         -1.3216   -0.5903   -2.6853 N.2       1 <0>        -0.4822
     17 C10        -2.7998   -0.9359   -4.6534 C.ar      1 <0>        -0.0386
     18 C11        -2.8676   -1.3299   -5.9908 C.ar      1 <0>        -0.0983
     19 C12        -4.0813   -1.3274   -6.6466 C.ar      1 <0>        -0.1167
     20 C13        -5.2296   -0.9352   -5.9818 C.ar      1 <0>        -0.0959
     21 C14        -5.1693   -0.5436   -4.6561 C.ar      1 <0>        -0.1189
     22 C15        -3.9628   -0.5469   -3.9870 C.ar      1 <0>        -0.0637
     23 H2          1.0039    1.9031    0.0027 H         1 <0>         0.0615
     24 H3         -0.5459    1.8868   -0.8726 H         1 <0>         0.0612
     25 H4         -0.5289    1.8773    0.9072 H         1 <0>         0.0787
     26 H5          0.5293   -0.3651    0.8851 H         1 <0>         0.1011
     27 H6         -1.0205   -0.3814    0.0098 H         1 <0>         0.0989
     28 H7          4.3995   -1.6188   -1.1711 H         1 <0>         0.1038
     29 H8          4.4158   -2.1304   -2.8759 H         1 <0>         0.1018
     30 H9          4.5859    0.2395   -3.5854 H         1 <0>         0.0605
     31 H10         4.5696    0.7510   -1.8806 H         1 <0>         0.0627
     32 H11         5.9334   -0.2038   -2.5102 H         1 <0>         0.0801
     33 H12        -1.9720   -1.6356   -6.5111 H         1 <0>         0.1225
     34 H13        -4.1353   -1.6320   -7.6814 H         1 <0>         0.1325
     35 H14        -6.1772   -0.9344   -6.5000 H         1 <0>         0.1304
     36 H15        -6.0692   -0.2385   -4.1429 H         1 <0>         0.1340
     37 H16        -3.9177   -0.2449   -2.9510 H         1 <0>         0.1415
@<TRIPOS>BOND
     1    1    2 1
     2    1   23 1
     3    1   24 1
     4    1   25 1
     5    2    3 1
     6    2   26 1
     7    2   27 1
     8    3    9 am
     9    3    4 1
    10    4   16 1
    11    4    5 2
    12    5    6 1
    13    5   13 1
    14    6    7 2
    15    6    8 am
    16    8    9 am
    17    8   11 1
    18    9   10 2
    19   11   12 1
    20   11   28 1
    21   11   29 1
    22   12   30 1
    23   12   31 1
    24   12   32 1
    25   13   14 1
    26   13   15 1
    27   15   16 2
    28   15   17 1
    29   17   22 ar
    30   17   18 ar
    31   18   19 ar
    32   18   33 1
    33   19   20 ar
    34   19   34 1
    35   20   21 ar
    36   20   35 1
    37   21   22 ar
    38   21   36 1
    39   22   37 1
@<TRIPOS>MOLECULE
ZINC15869361
   34    36     0     0     0
SMALL
USER_CHARGES

@<TRIPOS>ATOM
      1 C1         -0.0178    1.4608    0.0101 C.3       1 <0>         0.0960
      2 N1          0.0021   -0.0041    0.0020 N.am      1 <0>        -0.5043
      3 C2         -1.1874   -0.7125    0.0038 C.2       1 <0>         0.2274
      4 N2         -2.4634   -0.3741    0.0127 N.2       1 <0>        -0.5324
      5 C3         -3.2046   -1.4886    0.0104 C.2       1 <0>         0.1716
      6 N3         -2.4195   -2.5514   -0.0000 N.2       1 <0>        -0.4496
      7 C4         -1.1418   -2.1264   -0.0046 C.2       1 <0>        -0.1520
      8 C5          0.1029   -2.7608   -0.0144 C.2       1 <0>         0.5532
      9 O1          0.1819   -4.1040   -0.0230 O.3       1 <0>        -0.6020
     10 N4          1.2363   -2.0038   -0.0156 N.am      1 <0>        -0.5384
     11 C6          1.1773   -0.6614   -0.0127 C.2       1 <0>         0.7061
     12 O2          2.2126   -0.0233   -0.0188 O.2       1 <0>        -0.5742
     13 C7          2.5430   -2.6660   -0.0259 C.3       1 <0>         0.0892
     14 C8         -4.6862   -1.5252    0.0187 C.ar      1 <0>         0.0085
     15 C9         -5.4146   -0.3360    0.0242 C.ar      1 <0>        -0.0649
     16 C10        -6.7928   -0.3735    0.0315 C.ar      1 <0>        -0.1531
     17 C11        -7.4556   -1.5936    0.0334 C.ar      1 <0>         0.1043
     18 C12        -6.7334   -2.7795    0.0285 C.ar      1 <0>        -0.2072
     19 C13        -5.3550   -2.7490    0.0153 C.ar      1 <0>        -0.0646
     20 O3         -8.8138   -1.6272    0.0406 O.3       1 <0>        -0.3234
     21 C14        -9.4309   -2.9160    0.0422 C.3       1 <0>         0.0294
     22 H1          1.0048    1.8381    0.0023 H         1 <0>         0.0890
     23 H2         -0.5450    1.8219   -0.8730 H         1 <0>         0.0672
     24 H3         -0.5280    1.8123    0.9069 H         1 <0>         0.0673
     25 H4          2.4026   -3.7469   -0.0314 H         1 <0>         0.1001
     26 H5          3.0950   -2.3668   -0.9169 H         1 <0>         0.0702
     27 H6          3.1038   -2.3771    0.8630 H         1 <0>         0.0702
     28 H7         -4.8996    0.6134    0.0231 H         1 <0>         0.1357
     29 H8         -7.3575    0.5471    0.0361 H         1 <0>         0.1256
     30 H9         -7.2519   -3.7269    0.0303 H         1 <0>         0.1233
     31 H10        -4.7939   -3.6717    0.0069 H         1 <0>         0.1329
     32 H11        -9.1291   -3.4645   -0.8501 H         1 <0>         0.0527
     33 H12        -9.1196   -3.4668    0.9298 H         1 <0>         0.0527
     34 H13       -10.5147   -2.8000    0.0481 H         1 <0>         0.0935
@<TRIPOS>BOND
     1    1    2 1
     2    1   22 1
     3    1   23 1
     4    1   24 1
     5    2   11 am
     6    2    3 1
     7    3    4 2
     8    3    7 1
     9    4    5 1
    10    5   14 1
    11    5    6 2
    12    6    7 1
    13    7    8 2
    14    8    9 1
    15    8   10 1
    16   10   11 am
    17   10   13 1
    18   11   12 2
    19   13   25 1
    20   13   26 1
    21   13   27 1
    22   14   19 ar
    23   14   15 ar
    24   15   16 ar
    25   15   28 1
    26   16   17 ar
    27   16   29 1
    28   17   18 ar
    29   17   20 1
    30   18   19 ar
    31   18   30 1
    32   19   31 1
    33   20   21 1
    34   21   32 1
    35   21   33 1
    36   21   34 1
@<TRIPOS>MOLECULE
ZINC15869361
   35    37     0     0     0
SMALL
USER_CHARGES
8-(4-methoxyphenyl)-1,3-dimethyl-9H-purine-2,6-dione
@<TRIPOS>ATOM
      1 C1          6.7697    1.8984   -0.0570 C.3       1 <0>         0.0872
      2 N1          6.0190    0.6404   -0.0601 N.am      1 <0>        -0.5067
      3 C2          4.6441    0.6700   -0.0381 C.2       1 <0>         0.3180
      4 C3          3.9401   -0.5300   -0.0471 C.2       1 <0>        -0.1649
      5 C4          4.7017   -1.7811   -0.0669 C.2       1 <0>         0.5960
      6 O1          4.1319   -2.8569   -0.0703 O.2       1 <0>        -0.5059
      7 N2          6.0505   -1.7139   -0.0821 N.am      1 <0>        -0.5506
      8 C5          6.6828   -0.5287   -0.0788 C.2       1 <0>         0.7084
      9 O2          7.8986   -0.5127   -0.0928 O.2       1 <0>        -0.5306
     10 C6          6.8350   -2.9509   -0.1019 C.3       1 <0>         0.0831
     11 N3          2.6215   -0.2310   -0.0241 N.pl3     1 <0>        -0.4741
     12 C7          2.4779    1.0724   -0.0158 C.2       1 <0>         0.3178
     13 N4          3.7166    1.6640   -0.0245 N.2       1 <0>        -0.4791
     14 H1          1.8755   -0.8969   -0.0150 H         1 <0>         0.4404
     15 C8          1.1863    1.7911    0.0004 C.ar      1 <0>        -0.0775
     16 C9         -0.0126    1.0758    0.0080 C.ar      1 <0>        -0.0577
     17 C10        -1.2149    1.7496    0.0173 C.ar      1 <0>        -0.2064
     18 C11        -1.2347    3.1382    0.0302 C.ar      1 <0>         0.1524
     19 C12        -0.0442    3.8534    0.0222 C.ar      1 <0>        -0.1512
     20 C13         1.1621    3.1869    0.0076 C.ar      1 <0>        -0.0220
     21 O3         -2.4217    3.7987    0.0446 O.3       1 <0>        -0.3114
     22 C14        -3.6077    3.0015    0.0522 C.3       1 <0>         0.0232
     23 H2          6.9676    2.2009    0.9713 H         1 <0>         0.0742
     24 H3          7.7143    1.7591   -0.5829 H         1 <0>         0.0945
     25 H4          6.1860    2.6712   -0.5571 H         1 <0>         0.0929
     26 H5          7.0413   -3.2668    0.9208 H         1 <0>         0.0777
     27 H6          6.2722   -3.7300   -0.6162 H         1 <0>         0.0951
     28 H7          7.7753   -2.7766   -0.6249 H         1 <0>         0.0982
     29 H8          0.0021   -0.0041    0.0020 H         1 <0>         0.1254
     30 H9         -2.1428    1.1969    0.0187 H         1 <0>         0.1381
     31 H10        -0.0638    4.9332    0.0278 H         1 <0>         0.1427
     32 H11         2.0875    3.7438    0.0014 H         1 <0>         0.1493
     33 H12        -4.4824    3.6517    0.0636 H         1 <0>         0.1048
     34 H13        -3.6311    2.3765   -0.8406 H         1 <0>         0.0593
     35 H14        -3.6141    2.3682    0.9393 H         1 <0>         0.0593
@<TRIPOS>BOND
     1    1    2 1
     2    1   23 1
     3    1   24 1
     4    1   25 1
     5    2    8 am
     6    2    3 1
     7    3   13 1
     8    3    4 2
     9    4    5 1
    10    4   11 1
    11    5    6 2
    12    5    7 am
    13    7    8 am
    14    7   10 1
    15    8    9 2
    16   10   26 1
    17   10   27 1
    18   10   28 1
    19   11   12 1
    20   11   14 1
    21   12   15 1
    22   12   13 2
    23   15   20 ar
    24   15   16 ar
    25   16   17 ar
    26   16   29 1
    27   17   18 ar
    28   17   30 1
    29   18   19 ar
    30   18   21 1
    31   19   20 ar
    32   19   31 1
    33   20   32 1
    34   21   22 1
    35   22   33 1
    36   22   34 1
    37   22   35 1
@<TRIPOS>MOLECULE
ZINC03811810
   48    51     0     0     0
SMALL
USER_CHARGES

@<TRIPOS>ATOM
      1 C1         -0.0178    1.4608    0.0101 C.3       1 <0>         0.0858
      2 N1          0.0021   -0.0041    0.0020 N.am      1 <0>        -0.7308
      3 C2         -1.1558   -0.6938    0.0094 C.2       1 <0>         0.5149
      4 O1         -2.2142   -0.1017    0.0227 O.2       1 <0>        -0.5024
      5 C3         -1.1354   -2.2006    0.0011 C.3       1 <0>         0.0320
      6 H1         -0.5471   -2.5799    0.8366 H         1 <0>         0.1225
      7 C4         -0.5782   -2.7315   -1.3443 C.3       1 <0>         0.0506
      8 H2         -0.9118   -2.1105   -2.1757 H         1 <0>         0.0948
      9 C5         -1.2083   -4.1435   -1.4217 C.3       1 <0>         0.0832
     10 H3         -1.5347   -4.3603   -2.4388 H         1 <0>         0.0899
     11 C6         -2.4187   -4.0695   -0.4709 C.3       1 <0>         0.3144
     12 H4         -2.2882   -4.7738    0.3507 H         1 <0>         0.1316
     13 O2         -2.4789   -2.7275    0.0446 O.3       1 <0>        -0.3270
     14 N2         -3.6479   -4.3821   -1.2041 N.pl3     1 <0>        -0.4753
     15 C7         -4.4978   -3.4819   -1.7747 C.2       1 <0>         0.2660
     16 N3         -5.4881   -4.1049   -2.3448 N.2       1 <0>        -0.4586
     17 C8         -5.3371   -5.4406   -2.1768 C.ar      1 <0>        -0.1040
     18 C9         -4.1517   -5.6348   -1.4476 C.ar      1 <0>         0.3101
     19 N4         -3.7707   -6.8732   -1.1522 N.ar      1 <0>        -0.5538
     20 C10        -4.4895   -7.9064   -1.5380 C.ar      1 <0>         0.3661
     21 N5         -5.6079   -7.7739   -2.2273 N.ar      1 <0>        -0.5871
     22 C11        -6.0726   -6.5743   -2.5614 C.ar      1 <0>         0.5073
     23 N6         -7.2452   -6.4456   -3.2850 N.pl3     1 <0>        -0.6904
     24 C12        -7.9987   -7.6392   -3.6772 C.3       1 <0>         0.1703
     25 C13        -9.2253   -7.2276   -4.4499 C.ar      1 <0>        -0.1092
     26 C14       -10.4099   -6.9750   -3.7831 C.ar      1 <0>        -0.0788
     27 C15       -11.5351   -6.5975   -4.4915 C.ar      1 <0>        -0.1155
     28 C16       -11.4764   -6.4722   -5.8670 C.ar      1 <0>        -0.0754
     29 C17       -10.2918   -6.7247   -6.5341 C.ar      1 <0>        -0.1026
     30 C18        -9.1645   -7.0970   -5.8244 C.ar      1 <0>        -0.0641
     31 I1        -10.2026   -6.5356   -8.6187 I         1 <0>        -0.0379
     32 O3         -0.2777   -5.1316   -0.9750 O.3       1 <0>        -0.5314
     33 O4          0.8483   -2.8101   -1.3100 O.3       1 <0>        -0.5362
     34 H5          1.0048    1.8381    0.0023 H         1 <0>         0.0830
     35 H6         -0.5450    1.8219   -0.8730 H         1 <0>         0.0653
     36 H7         -0.5280    1.8123    0.9069 H         1 <0>         0.0657
     37 H8          0.8486   -0.4776   -0.0086 H         1 <0>         0.3996
     38 H9         -4.3686   -2.4098   -1.7561 H         1 <0>         0.2242
     39 H10        -4.1517   -8.8996   -1.2813 H         1 <0>         0.2060
     40 H11        -7.5682   -5.5651   -3.5326 H         1 <0>         0.4195
     41 H12        -7.3721   -8.2754   -4.3023 H         1 <0>         0.0825
     42 H13        -8.2988   -8.1888   -2.7851 H         1 <0>         0.0840
     43 H14       -10.4561   -7.0732   -2.7086 H         1 <0>         0.1321
     44 H15       -12.4604   -6.4006   -3.9704 H         1 <0>         0.1349
     45 H16       -12.3557   -6.1775   -6.4205 H         1 <0>         0.1316
     46 H17        -8.2379   -7.2896   -6.3447 H         1 <0>         0.1313
     47 H18         0.5294   -5.1801   -1.5054 H         1 <0>         0.3970
     48 H19         1.2858   -1.9588   -1.1720 H         1 <0>         0.3844
@<TRIPOS>BOND
     1    1    2 1
     2    1   34 1
     3    1   35 1
     4    1   36 1
     5    2    3 am
     6    2   37 1
     7    3    4 2
     8    3    5 1
     9    5    6 1
    10    5   13 1
    11    5    7 1
    12    7    8 1
    13    7    9 1
    14    7   33 1
    15    9   10 1
    16    9   11 1
    17    9   32 1
    18   11   12 1
    19   11   13 1
    20   11   14 1
    21   14   18 1
    22   14   15 1
    23   15   16 2
    24   15   38 1
    25   16   17 1
    26   17   22 ar
    27   17   18 ar
    28   18   19 ar
    29   19   20 ar
    30   20   21 ar
    31   20   39 1
    32   21   22 ar
    33   22   23 1
    34   23   24 1
    35   23   40 1
    36   24   25 1
    37   24   41 1
    38   24   42 1
    39   25   30 ar
    40   25   26 ar
    41   26   27 ar
    42   26   43 1
    43   27   28 ar
    44   27   44 1
    45   28   29 ar
    46   28   45 1
    47   29   30 ar
    48   29   31 1
    49   30   46 1
    50   32   47 1
    51   33   48 1
@<TRIPOS>MOLECULE
ZINC13517144
   18    19     0     0     0
SMALL
USER_CHARGES

@<TRIPOS>ATOM
      1 C1         -0.0127    1.0858    0.0080 C.3       1 <0>         0.0811
      2 N1         -0.7213    1.5711   -1.1789 N.am      1 <0>        -0.5505
      3 C2         -0.8540    2.8992   -1.3768 C.2       1 <0>         0.5933
      4 O1         -0.3888    3.6909   -0.5766 O.2       1 <0>        -0.5088
      5 C3         -1.5378    3.3603   -2.5224 C.2       1 <0>        -0.1520
      6 C4         -2.0577    2.4349   -3.4185 C.2       1 <0>         0.3174
      7 N2         -2.6471    3.1223   -4.4001 N.2       1 <0>        -0.5006
      8 H1         -1.6266    5.4627   -2.6323 H         1 <0>         0.4394
      9 C5         -2.5289    4.4061   -4.1753 C.2       1 <0>         0.2794
     10 N3         -1.8516    4.6060   -3.0278 N.pl3     1 <0>        -0.5173
     11 N4         -1.8883    1.0845   -3.1590 N.am      1 <0>        -0.6108
     12 H2         -2.2446    0.4246   -3.7742 H         1 <0>         0.4399
     13 C6         -1.2246    0.6867   -2.0571 C.2       1 <0>         0.7128
     14 O2         -1.0815   -0.5027   -1.8484 O.2       1 <0>        -0.5318
     15 H3          0.0021   -0.0041    0.0020 H         1 <0>         0.1069
     16 H4          1.0099    1.4631    0.0003 H         1 <0>         0.0827
     17 H5         -0.5229    1.4373    0.9048 H         1 <0>         0.0828
     18 H6         -2.9152    5.1872   -4.8133 H         1 <0>         0.2363
@<TRIPOS>BOND
     1    1   15 1
     2    1   16 1
     3    1   17 1
     4    1    2 1
     5    2   13 am
     6    2    3 am
     7    3    4 2
     8    3    5 1
     9    5   10 1
    10    5    6 2
    11    6    7 1
    12    6   11 1
    13    7    9 2
    14    8   10 1
    15    9   10 1
    16    9   18 1
    17   11   12 1
    18   11   13 am
    19   13   14 2
@<TRIPOS>MOLECULE
ZINC13517144
   17    18     0     0     0
SMALL
USER_CHARGES

@<TRIPOS>ATOM
      1 C1         -0.0127    1.0858    0.0080 C.3       1 <0>         0.0896
      2 N1         -0.7213    1.5711   -1.1789 N.am      1 <0>        -0.5382
      3 C2         -0.8540    2.9126   -1.3766 C.2       1 <0>         0.5517
      4 O1         -0.3393    3.7848   -0.4912 O.3       1 <0>        -0.6043
      5 C3         -1.5299    3.3720   -2.5089 C.2       1 <0>        -0.1655
      6 C4         -2.0578    2.4286   -3.4188 C.2       1 <0>         0.2144
      7 N2         -2.6381    3.1209   -4.3836 N.2       1 <0>        -0.5572
      8 C5         -2.5013    4.4189   -4.1262 C.2       1 <0>         0.1218
      9 N3         -1.8390    4.5925   -3.0054 N.2       1 <0>        -0.4745
     10 N4         -1.8874    1.0794   -3.1590 N.am      1 <0>        -0.6054
     11 H1         -2.2435    0.4184   -3.7731 H         1 <0>         0.4198
     12 C6         -1.2236    0.6851   -2.0554 C.2       1 <0>         0.7095
     13 O2         -1.0791   -0.5038   -1.8444 O.2       1 <0>        -0.5806
     14 H2          0.0021   -0.0041    0.0020 H         1 <0>         0.0950
     15 H3          1.0099    1.4631    0.0003 H         1 <0>         0.0723
     16 H4         -0.5229    1.4373    0.9048 H         1 <0>         0.0723
     17 H5         -2.8800    5.2154   -4.7495 H         1 <0>         0.1793
@<TRIPOS>BOND
     1    1   14 1
     2    1   15 1
     3    1   16 1
     4    1    2 1
     5    2   12 am
     6    2    3 1
     7    3    4 1
     8    3    5 2
     9    5    9 1
    10    5    6 1
    11    6    7 2
    12    6   10 1
    13    7    8 1
    14    8    9 2
    15    8   17 1
    16   10   11 1
    17   10   12 am
    18   12   13 2
@<TRIPOS>MOLECULE
ZINC04654890
   33    34     0     0     0
SMALL
USER_CHARGES
1,3-dipropyl-7H-purine-2,6-dione
@<TRIPOS>ATOM
      1 C1          4.8600    4.3313   -1.4654 C.3       1 <0>        -0.1475
      2 C2          3.3301    4.3321   -1.4508 C.3       1 <0>        -0.1381
      3 C3          2.8338    4.3259   -0.0036 C.3       1 <0>         0.1189
      4 N1          1.3689    4.3267    0.0104 N.am      1 <0>        -0.5084
      5 C4          0.6765    3.1266    0.0116 C.2       1 <0>         0.3217
      6 C5         -0.7124    3.1538    0.0245 C.2       1 <0>        -0.1544
      7 C6         -1.3758    4.3997    0.0363 C.2       1 <0>         0.5935
      8 O1         -2.5926    4.4497    0.0477 O.2       1 <0>        -0.5123
      9 N2         -0.6460    5.5347    0.0341 N.am      1 <0>        -0.5489
     10 C7          0.6974    5.4937    0.0215 C.2       1 <0>         0.7070
     11 O2          1.3222    6.5369    0.0207 O.2       1 <0>        -0.5292
     12 C8         -1.3282    6.8311    0.0459 C.3       1 <0>         0.1135
     13 C9         -1.5790    7.2886   -1.3924 C.3       1 <0>        -0.1376
     14 C10        -2.2914    8.6425   -1.3801 C.3       1 <0>        -0.1474
     15 N3         -1.1247    1.8363    0.0168 N.pl3     1 <0>        -0.5215
     16 H1         -2.0695    1.5086    0.0176 H         1 <0>         0.4452
     17 C11        -0.0126    1.0758    0.0080 C.2       1 <0>         0.2766
     18 N4          1.0472    1.8436    0.0020 N.2       1 <0>        -0.4997
     19 H2          5.2135    4.3357   -2.4965 H         1 <0>         0.0608
     20 H3          5.2287    5.2188   -0.9511 H         1 <0>         0.0590
     21 H4          5.2277    3.4388   -0.9590 H         1 <0>         0.0591
     22 H5          2.9613    3.4446   -1.9652 H         1 <0>         0.0678
     23 H6          2.9624    5.2246   -1.9572 H         1 <0>         0.0676
     24 H7          3.2025    5.2134    0.5108 H         1 <0>         0.1001
     25 H8          3.2015    3.4334    0.5028 H         1 <0>         0.0990
     26 H9         -2.2803    6.7359    0.5681 H         1 <0>         0.1015
     27 H10        -0.7051    7.5649    0.5572 H         1 <0>         0.1034
     28 H11        -0.6269    7.3837   -1.9146 H         1 <0>         0.0691
     29 H12        -2.2021    6.5548   -1.9037 H         1 <0>         0.0670
     30 H13        -2.4700    8.9685   -2.4047 H         1 <0>         0.0615
     31 H14        -3.2435    8.5474   -0.8579 H         1 <0>         0.0590
     32 H15        -1.6683    9.3763   -0.8688 H         1 <0>         0.0599
     33 H16         0.0021   -0.0041    0.0020 H         1 <0>         0.2343
@<TRIPOS>BOND
     1    1    2 1
     2    1   19 1
     3    1   20 1
     4    1   21 1
     5    2    3 1
     6    2   22 1
     7    2   23 1
     8    3    4 1
     9    3   24 1
    10    3   25 1
    11    4   10 am
    12    4    5 1
    13    5   18 1
    14    5    6 2
    15    6    7 1
    16    6   15 1
    17    7    8 2
    18    7    9 am
    19    9   10 am
    20    9   12 1
    21   10   11 2
    22   12   13 1
    23   12   26 1
    24   12   27 1
    25   13   14 1
    26   13   28 1
    27   13   29 1
    28   14   30 1
    29   14   31 1
    30   14   32 1
    31   15   16 1
    32   15   17 1
    33   17   18 2
    34   17   33 1
@<TRIPOS>MOLECULE
ZINC03995438
   43    45     0     0     0
SMALL
USER_CHARGES

@<TRIPOS>ATOM
      1 C1         -0.0187    1.5258    0.0104 C.3       1 <0>        -0.1472
      2 C2          0.0021   -0.0041    0.0020 C.3       1 <0>        -0.1385
      3 C3         -1.4333   -0.5336    0.0129 C.3       1 <0>         0.1187
      4 N1         -1.4134   -1.9985    0.0048 N.am      1 <0>        -0.5081
      5 C4         -1.3926   -2.6970    1.2023 C.2       1 <0>         0.3288
      6 C5         -1.3740   -4.0877    1.1665 C.2       1 <0>        -0.1455
      7 C6         -1.3765   -4.7432   -0.0830 C.2       1 <0>         0.5937
      8 O1         -1.3609   -5.9599   -0.1403 O.2       1 <0>        -0.5103
      9 N2         -1.3969   -4.0072   -1.2136 N.am      1 <0>        -0.5482
     10 C7         -1.4210   -2.6642   -1.1652 C.2       1 <0>         0.7077
     11 O2         -1.4444   -2.0343   -2.2051 O.2       1 <0>        -0.5279
     12 C8         -1.3996   -4.6823   -2.5137 C.3       1 <0>         0.1137
     13 C9         -2.8428   -4.9369   -2.9532 C.3       1 <0>        -0.1381
     14 C10        -2.8456   -5.6420   -4.3111 C.3       1 <0>        -0.1473
     15 N3         -1.3558   -4.5129    2.4806 N.pl3     1 <0>        -0.5143
     16 C11        -1.3636   -3.3942    3.2564 C.2       1 <0>         0.3419
     17 N4         -1.3855   -2.3272    2.4824 N.2       1 <0>        -0.4816
     18 H1         -1.3408   -5.4318    2.7909 H         1 <0>         0.4365
     19 C12        -1.3506   -3.3783    4.7345 C.ar      1 <0>        -0.0386
     20 C13        -1.3225   -4.5776    5.4481 C.ar      1 <0>        -0.0983
     21 C14        -1.3099   -4.5557    6.8275 C.ar      1 <0>        -0.1167
     22 C15        -1.3257   -3.3486    7.5035 C.ar      1 <0>        -0.0959
     23 C16        -1.3536   -2.1562    6.8021 C.ar      1 <0>        -0.1189
     24 C17        -1.3605   -2.1639    5.4226 C.ar      1 <0>        -0.0636
     25 H2          1.0039    1.9031    0.0027 H         1 <0>         0.0609
     26 H3         -0.5459    1.8868   -0.8726 H         1 <0>         0.0590
     27 H4         -0.5289    1.8773    0.9072 H         1 <0>         0.0589
     28 H5          0.5123   -0.3556   -0.8948 H         1 <0>         0.0682
     29 H6          0.5293   -0.3651    0.8851 H         1 <0>         0.0680
     30 H7         -1.9435   -0.1821    0.9097 H         1 <0>         0.0988
     31 H8         -1.9605   -0.1726   -0.8702 H         1 <0>         0.1010
     32 H9         -0.9010   -4.0530   -3.2509 H         1 <0>         0.1037
     33 H10        -0.8720   -5.6325   -2.4309 H         1 <0>         0.1018
     34 H11        -3.3414   -5.5663   -2.2160 H         1 <0>         0.0672
     35 H12        -3.3704   -3.9867   -3.0361 H         1 <0>         0.0695
     36 H13        -3.8738   -5.8234   -4.6241 H         1 <0>         0.0616
     37 H14        -2.3470   -5.0126   -5.0482 H         1 <0>         0.0599
     38 H15        -2.3180   -6.5922   -4.2282 H         1 <0>         0.0589
     39 H16        -1.3109   -5.5205    4.9217 H         1 <0>         0.1224
     40 H17        -1.2882   -5.4829    7.3809 H         1 <0>         0.1324
     41 H18        -1.3165   -3.3370    8.5834 H         1 <0>         0.1304
     42 H19        -1.3657   -1.2174    7.3358 H         1 <0>         0.1340
     43 H20        -1.3782   -1.2324    4.8763 H         1 <0>         0.1414
@<TRIPOS>BOND
     1    1    2 1
     2    1   25 1
     3    1   26 1
     4    1   27 1
     5    2    3 1
     6    2   28 1
     7    2   29 1
     8    3   30 1
     9    3   31 1
    10    3    4 1
    11    4    5 1
    12    4   10 am
    13    5   17 1
    14    5    6 2
    15    6    7 1
    16    6   15 1
    17    7    9 am
    18    7    8 2
    19    9   10 am
    20    9   12 1
    21   10   11 2
    22   12   13 1
    23   12   32 1
    24   12   33 1
    25   13   14 1
    26   13   34 1
    27   13   35 1
    28   14   36 1
    29   14   37 1
    30   14   38 1
    31   15   18 1
    32   15   16 1
    33   16   19 1
    34   16   17 2
    35   19   24 ar
    36   19   20 ar
    37   20   21 ar
    38   20   39 1
    39   21   22 ar
    40   21   40 1
    41   22   23 ar
    42   22   41 1
    43   23   24 ar
    44   23   42 1
    45   24   43 1
@<TRIPOS>MOLECULE
ZINC04475274
   62    65     0     0     0
SMALL
USER_CHARGES

@<TRIPOS>ATOM
      1 C1         -0.0642    1.5178    0.0741 C.3       1 <0>        -0.1472
      2 C2         -0.0386   -0.0119    0.0578 C.3       1 <0>        -0.1385
      3 C3          0.6856   -0.4965   -1.1998 C.3       1 <0>         0.1189
      4 N1          0.7101   -1.9612   -1.2154 N.am      1 <0>        -0.5084
      5 C4         -0.3212   -2.6643   -1.8191 C.2       1 <0>         0.3302
      6 C5         -0.2733   -4.0549   -1.8198 C.2       1 <0>        -0.1466
      7 C6          0.8186   -4.7053   -1.2088 C.2       1 <0>         0.5932
      8 O1          0.8829   -5.9217   -1.1971 O.2       1 <0>        -0.5104
      9 N2          1.7915   -3.9653   -0.6378 N.am      1 <0>        -0.5483
     10 C7          1.7366   -2.6224   -0.6484 C.2       1 <0>         0.7076
     11 O2          2.6346   -1.9885   -0.1285 O.2       1 <0>        -0.5281
     12 C8          2.9279   -4.6357   -0.0012 C.3       1 <0>         0.1136
     13 C9          4.0396   -4.8442   -1.0316 C.3       1 <0>        -0.1379
     14 C10         5.2264   -5.5443   -0.3668 C.3       1 <0>        -0.1474
     15 N3         -1.4100   -4.4856   -2.4782 N.pl3     1 <0>        -0.5161
     16 C11        -2.0969   -3.3692   -2.8483 C.2       1 <0>         0.3483
     17 N4         -1.4368   -2.2993   -2.4494 N.2       1 <0>        -0.4851
     18 H1         -1.6684   -5.4055   -2.6448 H         1 <0>         0.4364
     19 C12        -3.3788   -3.3584   -3.5816 C.ar      1 <0>        -0.0753
     20 C13        -3.9864   -4.5618   -3.9475 C.ar      1 <0>        -0.0540
     21 C14        -5.1822   -4.5474   -4.6316 C.ar      1 <0>        -0.1416
     22 C15        -5.7835   -3.3382   -4.9580 C.ar      1 <0>         0.1534
     23 C16        -5.1821   -2.1391   -4.5962 C.ar      1 <0>        -0.2112
     24 C17        -3.9897   -2.1449   -3.9062 C.ar      1 <0>        -0.0187
     25 O3         -6.9618   -3.3283   -5.6326 O.3       1 <0>        -0.2842
     26 C18        -7.5249   -2.0504   -5.9361 C.3       1 <0>         0.0401
     27 C19        -8.8214   -2.2369   -6.6814 C.2       1 <0>         0.5167
     28 O4         -9.2236   -3.3541   -6.9283 O.2       1 <0>        -0.4864
     29 N5         -9.5339   -1.1622   -7.0734 N.am      1 <0>        -0.6700
     30 C20       -10.6835   -1.3313   -7.8462 C.ar      1 <0>         0.1727
     31 C21       -11.5070   -2.4320   -7.6333 C.ar      1 <0>        -0.1229
     32 C22       -12.6419   -2.6024   -8.3942 C.ar      1 <0>        -0.0487
     33 C23       -12.9663   -1.6674   -9.3811 C.ar      1 <0>        -0.0415
     34 C24       -12.1368   -0.5624   -9.5920 C.ar      1 <0>        -0.0491
     35 C25       -11.0063   -0.3958   -8.8237 C.ar      1 <0>        -0.1431
     36 C26       -14.1455   -1.8414  -10.1748 C.1       1 <0>         0.2513
     37 N6        -15.0810   -1.9795  -10.8043 N.1       1 <0>        -0.4127
     38 H2          0.9573    1.8982    0.0737 H         1 <0>         0.0590
     39 H3         -0.5879    1.8819   -0.8098 H         1 <0>         0.0586
     40 H4         -0.5801    1.8630    0.9701 H         1 <0>         0.0607
     41 H5          0.4851   -0.3760    0.9417 H         1 <0>         0.0681
     42 H6         -1.0601   -0.3924    0.0582 H         1 <0>         0.0681
     43 H7          0.1619   -0.1324   -2.0837 H         1 <0>         0.0986
     44 H8          1.7070   -0.1160   -1.2002 H         1 <0>         0.1006
     45 H9          3.3016   -4.0196    0.8167 H         1 <0>         0.1035
     46 H10         2.6079   -5.6020    0.3886 H         1 <0>         0.1018
     47 H11         3.6659   -5.4603   -1.8495 H         1 <0>         0.0673
     48 H12         4.3596   -3.8779   -1.4214 H         1 <0>         0.0694
     49 H13         5.6001   -4.9282    0.4511 H         1 <0>         0.0598
     50 H14         4.9064   -6.5106    0.0231 H         1 <0>         0.0590
     51 H15         6.0184   -5.6929   -1.1008 H         1 <0>         0.0615
     52 H16        -3.5192   -5.5021   -3.6948 H         1 <0>         0.1322
     53 H17        -5.6526   -5.4774   -4.9148 H         1 <0>         0.1444
     54 H18        -5.6523   -1.2012   -4.8524 H         1 <0>         0.1392
     55 H19        -3.5255   -1.2125   -3.6208 H         1 <0>         0.1466
     56 H20        -7.7131   -1.5071   -5.0101 H         1 <0>         0.1036
     57 H21        -6.8286   -1.4841   -6.5546 H         1 <0>         0.1039
     58 H22        -9.2477   -0.2712   -6.8185 H         1 <0>         0.4173
     59 H23       -11.2556   -3.1541   -6.8704 H         1 <0>         0.1500
     60 H24       -13.2804   -3.4576   -8.2288 H         1 <0>         0.1387
     61 H25       -12.3842    0.1619  -10.3540 H         1 <0>         0.1395
     62 H26       -10.3672    0.4601   -8.9831 H         1 <0>         0.1394
@<TRIPOS>BOND
     1    1    2 1
     2    1   38 1
     3    1   39 1
     4    1   40 1
     5    2    3 1
     6    2   41 1
     7    2   42 1
     8    3   43 1
     9    3   44 1
    10    3    4 1
    11    4    5 1
    12    4   10 am
    13    5   17 1
    14    5    6 2
    15    6    7 1
    16    6   15 1
    17    7    9 am
    18    7    8 2
    19    9   10 am
    20    9   12 1
    21   10   11 2
    22   12   13 1
    23   12   45 1
    24   12   46 1
    25   13   14 1
    26   13   47 1
    27   13   48 1
    28   14   49 1
    29   14   50 1
    30   14   51 1
    31   15   18 1
    32   15   16 1
    33   16   19 1
    34   16   17 2
    35   19   24 ar
    36   19   20 ar
    37   20   21 ar
    38   20   52 1
    39   21   22 ar
    40   21   53 1
    41   22   23 ar
    42   22   25 1
    43   23   24 ar
    44   23   54 1
    45   24   55 1
    46   25   26 1
    47   26   27 1
    48   26   56 1
    49   26   57 1
    50   27   28 2
    51   27   29 am
    52   29   30 1
    53   29   58 1
    54   30   35 ar
    55   30   31 ar
    56   31   32 ar
    57   31   59 1
    58   32   33 ar
    59   32   60 1
    60   33   34 ar
    61   33   36 1
    62   34   35 ar
    63   34   61 1
    64   35   62 1
    65   36   37 3
@<TRIPOS>MOLECULE
ZINC03872013
   28    31     0     0     0
SMALL
USER_CHARGES

@<TRIPOS>ATOM
      1 C1         -0.0162    1.3433    0.0094 C.2       1 <0>        -0.2195
      2 C2          1.3252    1.7744   -0.0011 C.2       1 <0>        -0.1351
      3 C3          2.0962    0.6548   -0.0144 C.2       1 <0>         0.0399
      4 O1          1.2797   -0.4166   -0.0124 O.3       1 <0>        -0.1525
      5 C4          0.0021   -0.0041    0.0020 C.2       1 <0>        -0.0023
      6 C5          3.5737    0.6193   -0.0292 C.2       1 <0>         0.3445
      7 N1          4.3226   -0.4905   -0.0476 N.2       1 <0>        -0.5018
      8 C6          5.5962   -0.1641   -0.0567 C.2       1 <0>         0.3614
      9 C7          6.8502   -0.9263   -0.0770 C.ar      1 <0>        -0.1117
     10 C8          6.8690   -2.3192   -0.0918 C.ar      1 <0>        -0.0298
     11 C9          8.0788   -2.9807   -0.1111 C.ar      1 <0>        -0.0604
     12 C10         9.2722   -2.2687   -0.1153 C.ar      1 <0>        -0.0566
     13 C11         9.2751   -0.9026   -0.1006 C.ar      1 <0>        -0.1000
     14 C12         8.0651   -0.2038   -0.0819 C.ar      1 <0>         0.1923
     15 N2          8.0311    1.1508   -0.0678 N.2       1 <0>        -0.5514
     16 C13         6.9051    1.8155   -0.0498 C.2       1 <0>         0.6594
     17 N3          5.6826    1.2027   -0.0438 N.pl3     1 <0>        -0.3685
     18 N4          4.3637    1.6764   -0.0320 N.2       1 <0>        -0.2877
     19 N5          6.9524    3.1898   -0.0360 N.pl3     1 <0>        -0.8086
     20 Cl1         8.1113   -4.7163   -0.1296 Cl        1 <0>        -0.0542
     21 H1         -0.8931    1.9736    0.0252 H         1 <0>         0.1603
     22 H2          1.6736    2.7966    0.0008 H         1 <0>         0.1603
     23 H3         -0.8667   -0.6456    0.0074 H         1 <0>         0.2151
     24 H4          5.9438   -2.8764   -0.0879 H         1 <0>         0.1517
     25 H5         10.2107   -2.8029   -0.1301 H         1 <0>         0.1482
     26 H6         10.2110   -0.3636   -0.1038 H         1 <0>         0.1535
     27 H7          7.8086    3.6457   -0.0396 H         1 <0>         0.4305
     28 H8          6.1295    3.7032   -0.0225 H         1 <0>         0.4230
@<TRIPOS>BOND
     1    1    5 2
     2    1    2 1
     3    1   21 1
     4    2    3 2
     5    2   22 1
     6    3    4 1
     7    3    6 1
     8    4    5 1
     9    5   23 1
    10    6   18 2
    11    6    7 1
    12    7    8 2
    13    8   17 1
    14    8    9 1
    15    9   14 ar
    16    9   10 ar
    17   10   11 ar
    18   10   24 1
    19   11   12 ar
    20   11   20 1
    21   12   13 ar
    22   12   25 1
    23   13   14 ar
    24   13   26 1
    25   14   15 1
    26   15   16 2
    27   16   17 1
    28   16   19 1
    29   17   18 1
    30   19   27 1
    31   19   28 1
@<TRIPOS>MOLECULE
ZINC35308313
   41    42     0     0     0
SMALL
USER_CHARGES

@<TRIPOS>ATOM
      1 C1          1.2942   -2.5148    0.8226 C.3       1 <0>        -0.1555
      2 C2          0.8770   -2.9052   -0.5967 C.3       1 <0>        -0.0519
      3 C3          1.7292   -4.0833   -1.0730 C.3       1 <0>        -0.1551
      4 C4         -0.5989   -3.3083   -0.6018 C.3       1 <0>        -0.1432
      5 C5          1.0836   -1.7143   -1.5348 C.3       1 <0>        -0.1293
      6 C6          2.5374   -1.3172   -1.5298 C.2       1 <0>         0.5219
      7 O1          3.3302   -1.9267   -0.8435 O.2       1 <0>        -0.5060
      8 N1          2.9565   -0.2847   -2.2879 N.am      1 <0>        -0.6889
      9 C7          4.2815    0.1493   -2.2058 C.ar      1 <0>         0.0957
     10 C8          4.6406    1.1114   -1.2655 C.ar      1 <0>         0.1383
     11 C9          5.9480    1.5417   -1.1821 C.ar      1 <0>        -0.0943
     12 C10         6.9132    1.0109   -2.0423 C.ar      1 <0>        -0.0691
     13 C11         6.5500    0.0450   -2.9849 C.ar      1 <0>        -0.1290
     14 C12         5.2420   -0.3852   -3.0605 C.ar      1 <0>         0.1392
     15 F1          4.8913   -1.3226   -3.9679 F         1 <0>        -0.1149
     16 C13         8.3129    1.4697   -1.9559 C.2       1 <0>         0.5593
     17 O2          8.6276    2.3104   -1.1357 O.2       1 <0>        -0.4498
     18 N2          9.2426    0.9569   -2.7860 N.am      1 <0>        -0.6170
     19 C14        10.5602    1.3889   -2.7046 C.2       1 <0>         0.2661
     20 N3         11.0804    2.2768   -1.8849 N.2       1 <0>        -0.5194
     21 C15        12.3642    2.5808   -1.9339 C.2       1 <0>         0.0620
     22 C16        13.1145    1.9386   -2.8626 C.2       1 <0>        -0.2392
     23 S1         11.8805    0.8981   -3.6258 S.3       1 <0>         0.1178
     24 F2          3.7071    1.6241   -0.4342 F         1 <0>        -0.1137
     25 H1          2.3457   -2.2276    0.8262 H         1 <0>         0.0802
     26 H2          0.6871   -1.6755    1.1619 H         1 <0>         0.0479
     27 H3          1.1470   -3.3633    1.4909 H         1 <0>         0.0542
     28 H4          1.5820   -4.9318   -0.4047 H         1 <0>         0.0541
     29 H5          1.4319   -4.3614   -2.0841 H         1 <0>         0.0477
     30 H6          2.7806   -3.7961   -1.0693 H         1 <0>         0.0802
     31 H7         -1.2060   -2.4690   -0.2625 H         1 <0>         0.0559
     32 H8         -0.8961   -3.5864   -1.6130 H         1 <0>         0.0558
     33 H9         -0.7461   -4.1568    0.0665 H         1 <0>         0.0604
     34 H10         0.7864   -1.9923   -2.5459 H         1 <0>         0.0990
     35 H11         0.4766   -0.8749   -1.1955 H         1 <0>         0.0999
     36 H12         2.3380    0.1570   -2.8906 H         1 <0>         0.4168
     37 H13         6.2259    2.2885   -0.4531 H         1 <0>         0.1657
     38 H14         7.2938   -0.3669   -3.6508 H         1 <0>         0.1515
     39 H15         8.9916    0.2863   -3.4403 H         1 <0>         0.4264
     40 H16        12.7973    3.3090   -1.2641 H         1 <0>         0.1785
     41 H17        14.1689    2.0284   -3.0784 H         1 <0>         0.2016
@<TRIPOS>BOND
     1    1    2 1
     2    1   25 1
     3    1   26 1
     4    1   27 1
     5    2    3 1
     6    2    4 1
     7    2    5 1
     8    3   28 1
     9    3   29 1
    10    3   30 1
    11    4   31 1
    12    4   32 1
    13    4   33 1
    14    5    6 1
    15    5   34 1
    16    5   35 1
    17    6    7 2
    18    6    8 am
    19    8    9 1
    20    8   36 1
    21    9   14 ar
    22    9   10 ar
    23   10   11 ar
    24   10   24 1
    25   11   12 ar
    26   11   37 1
    27   12   13 ar
    28   12   16 1
    29   13   14 ar
    30   13   38 1
    31   14   15 1
    32   16   17 2
    33   16   18 am
    34   18   19 1
    35   18   39 1
    36   19   23 1
    37   19   20 2
    38   20   21 1
    39   21   22 2
    40   21   40 1
    41   22   23 1
    42   22   41 1
@<TRIPOS>MOLECULE
ZINC03977757
   46    48     0     0     0
SMALL
USER_CHARGES

@<TRIPOS>ATOM
      1 C1         -0.0187    1.5258    0.0104 C.3       1 <0>        -0.1472
      2 C2          0.0021   -0.0041    0.0020 C.3       1 <0>        -0.1381
      3 C3          0.7182   -0.4975   -1.2568 C.3       1 <0>         0.1189
      4 N1          0.7381   -1.9623   -1.2648 N.am      1 <0>        -0.5078
      5 C4         -0.2978   -2.6649   -1.8590 C.2       1 <0>         0.3255
      6 C5         -0.2556   -4.0535   -1.8540 C.2       1 <0>        -0.1555
      7 C6          0.8381   -4.7062   -1.2456 C.2       1 <0>         0.5940
      8 O1          0.8979   -5.9226   -1.2287 O.2       1 <0>        -0.5124
      9 N2          1.8167   -3.9668   -0.6832 N.am      1 <0>        -0.5486
     10 C7          1.7657   -2.6237   -0.6997 C.2       1 <0>         0.7072
     11 O2          2.6683   -1.9900   -0.1875 O.2       1 <0>        -0.5292
     12 C8          2.9547   -4.6379   -0.0500 C.3       1 <0>         0.1138
     13 C9          4.0598   -4.8545   -1.0857 C.3       1 <0>        -0.1378
     14 C10         5.2482   -5.5554   -0.4244 C.3       1 <0>        -0.1473
     15 N3         -1.3974   -4.4770   -2.5042 N.pl3     1 <0>        -0.5132
     16 C11        -2.0744   -3.3715   -2.8713 C.2       1 <0>         0.3078
     17 N4         -1.4199   -2.3052   -2.4875 N.2       1 <0>        -0.4912
     18 H1         -1.6621   -5.3960   -2.6660 H         1 <0>         0.4346
     19 C12        -3.3868   -3.3639   -3.6120 C.3       1 <0>        -0.0167
     20 C13        -4.2245   -4.5971   -3.2154 C.3       1 <0>        -0.1246
     21 C14        -4.9262   -5.0185   -4.5304 C.3       1 <0>        -0.1243
     22 C15        -3.8330   -4.7644   -5.5978 C.3       1 <0>        -0.1288
     23 C16        -3.1379   -3.4703   -5.1267 C.3       1 <0>        -0.1169
     24 H2          1.0039    1.9031    0.0027 H         1 <0>         0.0589
     25 H3         -0.5459    1.8868   -0.8726 H         1 <0>         0.0589
     26 H4         -0.5289    1.8773    0.9072 H         1 <0>         0.0608
     27 H5          0.5293   -0.3651    0.8851 H         1 <0>         0.0678
     28 H6         -1.0205   -0.3814    0.0098 H         1 <0>         0.0678
     29 H7          0.1910   -0.1364   -2.1398 H         1 <0>         0.0985
     30 H8          1.7408   -0.1202   -1.2645 H         1 <0>         0.1003
     31 H9          3.3348   -4.0193    0.7630 H         1 <0>         0.1032
     32 H10         2.6339   -5.6014    0.3460 H         1 <0>         0.1014
     33 H11         3.6796   -5.4731   -1.8987 H         1 <0>         0.0670
     34 H12         4.3806   -3.8910   -1.4817 H         1 <0>         0.0693
     35 H13         6.0355   -5.7097   -1.1623 H         1 <0>         0.0615
     36 H14         5.6284   -4.9368    0.3886 H         1 <0>         0.0599
     37 H15         4.9274   -6.5189   -0.0284 H         1 <0>         0.0589
     38 H16        -3.9368   -2.4501   -3.3872 H         1 <0>         0.1178
     39 H17        -3.5783   -5.3972   -2.8545 H         1 <0>         0.0623
     40 H18        -4.9618   -4.3300   -2.4582 H         1 <0>         0.0823
     41 H19        -5.2000   -6.0732   -4.5013 H         1 <0>         0.0738
     42 H20        -5.8012   -4.3962   -4.7179 H         1 <0>         0.0762
     43 H21        -3.1235   -5.5916   -5.6216 H         1 <0>         0.0665
     44 H22        -4.2844   -4.6194   -6.5792 H         1 <0>         0.0743
     45 H23        -3.5678   -2.6085   -5.6372 H         1 <0>         0.0823
     46 H24        -2.0678   -3.5274   -5.3261 H         1 <0>         0.0684
@<TRIPOS>BOND
     1    1    2 1
     2    1   24 1
     3    1   25 1
     4    1   26 1
     5    2    3 1
     6    2   27 1
     7    2   28 1
     8    3   29 1
     9    3   30 1
    10    3    4 1
    11    4    5 1
    12    4   10 am
    13    5   17 1
    14    5    6 2
    15    6    7 1
    16    6   15 1
    17    7    9 am
    18    7    8 2
    19    9   10 am
    20    9   12 1
    21   10   11 2
    22   12   13 1
    23   12   31 1
    24   12   32 1
    25   13   14 1
    26   13   33 1
    27   13   34 1
    28   14   35 1
    29   14   36 1
    30   14   37 1
    31   15   18 1
    32   15   16 1
    33   16   19 1
    34   16   17 2
    35   19   23 1
    36   19   20 1
    37   19   38 1
    38   20   21 1
    39   20   39 1
    40   20   40 1
    41   21   22 1
    42   21   41 1
    43   21   42 1
    44   22   23 1
    45   22   43 1
    46   22   44 1
    47   23   45 1
    48   23   46 1
@<TRIPOS>MOLECULE
ZINC18043251
   21    22     0     0     0
SMALL
USER_CHARGES

@<TRIPOS>ATOM
      1 C1         -0.0178    1.4608    0.0101 C.3       1 <0>         0.0852
      2 N1          0.0021   -0.0041    0.0020 N.am      1 <0>        -0.5114
      3 C2         -1.1889   -0.7120    0.0039 C.2       1 <0>         0.3216
      4 C3         -1.1437   -2.1005   -0.0039 C.2       1 <0>        -0.1538
      5 C4          0.1107   -2.7476   -0.0134 C.2       1 <0>         0.5936
      6 O1          0.1765   -3.9638   -0.0207 O.2       1 <0>        -0.5134
      7 N2          1.2361   -2.0032   -0.0148 N.am      1 <0>        -0.5513
      8 C5          1.1776   -0.6603   -0.0127 C.2       1 <0>         0.7076
      9 O2          2.2126   -0.0219   -0.0196 O.2       1 <0>        -0.5305
     10 C6          2.5413   -2.6685   -0.0246 C.3       1 <0>         0.0826
     11 N3         -2.4557   -2.5297    0.0001 N.pl3     1 <0>        -0.5179
     12 H1         -2.7618   -3.4502   -0.0030 H         1 <0>         0.4389
     13 C7         -3.2306   -1.4275    0.0098 C.2       1 <0>         0.2785
     14 N4         -2.4766   -0.3579    0.0120 N.2       1 <0>        -0.4991
     15 H2          1.0048    1.8381    0.0023 H         1 <0>         0.1033
     16 H3         -0.5450    1.8219   -0.8730 H         1 <0>         0.0800
     17 H4         -0.5280    1.8123    0.9069 H         1 <0>         0.0801
     18 H5          2.3982   -3.7491   -0.0298 H         1 <0>         0.1039
     19 H6          3.0941   -2.3709   -0.9157 H         1 <0>         0.0832
     20 H7          3.1026   -2.3806    0.8643 H         1 <0>         0.0832
     21 H8         -4.3106   -1.4268    0.0144 H         1 <0>         0.2358
@<TRIPOS>BOND
     1    1    2 1
     2    1   15 1
     3    1   16 1
     4    1   17 1
     5    2    8 am
     6    2    3 1
     7    3   14 1
     8    3    4 2
     9    4    5 1
    10    4   11 1
    11    5    6 2
    12    5    7 am
    13    7    8 am
    14    7   10 1
    15    8    9 2
    16   10   18 1
    17   10   19 1
    18   10   20 1
    19   11   12 1
    20   11   13 1
    21   13   14 2
    22   13   21 1
@<TRIPOS>MOLECULE
ZINC01554291
   36    38     0     0     0
SMALL
USER_CHARGES
2-butyl-9-methyl-8-triazol-2-yl-purin-6-amine
@<TRIPOS>ATOM
      1 C1          5.0295   -5.2453   -2.9625 C.3       1 <0>        -0.1541
      2 C2          4.8180   -4.7963   -1.5153 C.3       1 <0>        -0.1221
      3 C3          4.1401   -3.4247   -1.5007 C.3       1 <0>        -0.1121
      4 C4          3.9286   -2.9757   -0.0534 C.3       1 <0>        -0.0472
      5 C5          3.2609   -1.6248   -0.0391 C.ar      1 <0>         0.3782
      6 N1          4.0170   -0.5420   -0.0401 N.ar      1 <0>        -0.5377
      7 C6          3.4790    0.6730   -0.0278 C.ar      1 <0>         0.4636
      8 C7          2.0779    0.7851   -0.0136 C.ar      1 <0>        -0.0917
      9 C8          1.3181   -0.3969   -0.0127 C.ar      1 <0>         0.3111
     10 N2          1.9457   -1.5682   -0.0256 N.ar      1 <0>        -0.5307
     11 N3          0.0021   -0.0041    0.0020 N.pl3     1 <0>        -0.4650
     12 C9         -0.0165    1.3630    0.0095 C.2       1 <0>         0.5441
     13 N4          1.2073    1.8226    0.0003 N.2       1 <0>        -0.4462
     14 N5         -1.1667    2.1483    0.0195 N.pl3     1 <0>        -0.2406
     15 N6         -2.4935    1.6914    0.0174 N.2       1 <0>        -0.2369
     16 C10        -3.2736    2.7445    0.0331 C.2       1 <0>         0.0367
     17 C11        -2.4893    3.8932    0.0355 C.2       1 <0>         0.0177
     18 N7         -1.2244    3.5504    0.0274 N.2       1 <0>        -0.1851
     19 C12        -1.1667   -0.8873    0.0092 C.3       1 <0>         0.0753
     20 N8          4.2798    1.8022   -0.0285 N.pl3     1 <0>        -0.7480
     21 H1          5.5125   -6.2224   -2.9729 H         1 <0>         0.0554
     22 H2          4.0656   -5.3111   -3.4671 H         1 <0>         0.0531
     23 H3          5.6612   -4.5223   -3.4786 H         1 <0>         0.0544
     24 H4          5.7820   -4.7305   -1.0107 H         1 <0>         0.0656
     25 H5          4.1864   -5.5193   -0.9992 H         1 <0>         0.0642
     26 H6          3.1762   -3.4905   -2.0053 H         1 <0>         0.0652
     27 H7          4.7718   -2.7017   -2.0168 H         1 <0>         0.0684
     28 H8          4.8925   -2.9100    0.4511 H         1 <0>         0.0973
     29 H9          3.2969   -3.6987    0.4627 H         1 <0>         0.0938
     30 H10        -4.3533    2.7237    0.0389 H         1 <0>         0.2186
     31 H11        -2.8632    4.9064    0.0434 H         1 <0>         0.2192
     32 H12        -1.4667   -1.1012   -1.0167 H         1 <0>         0.0815
     33 H13        -0.9149   -1.8190    0.5159 H         1 <0>         0.0967
     34 H14        -1.9880   -0.3990    0.5336 H         1 <0>         0.1035
     35 H15         4.8647    1.7965    0.7826 H         1 <0>         0.3690
     36 H16         3.8752    2.6837   -0.0195 H         1 <0>         0.3846
@<TRIPOS>BOND
     1    1    2 1
     2    1   21 1
     3    1   22 1
     4    1   23 1
     5    2    3 1
     6    2   24 1
     7    2   25 1
     8    3    4 1
     9    3   26 1
    10    3   27 1
    11    4    5 1
    12    4   28 1
    13    4   29 1
    14    5   10 ar
    15    5    6 ar
    16    6    7 ar
    17    7    8 ar
    18    7   20 1
    19    8   13 1
    20    8    9 ar
    21    9   10 ar
    22    9   11 1
    23   11   12 1
    24   11   19 1
    25   12   13 2
    26   12   14 1
    27   14   18 1
    28   14   15 1
    29   15   16 2
    30   16   17 1
    31   16   30 1
    32   17   18 2
    33   17   31 1
    34   19   32 1
    35   19   33 1
    36   19   34 1
    37   20   35 1
    38   20   36 1
@<TRIPOS>MOLECULE
ZINC35923133
   64    68     0     0     0
SMALL
USER_CHARGES

@<TRIPOS>ATOM
      1 C1         -0.0187    1.5258    0.0104 C.3       1 <0>        -0.1479
      2 C2          0.0021   -0.0041    0.0020 C.3       1 <0>        -0.1386
      3 C3          0.7182   -0.4975   -1.2568 C.3       1 <0>         0.1123
      4 N1          0.7381   -1.9623   -1.2648 N.am      1 <0>        -0.5465
      5 C4          1.7667   -2.6158   -0.6861 C.2       1 <0>         0.5939
      6 O1          2.6733   -1.9949   -0.1603 O.2       1 <0>        -0.5037
      7 C5          1.7804   -4.0268   -0.6965 C.2       1 <0>        -0.1325
      8 C6          0.7318   -4.7103   -1.3037 C.2       1 <0>         0.3236
      9 N2         -0.2956   -3.9801   -1.8812 N.am      1 <0>        -0.6111
     10 H1         -1.0352   -4.4395   -2.3088 H         1 <0>         0.4408
     11 C7         -0.2715   -2.6346   -1.8438 C.2       1 <0>         0.7130
     12 O2         -1.1843   -2.0115   -2.3510 O.2       1 <0>        -0.5253
     13 N3          0.9764   -6.0143   -1.1804 N.2       1 <0>        -0.4737
     14 C8          2.1111   -6.1978   -0.5349 C.2       1 <0>         0.3253
     15 N4          2.6470   -4.9882   -0.2138 N.pl3     1 <0>        -0.5076
     16 H2          3.4777   -4.8315    0.2619 H         1 <0>         0.4390
     17 C9          2.7077   -7.5108   -0.2102 C.ar      1 <0>         0.0227
     18 C10         3.9156   -7.5790    0.4859 C.ar      1 <0>        -0.1203
     19 C11         4.4667   -8.8076    0.7861 C.ar      1 <0>        -0.0153
     20 C12         3.8247   -9.9705    0.3988 C.ar      1 <0>        -0.6631
     21 C13         2.6271   -9.9099   -0.2914 C.ar      1 <0>        -0.0173
     22 C14         2.0626   -8.6878   -0.5933 C.ar      1 <0>        -0.0855
     23 S1          4.5358  -11.5355    0.7859 S.o2      1 <0>         2.6879
     24 O3          4.0202  -12.4611   -0.1610 O.2       1 <0>        -0.9462
     25 O4          5.9295  -11.3172    0.9568 O.2       1 <0>        -0.9475
     26 N5          3.9432  -11.9905    2.2637 N.pl3     1 <0>        -0.9964
     27 C15         4.6374  -11.6130    3.5042 C.3       1 <0>         0.1252
     28 C16         3.6224  -10.9657    4.4524 C.3       1 <0>         0.0399
     29 N6          2.4785  -11.8698    4.6312 N.3       1 <0>        -0.5284
     30 C17         1.7697  -12.0895    3.3635 C.3       1 <0>         0.0346
     31 C18         2.7054  -12.7777    2.3709 C.3       1 <0>         0.1253
     32 C19         1.5647  -11.3645    5.6645 C.3       1 <0>         0.0947
     33 C20         0.5446  -12.4235    5.9945 C.ar      1 <0>        -0.0816
     34 C21        -0.6441  -12.4811    5.2913 C.ar      1 <0>        -0.1164
     35 C22        -1.5798  -13.4526    5.5939 C.ar      1 <0>        -0.1201
     36 C23        -1.3266  -14.3667    6.5995 C.ar      1 <0>        -0.1181
     37 C24        -0.1375  -14.3097    7.3021 C.ar      1 <0>        -0.1198
     38 C25         0.8000  -13.3409    6.9965 C.ar      1 <0>        -0.0969
     39 H3          1.0039    1.9031    0.0027 H         1 <0>         0.0594
     40 H4         -0.5459    1.8868   -0.8726 H         1 <0>         0.0605
     41 H5         -0.5289    1.8773    0.9072 H         1 <0>         0.0622
     42 H6          0.5293   -0.3651    0.8851 H         1 <0>         0.0676
     43 H7         -1.0205   -0.3814    0.0098 H         1 <0>         0.0701
     44 H8          0.1910   -0.1364   -2.1398 H         1 <0>         0.1058
     45 H9          1.7408   -0.1202   -1.2645 H         1 <0>         0.1034
     46 H10         4.4179   -6.6721    0.7884 H         1 <0>         0.1342
     47 H11         5.4014   -8.8618    1.3244 H         1 <0>         0.1497
     48 H12         2.1311  -10.8213   -0.5908 H         1 <0>         0.1508
     49 H13         1.1255   -8.6419   -1.1282 H         1 <0>         0.1530
     50 H14         5.0604  -12.5020    3.9721 H         1 <0>         0.0878
     51 H15         5.4318  -10.9020    3.2774 H         1 <0>         0.0947
     52 H16         4.0935  -10.7799    5.4176 H         1 <0>         0.0910
     53 H17         3.2780  -10.0228    4.0278 H         1 <0>         0.0401
     54 H18         0.8971  -12.7187    3.5389 H         1 <0>         0.0955
     55 H19         1.4510  -11.1309    2.9540 H         1 <0>         0.0393
     56 H20         2.2231  -12.8363    1.3952 H         1 <0>         0.0948
     57 H21         2.9391  -13.7807    2.7278 H         1 <0>         0.0867
     58 H22         2.1323  -11.1149    6.5610 H         1 <0>         0.0861
     59 H23         1.0569  -10.4731    5.2961 H         1 <0>         0.0437
     60 H24        -0.8420  -11.7669    4.5057 H         1 <0>         0.1175
     61 H25        -2.5089  -13.4972    5.0450 H         1 <0>         0.1216
     62 H26        -2.0580  -15.1253    6.8364 H         1 <0>         0.1213
     63 H27         0.0602  -15.0237    8.0879 H         1 <0>         0.1222
     64 H28         1.7307  -13.2986    7.5429 H         1 <0>         0.1224
@<TRIPOS>BOND
     1    1    2 1
     2    1   39 1
     3    1   40 1
     4    1   41 1
     5    2    3 1
     6    2   42 1
     7    2   43 1
     8    3    4 1
     9    3   44 1
    10    3   45 1
    11    4   11 am
    12    4    5 am
    13    5    6 2
    14    5    7 1
    15    7   15 1
    16    7    8 2
    17    8    9 1
    18    8   13 1
    19    9   10 1
    20    9   11 am
    21   11   12 2
    22   13   14 2
    23   14   15 1
    24   14   17 1
    25   15   16 1
    26   17   22 ar
    27   17   18 ar
    28   18   19 ar
    29   18   46 1
    30   19   20 ar
    31   19   47 1
    32   20   21 ar
    33   20   23 1
    34   21   22 ar
    35   21   48 1
    36   22   49 1
    37   23   24 2
    38   23   25 2
    39   23   26 1
    40   26   31 1
    41   26   27 1
    42   27   28 1
    43   27   50 1
    44   27   51 1
    45   28   29 1
    46   28   52 1
    47   28   53 1
    48   29   30 1
    49   29   32 1
    50   30   31 1
    51   30   54 1
    52   30   55 1
    53   31   56 1
    54   31   57 1
    55   32   33 1
    56   32   58 1
    57   32   59 1
    58   33   38 ar
    59   33   34 ar
    60   34   35 ar
    61   34   60 1
    62   35   36 ar
    63   35   61 1
    64   36   37 ar
    65   36   62 1
    66   37   38 ar
    67   37   63 1
    68   38   64 1
@<TRIPOS>MOLECULE
ZINC35923133
   63    67     0     0     0
SMALL
USER_CHARGES

@<TRIPOS>ATOM
      1 C1         -0.0187    1.5258    0.0104 C.3       1 <0>        -0.1437
      2 C2          0.0021   -0.0041    0.0020 C.3       1 <0>        -0.1380
      3 C3         -1.4333   -0.5336    0.0129 C.3       1 <0>         0.1179
      4 N1         -1.4134   -1.9985    0.0048 N.am      1 <0>        -0.5339
      5 C4         -1.4101   -2.6605   -1.1861 C.2       1 <0>         0.5565
      6 O1         -1.4245   -1.9767   -2.3446 O.3       1 <0>        -0.5915
      7 C5         -1.3912   -4.0581   -1.1906 C.2       1 <0>        -0.1451
      8 C6         -1.3759   -4.7445    0.0464 C.2       1 <0>         0.2264
      9 N2         -1.3806   -4.0098    1.2200 N.am      1 <0>        -0.6082
     10 H1         -1.3700   -4.4644    2.0768 H         1 <0>         0.4218
     11 C7         -1.3933   -2.6640    1.1719 C.2       1 <0>         0.7117
     12 O2         -1.3916   -2.0345    2.2124 O.2       1 <0>        -0.5707
     13 N3         -1.3602   -6.0339   -0.2354 N.2       1 <0>        -0.5278
     14 C8         -1.3647   -6.1838   -1.5654 C.2       1 <0>         0.1466
     15 N4         -1.3834   -5.0000   -2.1519 N.2       1 <0>        -0.4349
     16 C9         -1.3505   -7.4852   -2.2752 C.ar      1 <0>         0.1077
     17 C10        -1.3506   -7.5221   -3.6689 C.ar      1 <0>        -0.1270
     18 C11        -1.3373   -8.7365   -4.3242 C.ar      1 <0>        -0.0213
     19 C12        -1.3244   -9.9157   -3.6010 C.ar      1 <0>        -0.6980
     20 C13        -1.3242   -9.8853   -2.2180 C.ar      1 <0>        -0.0231
     21 C14        -1.3311   -8.6768   -1.5517 C.ar      1 <0>        -0.1271
     22 S1         -1.3087  -11.4625   -4.4447 S.o2      1 <0>         2.6934
     23 O3         -1.8488  -12.4211   -3.5455 O.2       1 <0>        -0.9606
     24 O4         -1.8629  -11.2285   -5.7321 O.2       1 <0>        -0.9600
     25 N5          0.2776  -11.8756   -4.6803 N.pl3     1 <0>        -1.0003
     26 C15         0.9953  -11.4544   -5.8930 C.3       1 <0>         0.1286
     27 C16         2.3087  -10.7855   -5.4738 C.3       1 <0>         0.0380
     28 N6          3.0567  -11.6920   -4.5926 N.3       1 <0>        -0.5282
     29 C17         2.3190  -11.9566   -3.3501 C.3       1 <0>         0.0331
     30 C18         1.0078  -12.6683   -3.6795 C.3       1 <0>         0.1290
     31 C19         4.3965  -11.1616   -4.3067 C.3       1 <0>         0.0916
     32 C20         5.2170  -12.2175   -3.6117 C.ar      1 <0>        -0.0761
     33 C21         5.2043  -12.3060   -2.2323 C.ar      1 <0>        -0.1147
     34 C22         5.9569  -13.2745   -1.5948 C.ar      1 <0>        -0.1204
     35 C23         6.7219  -14.1549   -2.3369 C.ar      1 <0>        -0.1215
     36 C24         6.7339  -14.0670   -3.7164 C.ar      1 <0>        -0.1223
     37 C25         5.9779  -13.1012   -4.3540 C.ar      1 <0>        -0.0980
     38 H2          1.0039    1.9031    0.0027 H         1 <0>         0.0561
     39 H3         -0.5459    1.8868   -0.8726 H         1 <0>         0.0572
     40 H4         -0.5289    1.8773    0.9072 H         1 <0>         0.0558
     41 H5          0.5123   -0.3556   -0.8948 H         1 <0>         0.0689
     42 H6          0.5293   -0.3651    0.8851 H         1 <0>         0.0655
     43 H7         -1.9435   -0.1821    0.9097 H         1 <0>         0.0935
     44 H8         -1.9605   -0.1726   -0.8702 H         1 <0>         0.0973
     45 H9         -1.3614   -6.6022   -4.2345 H         1 <0>         0.1398
     46 H10        -1.3374   -8.7664   -5.4038 H         1 <0>         0.1341
     47 H11        -1.3144  -10.8090   -1.6586 H         1 <0>         0.1332
     48 H12        -1.3260   -8.6541   -0.4720 H         1 <0>         0.1380
     49 H13         1.2094  -12.3251   -6.5128 H         1 <0>         0.0813
     50 H14         0.3850  -10.7449   -6.4518 H         1 <0>         0.0945
     51 H15         2.9042  -10.5661   -6.3600 H         1 <0>         0.0881
     52 H16         2.0915   -9.8589   -4.9424 H         1 <0>         0.0455
     53 H17         2.9221  -12.5865   -2.6962 H         1 <0>         0.0914
     54 H18         2.1017  -11.0137   -2.8484 H         1 <0>         0.0436
     55 H19         0.4059  -12.7610   -2.7755 H         1 <0>         0.0932
     56 H20         1.2232  -13.6580   -4.0824 H         1 <0>         0.0802
     57 H21         4.8827  -10.8799   -5.2407 H         1 <0>         0.0850
     58 H22         4.3108  -10.2860   -3.6631 H         1 <0>         0.0458
     59 H23         4.6066  -11.6181   -1.6525 H         1 <0>         0.1199
     60 H24         5.9476  -13.3431   -0.5171 H         1 <0>         0.1209
     61 H25         7.3105  -14.9111   -1.8388 H         1 <0>         0.1191
     62 H26         7.3318  -14.7546   -4.2961 H         1 <0>         0.1200
     63 H27         5.9844  -13.0349   -5.4320 H         1 <0>         0.1218
@<TRIPOS>BOND
     1    1    2 1
     2    1   38 1
     3    1   39 1
     4    1   40 1
     5    2    3 1
     6    2   41 1
     7    2   42 1
     8    3    4 1
     9    3   43 1
    10    3   44 1
    11    4   11 am
    12    4    5 1
    13    5    6 1
    14    5    7 2
    15    7   15 1
    16    7    8 1
    17    8    9 1
    18    8   13 2
    19    9   10 1
    20    9   11 am
    21   11   12 2
    22   13   14 1
    23   14   15 2
    24   14   16 1
    25   16   21 ar
    26   16   17 ar
    27   17   18 ar
    28   17   45 1
    29   18   19 ar
    30   18   46 1
    31   19   20 ar
    32   19   22 1
    33   20   21 ar
    34   20   47 1
    35   21   48 1
    36   22   23 2
    37   22   24 2
    38   22   25 1
    39   25   30 1
    40   25   26 1
    41   26   27 1
    42   26   49 1
    43   26   50 1
    44   27   28 1
    45   27   51 1
    46   27   52 1
    47   28   29 1
    48   28   31 1
    49   29   30 1
    50   29   53 1
    51   29   54 1
    52   30   55 1
    53   30   56 1
    54   31   32 1
    55   31   57 1
    56   31   58 1
    57   32   37 ar
    58   32   33 ar
    59   33   34 ar
    60   33   59 1
    61   34   35 ar
    62   34   60 1
    63   35   36 ar
    64   35   61 1
    65   36   37 ar
    66   36   62 1
    67   37   63 1
@<TRIPOS>MOLECULE
ZINC00000999
   27    28     0     0     0
SMALL
USER_CHARGES

@<TRIPOS>ATOM
      1 C1         -0.0178    1.4608    0.0101 C.3       1 <0>         0.0851
      2 N1          0.0021   -0.0041    0.0020 N.am      1 <0>        -0.5111
      3 C2         -1.1889   -0.7120    0.0039 C.2       1 <0>         0.3225
      4 C3         -1.1437   -2.1005   -0.0039 C.2       1 <0>        -0.1552
      5 C4          0.1107   -2.7476   -0.0134 C.2       1 <0>         0.5930
      6 O1          0.1765   -3.9638   -0.0207 O.2       1 <0>        -0.5095
      7 N2          1.2361   -2.0032   -0.0148 N.am      1 <0>        -0.5511
      8 C5          1.1776   -0.6603   -0.0127 C.2       1 <0>         0.7076
      9 O2          2.2126   -0.0219   -0.0196 O.2       1 <0>        -0.5311
     10 C6          2.5413   -2.6685   -0.0246 C.3       1 <0>         0.0833
     11 N3         -2.4557   -2.5297    0.0001 N.pl3     1 <0>        -0.4138
     12 C7         -3.2306   -1.4275    0.0098 C.2       1 <0>         0.2739
     13 N4         -2.4766   -0.3579    0.0120 N.2       1 <0>        -0.4942
     14 C8         -2.9179   -3.9199   -0.0060 C.3       1 <0>         0.0959
     15 C9         -2.9524   -4.4522    1.4280 C.3       1 <0>        -0.0526
     16 Cl1        -3.5211   -6.1631    1.4205 Cl        1 <0>        -0.1494
     17 H1          1.0048    1.8381    0.0023 H         1 <0>         0.1035
     18 H2         -0.5450    1.8219   -0.8730 H         1 <0>         0.0800
     19 H3         -0.5280    1.8123    0.9069 H         1 <0>         0.0801
     20 H4          2.8601   -2.8279   -1.0547 H         1 <0>         0.0773
     21 H5          3.2716   -2.0434    0.4891 H         1 <0>         0.0970
     22 H6          2.4632   -3.6292    0.4844 H         1 <0>         0.0957
     23 H7         -4.3106   -1.4268    0.0144 H         1 <0>         0.2331
     24 H8         -3.9185   -3.9683   -0.4356 H         1 <0>         0.1175
     25 H9         -2.2367   -4.5267   -0.6025 H         1 <0>         0.1172
     26 H10        -1.9518   -4.4038    1.8576 H         1 <0>         0.1027
     27 H11        -3.6336   -3.8454    2.0245 H         1 <0>         0.1024
@<TRIPOS>BOND
     1    1    2 1
     2    1   17 1
     3    1   18 1
     4    1   19 1
     5    2    8 am
     6    2    3 1
     7    3   13 1
     8    3    4 2
     9    4    5 1
    10    4   11 1
    11    5    6 2
    12    5    7 am
    13    7    8 am
    14    7   10 1
    15    8    9 2
    16   10   20 1
    17   10   21 1
    18   10   22 1
    19   11   12 1
    20   11   14 1
    21   12   13 2
    22   12   23 1
    23   14   15 1
    24   14   24 1
    25   14   25 1
    26   15   16 1
    27   15   26 1
    28   15   27 1
@<TRIPOS>MOLECULE
ZINC04249262
   46    49     0     0     0
SMALL
USER_CHARGES

@<TRIPOS>ATOM
      1 C1         -0.0178    1.4608    0.0101 C.3       1 <0>         0.0866
      2 N1          0.0021   -0.0041    0.0020 N.am      1 <0>        -0.5095
      3 C2         -1.1887   -0.7115    0.0039 C.2       1 <0>         0.3466
      4 C3         -1.1433   -2.1038   -0.0029 C.2       1 <0>        -0.1664
      5 C4          0.1082   -2.7458   -0.0126 C.2       1 <0>         0.5944
      6 O1          0.1747   -3.9627   -0.0194 O.2       1 <0>        -0.5227
      7 N2          1.2338   -2.0030   -0.0149 N.am      1 <0>        -0.5522
      8 C5          1.1777   -0.6600   -0.0127 C.2       1 <0>         0.7084
      9 O2          2.2132   -0.0225   -0.0193 O.2       1 <0>        -0.5363
     10 C6          2.5380   -2.6702   -0.0251 C.3       1 <0>         0.0849
     11 N3         -2.4572   -2.5309    0.0022 N.pl3     1 <0>        -0.4473
     12 C7         -3.2384   -1.4112    0.0079 C.2       1 <0>         0.5526
     13 N4         -2.4744   -0.3469    0.0105 N.2       1 <0>        -0.5263
     14 N5         -4.6204   -1.4790    0.0077 N.pl3     1 <0>        -0.5937
     15 C8         -5.2118   -2.7955   -0.2957 C.3       1 <0>         0.1199
     16 C9         -4.4385   -3.8697    0.4775 C.3       1 <0>        -0.1563
     17 C10        -2.9806   -3.8982    0.0029 C.3       1 <0>         0.1108
     18 C11        -5.4511   -0.3067    0.2940 C.3       1 <0>         0.1526
     19 C12        -5.7564    0.4328   -1.0102 C.3       1 <0>        -0.0983
     20 C13        -6.6109    1.6387   -0.7158 C.ar      1 <0>        -0.0835
     21 C14        -7.9887    1.5272   -0.7204 C.ar      1 <0>        -0.1173
     22 C15        -8.7725    2.6334   -0.4504 C.ar      1 <0>        -0.1192
     23 C16        -8.1785    3.8509   -0.1752 C.ar      1 <0>        -0.1223
     24 C17        -6.8006    3.9621   -0.1697 C.ar      1 <0>        -0.1178
     25 C18        -6.0168    2.8550   -0.4355 C.ar      1 <0>        -0.1115
     26 H1          1.0048    1.8381    0.0023 H         1 <0>         0.1021
     27 H2         -0.5450    1.8219   -0.8730 H         1 <0>         0.0783
     28 H3         -0.5280    1.8123    0.9069 H         1 <0>         0.0785
     29 H4          2.8561   -2.8305   -1.0552 H         1 <0>         0.0752
     30 H5          3.2695   -2.0459    0.4880 H         1 <0>         0.0952
     31 H6          2.4589   -3.6305    0.4844 H         1 <0>         0.0941
     32 H7         -6.2578   -2.8060    0.0106 H         1 <0>         0.1017
     33 H8         -5.1393   -2.9913   -1.3655 H         1 <0>         0.0731
     34 H9         -4.4687   -3.6420    1.5431 H         1 <0>         0.0845
     35 H10        -4.8962   -4.8432    0.3020 H         1 <0>         0.1100
     36 H11        -2.9329   -4.3080   -1.0059 H         1 <0>         0.0900
     37 H12        -2.3885   -4.5156    0.6784 H         1 <0>         0.1043
     38 H13        -6.3844   -0.6270    0.7570 H         1 <0>         0.0851
     39 H14        -4.9183    0.3591    0.9730 H         1 <0>         0.0869
     40 H15        -4.8231    0.7531   -1.4733 H         1 <0>         0.0819
     41 H16        -6.2891   -0.2330   -1.6892 H         1 <0>         0.0732
     42 H17        -8.4528    0.5760   -0.9354 H         1 <0>         0.1203
     43 H18        -9.8490    2.5464   -0.4547 H         1 <0>         0.1215
     44 H19        -8.7909    4.7152    0.0351 H         1 <0>         0.1211
     45 H20        -6.3366    4.9134    0.0450 H         1 <0>         0.1223
     46 H21        -4.9402    2.9410   -0.4276 H         1 <0>         0.1242
@<TRIPOS>BOND
     1    1    2 1
     2    1   26 1
     3    1   27 1
     4    1   28 1
     5    2    8 am
     6    2    3 1
     7    3   13 1
     8    3    4 2
     9    4    5 1
    10    4   11 1
    11    5    6 2
    12    5    7 am
    13    7    8 am
    14    7   10 1
    15    8    9 2
    16   10   29 1
    17   10   30 1
    18   10   31 1
    19   11   17 1
    20   11   12 1
    21   12   13 2
    22   12   14 1
    23   14   15 1
    24   14   18 1
    25   15   16 1
    26   15   32 1
    27   15   33 1
    28   16   17 1
    29   16   34 1
    30   16   35 1
    31   17   36 1
    32   17   37 1
    33   18   19 1
    34   18   38 1
    35   18   39 1
    36   19   20 1
    37   19   40 1
    38   19   41 1
    39   20   25 ar
    40   20   21 ar
    41   21   22 ar
    42   21   42 1
    43   22   23 ar
    44   22   43 1
    45   23   24 ar
    46   23   44 1
    47   24   25 ar
    48   24   45 1
    49   25   46 1
@<TRIPOS>MOLECULE
ZINC01004419
   26    27     0     0     0
SMALL
USER_CHARGES
1,3-dimethyl-7-prop-2-ynyl-purine-2,6-dione
@<TRIPOS>ATOM
      1 C1         -1.9354    3.3304    5.5071 C.3       1 <0>         0.0888
      2 N1         -0.8767    2.8498    4.6158 N.am      1 <0>        -0.5106
      3 C2         -1.1611    2.5787    3.2872 C.2       1 <0>         0.3193
      4 C3         -0.1414    2.1183    2.4637 C.2       1 <0>        -0.1500
      5 C4          1.1535    1.9514    3.0002 C.2       1 <0>         0.5933
      6 O1          2.0651    1.5536    2.2972 O.2       1 <0>        -0.5082
      7 N2          1.3682    2.2320    4.3024 N.am      1 <0>        -0.5519
      8 C5          0.3711    2.6717    5.0892 C.2       1 <0>         0.7074
      9 O2          0.6018    2.9152    6.2580 O.2       1 <0>        -0.5327
     10 C6          2.7084    2.0551    4.8672 C.3       1 <0>         0.0827
     11 N3         -0.7036    1.9402    1.2154 N.pl3     1 <0>        -0.4126
     12 C7         -2.0039    2.2778    1.3175 C.2       1 <0>         0.2760
     13 N4         -2.2675    2.6538    2.5430 N.2       1 <0>        -0.4964
     14 C8         -0.0179    1.4678    0.0101 C.3       1 <0>         0.2233
     15 C9          0.0021   -0.0041    0.0020 C.1       1 <0>        -0.2311
     16 C10         0.0180   -1.1779   -0.0044 C.1       1 <0>        -0.1384
     17 H1         -2.4300    2.4796    5.9756 H         1 <0>         0.0735
     18 H2         -1.5006    3.9674    6.2773 H         1 <0>         0.0940
     19 H3         -2.6634    3.9019    4.9313 H         1 <0>         0.0927
     20 H4          2.6968    2.3273    5.9226 H         1 <0>         0.1059
     21 H5          3.0115    1.0132    4.7640 H         1 <0>         0.0812
     22 H6          3.4140    2.6931    4.3351 H         1 <0>         0.0819
     23 H7         -2.7204    2.2436    0.5101 H         1 <0>         0.2325
     24 H8          1.0047    1.8451    0.0024 H         1 <0>         0.1262
     25 H9         -0.5451    1.8289   -0.8729 H         1 <0>         0.1286
     26 H10         0.0322   -2.2278   -0.0102 H         1 <0>         0.2245
@<TRIPOS>BOND
     1    1    2 1
     2    1   17 1
     3    1   18 1
     4    1   19 1
     5    2    8 am
     6    2    3 1
     7    3   13 1
     8    3    4 2
     9    4    5 1
    10    4   11 1
    11    5    6 2
    12    5    7 am
    13    7    8 am
    14    7   10 1
    15    8    9 2
    16   10   20 1
    17   10   21 1
    18   10   22 1
    19   11   12 1
    20   11   14 1
    21   12   13 2
    22   12   23 1
    23   14   15 1
    24   14   24 1
    25   14   25 1
    26   15   16 3
    27   16   26 1
@<TRIPOS>MOLECULE
ZINC01004419
   27    28     0     0     0
SMALL
USER_CHARGES
1,3-dimethyl-7-prop-2-ynyl-purine-2,6-dione
@<TRIPOS>ATOM
      1 C1         -1.9354    3.3304    5.5071 C.3       1 <0>         0.0635
      2 N1         -0.8767    2.8498    4.6158 N.am      1 <0>        -0.5131
      3 C2         -1.1611    2.5787    3.2872 C.2       1 <0>         0.3472
      4 C3         -0.1414    2.1183    2.4637 C.2       1 <0>        -0.0766
      5 C4          1.1535    1.9514    3.0002 C.2       1 <0>         0.5872
      6 O1          2.0651    1.5536    2.2972 O.2       1 <0>        -0.4606
      7 N2          1.3682    2.2320    4.3024 N.am      1 <0>        -0.5419
      8 C5          0.3711    2.6717    5.0892 C.2       1 <0>         0.7082
      9 O2          0.6018    2.9152    6.2580 O.2       1 <0>        -0.4834
     10 C6          2.7084    2.0551    4.8672 C.3       1 <0>         0.0743
     11 N3         -0.7036    1.9402    1.2154 N.pl3     1 <0>        -0.3531
     12 C7         -2.0039    2.2778    1.3175 C.cat     1 <0>         0.3511
     13 C8         -0.0179    1.4678    0.0101 C.3       1 <0>         0.2215
     14 C9          0.0021   -0.0041    0.0020 C.1       1 <0>        -0.2756
     15 C10         0.0180   -1.1779   -0.0044 C.1       1 <0>        -0.0744
     16 H1         -2.4300    2.4796    5.9756 H         1 <0>         0.0960
     17 H2         -1.5006    3.9674    6.2773 H         1 <0>         0.1204
     18 H3         -2.6634    3.9019    4.9313 H         1 <0>         0.0911
     19 H4          2.6968    2.3273    5.9226 H         1 <0>         0.1151
     20 H5          3.0115    1.0132    4.7640 H         1 <0>         0.0939
     21 H6          3.4140    2.6931    4.3351 H         1 <0>         0.0946
     22 H7         -2.7204    2.2436    0.5101 H         1 <0>         0.2837
     23 H8          1.0047    1.8451    0.0024 H         1 <0>         0.1508
     24 H9         -0.5451    1.8289   -0.8729 H         1 <0>         0.1531
     25 H10         0.0322   -2.2278   -0.0102 H         1 <0>         0.2333
     26 N4         -2.2694    2.6544    2.5437 N.pl3     1 <0>        -0.4934
     27 H11        -3.1889    2.9612    2.8822 H         1 <0>         0.4871
@<TRIPOS>BOND
     1    1    2 1
     2    1   16 1
     3    1   17 1
     4    1   18 1
     5    2    8 am
     6    2    3 1
     7    3    4 2
     8    3   26 1
     9    4    5 1
    10    4   11 1
    11    5    6 2
    12    5    7 am
    13    7    8 am
    14    7   10 1
    15    8    9 2
    16   10   19 1
    17   10   20 1
    18   10   21 1
    19   11   12 1
    20   11   13 1
    21   12   22 1
    22   12   26 2
    23   13   14 1
    24   13   23 1
    25   13   24 1
    26   14   15 3
    27   15   25 1
    28   26   27 1
@<TRIPOS>MOLECULE
ZINC00367972
   28    29     0     0     0
SMALL
USER_CHARGES
7-allyl-1,3-dimethyl-purine-2,6-dione
@<TRIPOS>ATOM
      1 C1          3.5943   -0.8205   -0.0372 C.3       1 <0>         0.0859
      2 N1          2.3510   -0.0457   -0.0206 N.am      1 <0>        -0.5111
      3 C2          2.3989    1.3389   -0.0137 C.2       1 <0>         0.3174
      4 C3          1.2061    2.0510    0.0016 C.2       1 <0>        -0.1529
      5 C4         -0.0162    1.3451    0.0094 C.2       1 <0>         0.5939
      6 O1         -1.0751    1.9469    0.0177 O.2       1 <0>        -0.5111
      7 N2          0.0021   -0.0041    0.0020 N.am      1 <0>        -0.5520
      8 C5          1.1636   -0.6804   -0.0127 C.2       1 <0>         0.7078
      9 O2          1.1414   -1.8962   -0.0186 O.2       1 <0>        -0.5336
     10 C6         -1.2630   -0.7429    0.0096 C.3       1 <0>         0.0838
     11 N3          1.5537    3.3870    0.0054 N.pl3     1 <0>        -0.4068
     12 C7          2.8998    3.4436   -0.0071 C.2       1 <0>         0.2708
     13 N4          3.3925    2.2313   -0.0184 N.2       1 <0>        -0.4973
     14 C8          0.6336    4.5269    0.0199 C.3       1 <0>         0.1324
     15 C9          0.2348    4.8325    1.4407 C.2       1 <0>        -0.1809
     16 C10         0.4099    6.0368    1.9255 C.2       1 <0>        -0.1559
     17 H1          3.3591   -1.8848   -0.0410 H         1 <0>         0.1027
     18 H2          4.1657   -0.5715   -0.9314 H         1 <0>         0.0794
     19 H3          4.1830   -0.5816    0.8485 H         1 <0>         0.0793
     20 H4         -1.5861   -0.9206   -1.0161 H         1 <0>         0.0767
     21 H5         -1.1232   -1.6974    0.5171 H         1 <0>         0.0966
     22 H6         -2.0208   -0.1604    0.5336 H         1 <0>         0.0947
     23 H7          3.4839    4.3521   -0.0078 H         1 <0>         0.2299
     24 H8          1.1261    5.3969   -0.4144 H         1 <0>         0.1088
     25 H9         -0.2550    4.2839   -0.5627 H         1 <0>         0.1129
     26 H10        -0.1954    4.0586    2.0591 H         1 <0>         0.1166
     27 H11         0.1241    6.2558    2.9438 H         1 <0>         0.1083
     28 H12         0.8401    6.8106    1.3071 H         1 <0>         0.1039
@<TRIPOS>BOND
     1    1    2 1
     2    1   17 1
     3    1   18 1
     4    1   19 1
     5    2    8 am
     6    2    3 1
     7    3   13 1
     8    3    4 2
     9    4    5 1
    10    4   11 1
    11    5    6 2
    12    5    7 am
    13    7    8 am
    14    7   10 1
    15    8    9 2
    16   10   20 1
    17   10   21 1
    18   10   22 1
    19   11   12 1
    20   11   14 1
    21   12   13 2
    22   12   23 1
    23   14   15 1
    24   14   24 1
    25   14   25 1
    26   15   16 2
    27   15   26 1
    28   16   27 1
    29   16   28 1
@<TRIPOS>MOLECULE
ZINC00367972
   29    30     0     0     0
SMALL
USER_CHARGES
7-allyl-1,3-dimethyl-purine-2,6-dione
@<TRIPOS>ATOM
      1 C1          3.5943   -0.8205   -0.0372 C.3       1 <0>         0.0550
      2 N1          2.3510   -0.0457   -0.0206 N.am      1 <0>        -0.5134
      3 C2          2.3989    1.3389   -0.0137 C.2       1 <0>         0.3473
      4 C3          1.2061    2.0510    0.0016 C.2       1 <0>        -0.0802
      5 C4         -0.0162    1.3451    0.0094 C.2       1 <0>         0.5882
      6 O1         -1.0751    1.9469    0.0177 O.2       1 <0>        -0.4635
      7 N2          0.0021   -0.0041    0.0020 N.am      1 <0>        -0.5422
      8 C5          1.1636   -0.6804   -0.0127 C.2       1 <0>         0.7083
      9 O2          1.1414   -1.8962   -0.0186 O.2       1 <0>        -0.4841
     10 C6         -1.2630   -0.7429    0.0096 C.3       1 <0>         0.0753
     11 N3          1.5537    3.3870    0.0054 N.pl3     1 <0>        -0.3449
     12 C7          2.8998    3.4436   -0.0071 C.cat     1 <0>         0.3420
     13 C8          0.6336    4.5269    0.0199 C.3       1 <0>         0.1219
     14 C9          0.2348    4.8325    1.4407 C.2       1 <0>        -0.2134
     15 C10         0.4099    6.0368    1.9255 C.2       1 <0>        -0.1174
     16 H1          3.3591   -1.8848   -0.0410 H         1 <0>         0.1287
     17 H2          4.1657   -0.5715   -0.9314 H         1 <0>         0.0927
     18 H3          4.1830   -0.5816    0.8485 H         1 <0>         0.0926
     19 H4         -1.5861   -0.9206   -1.0161 H         1 <0>         0.0900
     20 H5         -1.1232   -1.6974    0.5171 H         1 <0>         0.1068
     21 H6         -2.0208   -0.1604    0.5336 H         1 <0>         0.1057
     22 H7          3.4839    4.3521   -0.0078 H         1 <0>         0.2809
     23 H8          1.1261    5.3969   -0.4144 H         1 <0>         0.1339
     24 H9         -0.2550    4.2839   -0.5627 H         1 <0>         0.1389
     25 H10        -0.1954    4.0586    2.0591 H         1 <0>         0.1260
     26 H11         0.1241    6.2558    2.9438 H         1 <0>         0.1204
     27 H12         0.8401    6.8106    1.3071 H         1 <0>         0.1115
     28 N4          3.3946    2.2308   -0.0184 N.pl3     1 <0>        -0.4936
     29 H13         4.3951    2.0003   -0.0293 H         1 <0>         0.4866
@<TRIPOS>BOND
     1    1    2 1
     2    1   16 1
     3    1   17 1
     4    1   18 1
     5    2    8 am
     6    2    3 1
     7    3    4 2
     8    3   28 1
     9    4    5 1
    10    4   11 1
    11    5    6 2
    12    5    7 am
    13    7    8 am
    14    7   10 1
    15    8    9 2
    16   10   19 1
    17   10   20 1
    18   10   21 1
    19   11   12 1
    20   11   13 1
    21   12   22 1
    22   12   28 2
    23   13   14 1
    24   13   23 1
    25   13   24 1
    26   14   15 2
    27   14   25 1
    28   15   26 1
    29   15   27 1
    30   28   29 1
@<TRIPOS>MOLECULE
ZINC23360505
   49    52     0     0     0
SMALL
USER_CHARGES

@<TRIPOS>ATOM
      1 C1         -0.0124    1.4656    0.0037 C.3       1 <0>        -0.0458
      2 N1          0.0067   -0.0032   -0.0036 N.4       1 <0>        -0.3893
      3 C2          0.6936   -0.4777   -1.2121 C.3       1 <0>        -0.0014
      4 C3          0.6972   -2.0078   -1.2295 C.3       1 <0>         0.0267
      5 N2          1.3814   -2.5070   -0.0283 N.3       1 <0>        -0.5235
      6 C4          0.7195   -2.0195    1.1900 C.3       1 <0>         0.0173
      7 C5          0.7157   -0.4893    1.1875 C.3       1 <0>         0.0006
      8 C6          1.4557   -3.9741   -0.0361 C.3       1 <0>         0.0379
      9 C7          2.3678   -4.4368    1.0706 C.2       1 <0>         0.5069
     10 O1          2.9033   -3.6245    1.7945 O.2       1 <0>        -0.4476
     11 N3          2.5885   -5.7534    1.2559 N.am      1 <0>        -0.6509
     12 C8          3.5107   -6.1769    2.2072 C.ar      1 <0>         0.4340
     13 C9          3.8235   -7.5290    2.3340 C.ar      1 <0>        -0.2633
     14 C10         4.7511   -7.9079    3.2986 C.ar      1 <0>         0.4597
     15 N4          5.3068   -6.9755    4.0643 N.ar      1 <0>        -0.5486
     16 C11         4.9862   -5.6952    3.9172 C.ar      1 <0>         0.4662
     17 N5          4.1087   -5.2973    3.0027 N.ar      1 <0>        -0.5093
     18 C12         5.6249   -4.6891    4.7873 C.2       1 <0>         0.0102
     19 C13         5.3957   -3.3481    4.7594 C.2       1 <0>        -0.1161
     20 C14         6.2122   -2.7766    5.7532 C.2       1 <0>        -0.2284
     21 C15         6.8933   -3.7855    6.3337 C.2       1 <0>         0.0021
     22 O2          6.5322   -4.9390    5.7517 O.3       1 <0>        -0.1521
     23 N6          5.0937   -9.2518    3.4604 N.pl3     1 <0>        -0.3369
     24 C16         5.9771   -9.7496    4.3651 C.2       1 <0>         0.0828
     25 C17         6.0227  -11.0909    4.1970 C.2       1 <0>        -0.2519
     26 C18         5.1433  -11.4264    3.1607 C.2       1 <0>         0.0814
     27 N7          4.5835  -10.3283    2.7232 N.2       1 <0>        -0.2854
     28 H1          1.0105    1.8423   -0.0032 H         1 <0>         0.1237
     29 H2         -0.5385    1.8266   -0.8801 H         1 <0>         0.1243
     30 H3         -0.5232    1.8179    0.8998 H         1 <0>         0.1245
     31 H4          0.1741   -0.1055   -2.0951 H         1 <0>         0.1380
     32 H5          1.7204   -0.1119   -1.2136 H         1 <0>         0.1392
     33 H6         -0.3294   -2.3738   -1.2418 H         1 <0>         0.0640
     34 H7          1.2199   -2.3602   -2.1187 H         1 <0>         0.1263
     35 H8         -0.3068   -2.3857    1.2176 H         1 <0>         0.0588
     36 H9          1.2584   -2.3805    2.0660 H         1 <0>         0.1394
     37 H10         1.7424   -0.1235    1.1736 H         1 <0>         0.1404
     38 H11         0.2125   -0.1257    2.0834 H         1 <0>         0.1367
     39 H12         0.4594   -4.3891    0.1167 H         1 <0>         0.0830
     40 H13         1.8472   -4.3130   -0.9953 H         1 <0>         0.1246
     41 H14         2.1042   -6.4056    0.7259 H         1 <0>         0.4267
     42 H15         3.3558   -8.2660    1.6980 H         1 <0>         0.1652
     43 H16         4.7184   -2.8236    4.1016 H         1 <0>         0.1631
     44 H17         6.2805   -1.7283    6.0035 H         1 <0>         0.1581
     45 H18         7.6079   -3.6824    7.1370 H         1 <0>         0.2141
     46 H19         6.5409   -9.1779    5.0873 H         1 <0>         0.1877
     47 H20         6.6305  -11.7815    4.7627 H         1 <0>         0.1644
     48 H21         4.9558  -12.4228    2.7888 H         1 <0>         0.2008
     49 H22        -0.9402   -0.3517    0.0033 H         1 <0>         0.4218
@<TRIPOS>BOND
     1    1    2 1
     2    1   28 1
     3    1   29 1
     4    1   30 1
     5    2    7 1
     6    2    3 1
     7    2   49 1
     8    3    4 1
     9    3   31 1
    10    3   32 1
    11    4    5 1
    12    4   33 1
    13    4   34 1
    14    5    6 1
    15    5    8 1
    16    6    7 1
    17    6   35 1
    18    6   36 1
    19    7   37 1
    20    7   38 1
    21    8    9 1
    22    8   39 1
    23    8   40 1
    24    9   10 2
    25    9   11 am
    26   11   12 1
    27   11   41 1
    28   12   17 ar
    29   12   13 ar
    30   13   14 ar
    31   13   42 1
    32   14   15 ar
    33   14   23 1
    34   15   16 ar
    35   16   17 ar
    36   16   18 1
    37   18   22 1
    38   18   19 2
    39   19   20 1
    40   19   43 1
    41   20   21 2
    42   20   44 1
    43   21   22 1
    44   21   45 1
    45   23   27 1
    46   23   24 1
    47   24   25 2
    48   24   46 1
    49   25   26 1
    50   25   47 1
    51   26   27 2
    52   26   48 1
@<TRIPOS>MOLECULE
ZINC29055563
   53    56     0     0     0
SMALL
USER_CHARGES
3-ethyl-1-propyl-8-[1-[[3-(trifluoromethyl)phenyl]methyl]pyrazol-4-yl]-7H-purine-2,6-dione
@<TRIPOS>ATOM
      1 C1         -0.0187    1.5258    0.0104 C.3       1 <0>        -0.1489
      2 C2          0.0021   -0.0041    0.0020 C.3       1 <0>        -0.1381
      3 C3         -1.4333   -0.5336    0.0129 C.3       1 <0>         0.1117
      4 N1         -1.4134   -1.9985    0.0048 N.am      1 <0>        -0.5489
      5 C4         -1.3932   -2.6689    1.1753 C.2       1 <0>         0.5944
      6 O1         -1.3919   -2.0629    2.2323 O.2       1 <0>        -0.5168
      7 C5         -1.3742   -4.0778    1.1621 C.2       1 <0>        -0.1634
      8 C6         -1.3766   -4.7448   -0.0587 C.2       1 <0>         0.3274
      9 N2         -1.3564   -6.0527    0.1965 N.2       1 <0>        -0.4986
     10 C7         -1.3413   -6.2555    1.4997 C.2       1 <0>         0.4025
     11 N3         -1.3516   -5.0547    2.1422 N.pl3     1 <0>        -0.5320
     12 H1         -1.3455   -4.7682    3.2042 H         1 <0>         0.4674
     13 C8         -1.3175   -7.5770    2.1586 C.2       1 <0>        -0.1985
     14 C9         -1.2954   -7.8190    3.5493 C.2       1 <0>         0.0792
     15 N4         -1.2825   -9.1108    3.7354 N.2       1 <0>        -0.2789
     16 N5         -1.2853   -9.7474    2.4891 N.pl3     1 <0>        -0.3571
     17 C10        -1.3068   -8.8040    1.5301 C.2       1 <0>         0.1292
     18 C11        -1.2675  -11.1952    2.2665 C.3       1 <0>         0.1705
     19 C12        -0.0888  -11.7995    2.9853 C.ar      1 <0>        -0.1168
     20 C13        -0.2241  -12.2350    4.2904 C.ar      1 <0>        -0.0490
     21 C14         0.8569  -12.7891    4.9497 C.ar      1 <0>        -0.1207
     22 C15         2.0734  -12.9088    4.3036 C.ar      1 <0>        -0.0589
     23 C16         2.2085  -12.4742    2.9986 C.ar      1 <0>        -0.1852
     24 C17         1.1260  -11.9235    2.3378 C.ar      1 <0>        -0.0482
     25 C18         3.5343  -12.6051    2.2942 C.3       1 <0>         0.5084
     26 F1          4.4657  -13.1906    3.1584 F         1 <0>        -0.1755
     27 F2          3.3820  -13.4086    1.1591 F         1 <0>        -0.1752
     28 F3          3.9860  -11.3377    1.9112 F         1 <0>        -0.1752
     29 N6         -1.3975   -3.9988   -1.2270 N.am      1 <0>        -0.5083
     30 C19        -1.4212   -2.6540   -1.1686 C.2       1 <0>         0.7075
     31 O2         -1.4445   -2.0161   -2.2036 O.2       1 <0>        -0.5327
     32 C20        -1.4006   -4.6747   -2.5267 C.3       1 <0>         0.1139
     33 C21        -2.8439   -4.9293   -2.9657 C.3       1 <0>        -0.1690
     34 H2          1.0133    1.9066    0.0026 H         1 <0>         0.0615
     35 H3         -0.5336    1.8805    0.9154 H         1 <0>         0.0592
     36 H4         -0.5508    1.8901   -0.8808 H         1 <0>         0.0600
     37 H5          0.5170   -0.3588   -0.9030 H         1 <0>         0.0692
     38 H6          0.5342   -0.3685    0.8931 H         1 <0>         0.0677
     39 H7         -1.9481   -0.1788    0.9180 H         1 <0>         0.1021
     40 H8         -1.9654   -0.1691   -0.8782 H         1 <0>         0.1035
     41 H9         -1.2928   -7.0665    4.3240 H         1 <0>         0.1886
     42 H10        -1.3142   -8.9763    0.4640 H         1 <0>         0.1928
     43 H11        -2.1981  -11.6369    2.6523 H         1 <0>         0.1082
     44 H12        -1.1839  -11.3995    1.1889 H         1 <0>         0.1173
     45 H13        -1.1745  -12.1419    4.7950 H         1 <0>         0.1370
     46 H14         0.7513  -13.1290    5.9694 H         1 <0>         0.1401
     47 H15         2.9180  -13.3421    4.8186 H         1 <0>         0.1417
     48 H16         1.2306  -11.5874    1.3168 H         1 <0>         0.1346
     49 H17        -0.8974   -4.0402   -3.2711 H         1 <0>         0.1003
     50 H18        -0.8684   -5.6337   -2.4426 H         1 <0>         0.0989
     51 H19        -2.8462   -5.4368   -3.9416 H         1 <0>         0.0779
     52 H20        -3.3761   -3.9703   -3.0499 H         1 <0>         0.0617
     53 H21        -3.3471   -5.5638   -2.2212 H         1 <0>         0.0614
@<TRIPOS>BOND
     1    1    2 1
     2    1   34 1
     3    1   35 1
     4    1   36 1
     5    2    3 1
     6    2   37 1
     7    2   38 1
     8    3    4 1
     9    3   39 1
    10    3   40 1
    11    4   30 am
    12    4    5 am
    13    5    6 2
    14    5    7 1
    15    7   11 1
    16    7    8 2
    17    8    9 1
    18    8   29 1
    19    9   10 2
    20   10   11 1
    21   10   13 1
    22   11   12 1
    23   13   17 2
    24   13   14 1
    25   14   15 2
    26   14   41 1
    27   15   16 1
    28   16   17 1
    29   16   18 1
    30   17   42 1
    31   18   19 1
    32   18   43 1
    33   18   44 1
    34   19   24 ar
    35   19   20 ar
    36   20   21 ar
    37   20   45 1
    38   21   22 ar
    39   21   46 1
    40   22   23 ar
    41   22   47 1
    42   23   24 ar
    43   23   25 1
    44   24   48 1
    45   25   26 1
    46   25   27 1
    47   25   28 1
    48   29   30 am
    49   29   32 1
    50   30   31 2
    51   32   33 1
    52   32   49 1
    53   32   50 1
    54   33   51 1
    55   33   52 1
    56   33   53 1
@<TRIPOS>MOLECULE
ZINC05114736
   49    51     0     0     0
SMALL
USER_CHARGES
2-[4-(2,6-dioxo-1,3-dipropyl-7H-purin-8-yl)phenoxy]acetic acid
@<TRIPOS>ATOM
      1 C1         -2.8508   -5.6333   -4.3234 C.3       1 <0>        -0.1466
      2 C2         -2.8466   -4.9279   -2.9657 C.3       1 <0>        -0.1389
      3 C3         -1.4029   -4.6741   -2.5274 C.3       1 <0>         0.1197
      4 N1         -1.3988   -3.9987   -1.2274 N.am      1 <0>        -0.5074
      5 C4         -1.3776   -4.7454   -0.0594 C.2       1 <0>         0.3280
      6 C5         -1.3746   -4.0790    1.1619 C.2       1 <0>        -0.1568
      7 C6         -1.3932   -2.6689    1.1754 C.2       1 <0>         0.5944
      8 O1         -1.3907   -2.0630    2.2322 O.2       1 <0>        -0.5157
      9 N2         -1.4134   -1.9985    0.0048 N.am      1 <0>        -0.5498
     10 C7         -1.4212   -2.6539   -1.1686 C.2       1 <0>         0.7085
     11 O2         -1.4443   -2.0159   -2.2035 O.2       1 <0>        -0.5354
     12 C8         -1.4333   -0.5336    0.0129 C.3       1 <0>         0.1149
     13 C9          0.0021   -0.0041    0.0020 C.3       1 <0>        -0.1382
     14 C10        -0.0187    1.5258    0.0104 C.3       1 <0>        -0.1464
     15 N3         -1.3522   -5.0549    2.1407 N.pl3     1 <0>        -0.5242
     16 H1         -1.3446   -4.9075    3.1298 H         1 <0>         0.4420
     17 C11        -1.3424   -6.2559    1.4983 C.2       1 <0>         0.3692
     18 N4         -1.3577   -6.0531    0.1951 N.2       1 <0>        -0.4913
     19 C12        -1.3185   -7.5774    2.1573 C.ar      1 <0>        -0.1064
     20 C13        -1.2981   -7.6645    3.5512 C.ar      1 <0>        -0.0483
     21 C14        -1.2812   -8.8992    4.1622 C.ar      1 <0>        -0.2171
     22 C15        -1.2737  -10.0566    3.3936 C.ar      1 <0>         0.1720
     23 C16        -1.2882   -9.9742    2.0068 C.ar      1 <0>        -0.1618
     24 C17        -1.3105   -8.7434    1.3882 C.ar      1 <0>        -0.0189
     25 O3         -1.2518  -11.2716    3.9996 O.3       1 <0>        -0.2788
     26 C18        -1.2379  -11.2839    5.4284 C.3       1 <0>         0.0137
     27 C19        -1.2142  -12.7088    5.9184 C.2       1 <0>         0.4687
     28 O4         -1.2098  -13.6203    5.1253 O.co2     1 <0>        -0.6119
     29 H2         -3.8794   -5.8142   -4.6357 H         1 <0>         0.0597
     30 H3         -2.3524   -5.0045   -5.0611 H         1 <0>         0.0572
     31 H4         -2.3238   -6.5838   -4.2406 H         1 <0>         0.0598
     32 H5         -3.3450   -5.5567   -2.2280 H         1 <0>         0.0697
     33 H6         -3.3736   -3.9774   -3.0485 H         1 <0>         0.0666
     34 H7         -0.9044   -4.0453   -3.2651 H         1 <0>         0.0984
     35 H8         -0.8758   -5.6246   -2.4446 H         1 <0>         0.0996
     36 H9         -1.9435   -0.1821    0.9097 H         1 <0>         0.1001
     37 H10        -1.9605   -0.1726   -0.8702 H         1 <0>         0.1017
     38 H11         0.5123   -0.3556   -0.8948 H         1 <0>         0.0690
     39 H12         0.5293   -0.3651    0.8851 H         1 <0>         0.0677
     40 H13         1.0039    1.9031    0.0027 H         1 <0>         0.0603
     41 H14        -0.5459    1.8868   -0.8726 H         1 <0>         0.0588
     42 H15        -0.5289    1.8773    0.9072 H         1 <0>         0.0583
     43 H16        -1.2994   -6.7652    4.1493 H         1 <0>         0.1212
     44 H17        -1.2699   -8.9675    5.2400 H         1 <0>         0.1393
     45 H18        -1.2823  -10.8762    1.4129 H         1 <0>         0.1418
     46 H19        -1.3213   -8.6801    0.3101 H         1 <0>         0.1438
     47 H20        -0.3512  -10.7614    5.7876 H         1 <0>         0.0709
     48 H21        -2.1310  -10.7850    5.8048 H         1 <0>         0.0709
     49 O5         -1.1981  -12.9653    7.2358 O.co2     1 <0>        -0.7522
@<TRIPOS>BOND
     1    1    2 1
     2    1   29 1
     3    1   30 1
     4    1   31 1
     5    2    3 1
     6    2   32 1
     7    2   33 1
     8    3    4 1
     9    3   34 1
    10    3   35 1
    11    4   10 am
    12    4    5 1
    13    5   18 1
    14    5    6 2
    15    6    7 1
    16    6   15 1
    17    7    8 2
    18    7    9 am
    19    9   10 am
    20    9   12 1
    21   10   11 2
    22   12   13 1
    23   12   36 1
    24   12   37 1
    25   13   14 1
    26   13   38 1
    27   13   39 1
    28   14   40 1
    29   14   41 1
    30   14   42 1
    31   15   16 1
    32   15   17 1
    33   17   18 2
    34   17   19 1
    35   19   24 ar
    36   19   20 ar
    37   20   21 ar
    38   20   43 1
    39   21   22 ar
    40   21   44 1
    41   22   23 ar
    42   22   25 1
    43   23   24 ar
    44   23   45 1
    45   24   46 1
    46   25   26 1
    47   26   27 1
    48   26   47 1
    49   26   48 1
    50   27   28 2
    51   27   49 1
@<TRIPOS>MOLECULE
ZINC05114736
   50    52     0     0     0
SMALL
USER_CHARGES
2-[4-(2,6-dioxo-1,3-dipropyl-7H-purin-8-yl)phenoxy]acetic acid
@<TRIPOS>ATOM
      1 C1         -2.8508   -5.6333   -4.3234 C.3       1 <0>        -0.1530
      2 C2         -2.8466   -4.9279   -2.9657 C.3       1 <0>        -0.1450
      3 C3         -1.4029   -4.6741   -2.5274 C.3       1 <0>         0.0967
      4 N1         -1.3988   -3.9987   -1.2274 N.am      1 <0>        -0.5113
      5 C4         -1.3776   -4.7454   -0.0594 C.2       1 <0>         0.3517
      6 C5         -1.3746   -4.0790    1.1619 C.2       1 <0>        -0.0784
      7 C6         -1.3932   -2.6689    1.1754 C.2       1 <0>         0.5896
      8 O1         -1.3907   -2.0630    2.2322 O.2       1 <0>        -0.4690
      9 N2         -1.4134   -1.9985    0.0048 N.am      1 <0>        -0.5408
     10 C7         -1.4212   -2.6539   -1.1686 C.2       1 <0>         0.7098
     11 O2         -1.4443   -2.0159   -2.2035 O.2       1 <0>        -0.4892
     12 C8         -1.4333   -0.5336    0.0129 C.3       1 <0>         0.1084
     13 C9          0.0021   -0.0041    0.0020 C.3       1 <0>        -0.1386
     14 C10        -0.0187    1.5258    0.0104 C.3       1 <0>        -0.1501
     15 N3         -1.3522   -5.0549    2.1407 N.pl3     1 <0>        -0.4777
     16 H1         -1.3446   -4.9075    3.1298 H         1 <0>         0.4807
     17 C11        -1.3424   -6.2559    1.4983 C.cat     1 <0>         0.4692
     18 C12        -1.3185   -7.5774    2.1573 C.ar      1 <0>        -0.1754
     19 C13        -1.2981   -7.6645    3.5512 C.ar      1 <0>        -0.0098
     20 C14        -1.2812   -8.8992    4.1622 C.ar      1 <0>        -0.2136
     21 C15        -1.2737  -10.0566    3.3936 C.ar      1 <0>         0.2162
     22 C16        -1.2882   -9.9742    2.0068 C.ar      1 <0>        -0.1516
     23 C17        -1.3105   -8.7434    1.3882 C.ar      1 <0>        -0.0223
     24 O3         -1.2518  -11.2716    3.9996 O.3       1 <0>        -0.2599
     25 C18        -1.2379  -11.2839    5.4284 C.3       1 <0>         0.0053
     26 C19        -1.2142  -12.7088    5.9184 C.2       1 <0>         0.4669
     27 O4         -1.2098  -13.6203    5.1253 O.co2     1 <0>        -0.6074
     28 H2         -3.8794   -5.8142   -4.6357 H         1 <0>         0.0705
     29 H3         -2.3524   -5.0045   -5.0611 H         1 <0>         0.0665
     30 H4         -2.3238   -6.5838   -4.2406 H         1 <0>         0.0611
     31 H5         -3.3450   -5.5567   -2.2280 H         1 <0>         0.0657
     32 H6         -3.3736   -3.9774   -3.0485 H         1 <0>         0.0819
     33 H7         -0.9044   -4.0453   -3.2651 H         1 <0>         0.1256
     34 H8         -0.8758   -5.6246   -2.4446 H         1 <0>         0.0965
     35 H9         -1.9435   -0.1821    0.9097 H         1 <0>         0.1109
     36 H10        -1.9605   -0.1726   -0.8702 H         1 <0>         0.1115
     37 H11         0.5123   -0.3556   -0.8948 H         1 <0>         0.0709
     38 H12         0.5293   -0.3651    0.8851 H         1 <0>         0.0701
     39 H13         1.0039    1.9031    0.0027 H         1 <0>         0.0659
     40 H14        -0.5459    1.8868   -0.8726 H         1 <0>         0.0620
     41 H15        -0.5289    1.8773    0.9072 H         1 <0>         0.0619
     42 H16        -1.2994   -6.7652    4.1493 H         1 <0>         0.1351
     43 H17        -1.2699   -8.9675    5.2400 H         1 <0>         0.1559
     44 H18        -1.2823  -10.8762    1.4129 H         1 <0>         0.1574
     45 H19        -1.3213   -8.6801    0.3101 H         1 <0>         0.1355
     46 H20        -0.3512  -10.7614    5.7876 H         1 <0>         0.0801
     47 H21        -2.1310  -10.7850    5.8048 H         1 <0>         0.0801
     48 O5         -1.1981  -12.9653    7.2358 O.co2     1 <0>        -0.7388
     49 N4         -1.3577   -6.0549    0.1934 N.pl3     1 <0>        -0.5077
     50 H22        -1.3547   -6.7945   -0.5188 H         1 <0>         0.4798
@<TRIPOS>BOND
     1    1    2 1
     2    1   28 1
     3    1   29 1
     4    1   30 1
     5    2    3 1
     6    2   31 1
     7    2   32 1
     8    3    4 1
     9    3   33 1
    10    3   34 1
    11    4   10 am
    12    4    5 1
    13    5    6 2
    14    5   49 1
    15    6    7 1
    16    6   15 1
    17    7    8 2
    18    7    9 am
    19    9   10 am
    20    9   12 1
    21   10   11 2
    22   12   13 1
    23   12   35 1
    24   12   36 1
    25   13   14 1
    26   13   37 1
    27   13   38 1
    28   14   39 1
    29   14   40 1
    30   14   41 1
    31   15   16 1
    32   15   17 1
    33   17   18 1
    34   17   49 2
    35   18   23 ar
    36   18   19 ar
    37   19   20 ar
    38   19   42 1
    39   20   21 ar
    40   20   43 1
    41   21   22 ar
    42   21   24 1
    43   22   23 ar
    44   22   44 1
    45   23   45 1
    46   24   25 1
    47   25   26 1
    48   25   46 1
    49   25   47 1
    50   26   27 2
    51   26   48 1
    52   49   50 1
@<TRIPOS>MOLECULE
ZINC00529763
   32    34     0     0     0
SMALL
USER_CHARGES
8-(4-hydroxyphenyl)-1,3-dimethyl-7H-purine-2,6-dione
@<TRIPOS>ATOM
      1 C1          3.6575    2.0860   -0.0235 C.3       1 <0>         0.0850
      2 N1          2.3735    1.3807   -0.0141 N.am      1 <0>        -0.5112
      3 C2          1.1886    2.1004    0.0020 C.2       1 <0>         0.3277
      4 C3         -0.0170    1.4060    0.0098 C.2       1 <0>        -0.1430
      5 C4          0.0021   -0.0041    0.0020 C.2       1 <0>         0.5939
      6 O1         -1.0405   -0.6342    0.0082 O.2       1 <0>        -0.5122
      7 N2          1.1878   -0.6474   -0.0128 N.am      1 <0>        -0.5509
      8 C5          2.3458    0.0348   -0.0206 C.2       1 <0>         0.7083
      9 O2          3.3953   -0.5793   -0.0343 O.2       1 <0>        -0.5295
     10 C6          1.2136   -2.1122   -0.0209 C.3       1 <0>         0.0826
     11 N3         -1.0181    2.3593    0.0190 N.pl3     1 <0>        -0.5176
     12 H1         -2.0035    2.1893    0.0208 H         1 <0>         0.4437
     13 C7         -0.4035    3.5748    0.0251 C.2       1 <0>         0.3439
     14 N4          0.9039    3.4020    0.0117 N.2       1 <0>        -0.4825
     15 C8         -1.0929    4.8809    0.0392 C.ar      1 <0>        -0.0487
     16 C9         -2.4886    4.9360    0.0475 C.ar      1 <0>        -0.0793
     17 C10        -3.1277    6.1563    0.0654 C.ar      1 <0>        -0.1433
     18 C11        -2.3861    7.3312    0.0646 C.ar      1 <0>         0.1324
     19 C12        -0.9977    7.2807    0.0511 C.ar      1 <0>        -0.1454
     20 C13        -0.3509    6.0643    0.0384 C.ar      1 <0>        -0.0452
     21 O3         -3.0199    8.5320    0.0766 O.3       1 <0>        -0.4970
     22 H2          4.4706    1.3601   -0.0354 H         1 <0>         0.1039
     23 H3          3.7197    2.7157   -0.9110 H         1 <0>         0.0801
     24 H4          3.7377    2.7067    0.8688 H         1 <0>         0.0802
     25 H5          0.1925   -2.4936   -0.0132 H         1 <0>         0.1040
     26 H6          1.7252   -2.4616   -0.9177 H         1 <0>         0.0835
     27 H7          1.7422   -2.4712    0.8622 H         1 <0>         0.0835
     28 H8         -3.0658    4.0232    0.0436 H         1 <0>         0.1280
     29 H9         -4.2068    6.1998    0.0763 H         1 <0>         0.1393
     30 H10        -0.4248    8.1962    0.0509 H         1 <0>         0.1408
     31 H11         0.7284    6.0259    0.0276 H         1 <0>         0.1469
     32 H12        -3.2119    8.8843   -0.8032 H         1 <0>         0.3980
@<TRIPOS>BOND
     1    1    2 1
     2    1   22 1
     3    1   23 1
     4    1   24 1
     5    2    8 am
     6    2    3 1
     7    3   14 1
     8    3    4 2
     9    4    5 1
    10    4   11 1
    11    5    6 2
    12    5    7 am
    13    7    8 am
    14    7   10 1
    15    8    9 2
    16   10   25 1
    17   10   26 1
    18   10   27 1
    19   11   12 1
    20   11   13 1
    21   13   14 2
    22   13   15 1
    23   15   20 ar
    24   15   16 ar
    25   16   17 ar
    26   16   28 1
    27   17   18 ar
    28   17   29 1
    29   18   19 ar
    30   18   21 1
    31   19   20 ar
    32   19   30 1
    33   20   31 1
    34   21   32 1
@<TRIPOS>MOLECULE
ZINC00529763
   33    35     0     0     0
SMALL
USER_CHARGES
8-(4-hydroxyphenyl)-1,3-dimethyl-7H-purine-2,6-dione
@<TRIPOS>ATOM
      1 C1          3.6575    2.0860   -0.0235 C.3       1 <0>         0.0533
      2 N1          2.3735    1.3807   -0.0141 N.am      1 <0>        -0.5123
      3 C2          1.1886    2.1004    0.0020 C.2       1 <0>         0.3568
      4 C3         -0.0170    1.4060    0.0098 C.2       1 <0>        -0.0695
      5 C4          0.0021   -0.0041    0.0020 C.2       1 <0>         0.5884
      6 O1         -1.0405   -0.6342    0.0082 O.2       1 <0>        -0.4654
      7 N2          1.1878   -0.6474   -0.0128 N.am      1 <0>        -0.5410
      8 C5          2.3458    0.0348   -0.0206 C.2       1 <0>         0.7084
      9 O2          3.3953   -0.5793   -0.0343 O.2       1 <0>        -0.4812
     10 C6          1.2136   -2.1122   -0.0209 C.3       1 <0>         0.0744
     11 N3         -1.0181    2.3593    0.0190 N.pl3     1 <0>        -0.4631
     12 H1         -2.0035    2.1893    0.0208 H         1 <0>         0.4830
     13 C7         -0.4035    3.5748    0.0251 C.cat     1 <0>         0.4464
     14 C8         -1.0929    4.8809    0.0392 C.ar      1 <0>        -0.1182
     15 C9         -2.4886    4.9360    0.0475 C.ar      1 <0>        -0.0424
     16 C10        -3.1277    6.1563    0.0654 C.ar      1 <0>        -0.1385
     17 C11        -2.3861    7.3312    0.0646 C.ar      1 <0>         0.1828
     18 C12        -0.9977    7.2807    0.0511 C.ar      1 <0>        -0.1390
     19 C13        -0.3509    6.0643    0.0384 C.ar      1 <0>        -0.0463
     20 O3         -3.0199    8.5320    0.0766 O.3       1 <0>        -0.4892
     21 H2          4.4706    1.3601   -0.0354 H         1 <0>         0.1304
     22 H3          3.7197    2.7157   -0.9110 H         1 <0>         0.0931
     23 H4          3.7377    2.7067    0.8688 H         1 <0>         0.0931
     24 H5          0.1925   -2.4936   -0.0132 H         1 <0>         0.1139
     25 H6          1.7252   -2.4616   -0.9177 H         1 <0>         0.0954
     26 H7          1.7422   -2.4712    0.8622 H         1 <0>         0.0954
     27 H8         -3.0658    4.0232    0.0436 H         1 <0>         0.1412
     28 H9         -4.2068    6.1998    0.0763 H         1 <0>         0.1566
     29 H10        -0.4248    8.1962    0.0509 H         1 <0>         0.1562
     30 H11         0.7284    6.0259    0.0276 H         1 <0>         0.1390
     31 H12        -3.2119    8.8843   -0.8032 H         1 <0>         0.4135
     32 N4          0.9056    3.4039    0.0117 N.pl3     1 <0>        -0.4975
     33 H13         1.6005    4.1597    0.0091 H         1 <0>         0.4828
@<TRIPOS>BOND
     1    1    2 1
     2    1   21 1
     3    1   22 1
     4    1   23 1
     5    2    8 am
     6    2    3 1
     7    3    4 2
     8    3   32 1
     9    4    5 1
    10    4   11 1
    11    5    6 2
    12    5    7 am
    13    7    8 am
    14    7   10 1
    15    8    9 2
    16   10   24 1
    17   10   25 1
    18   10   26 1
    19   11   12 1
    20   11   13 1
    21   13   14 1
    22   13   32 2
    23   14   19 ar
    24   14   15 ar
    25   15   16 ar
    26   15   27 1
    27   16   17 ar
    28   16   28 1
    29   17   18 ar
    30   17   20 1
    31   18   19 ar
    32   18   29 1
    33   19   30 1
    34   20   31 1
    35   32   33 1
@<TRIPOS>MOLECULE
ZINC28763883
   60    62     0     0     0
SMALL
USER_CHARGES

@<TRIPOS>ATOM
      1 C1         -0.0187    1.5258    0.0104 C.3       1 <0>        -0.1471
      2 C2          0.0021   -0.0041    0.0020 C.3       1 <0>        -0.1387
      3 C3          0.7421   -0.5109    1.2415 C.3       1 <0>         0.1191
      4 N1          0.7619   -1.9757    1.2335 N.am      1 <0>        -0.5089
      5 C4         -0.2660   -2.6852    1.8352 C.2       1 <0>         0.3304
      6 C5         -0.2227   -4.0758    1.8133 C.2       1 <0>        -0.1422
      7 C6          0.8615   -4.7197    1.1820 C.2       1 <0>         0.5924
      8 O1          0.9214   -5.9360    1.1495 O.2       1 <0>        -0.5083
      9 N2          1.8315   -3.9736    0.6140 N.am      1 <0>        -0.5477
     10 C7          1.7755   -2.6309    0.6370 C.2       1 <0>         0.7072
     11 O2          2.6654   -1.9916    0.1098 O.2       1 <0>        -0.5249
     12 C8          2.9605   -4.6372   -0.0428 C.3       1 <0>         0.1129
     13 C9          2.6266   -4.8717   -1.5174 C.3       1 <0>        -0.1374
     14 C10         3.8056   -5.5648   -2.2033 C.3       1 <0>        -0.1480
     15 N3         -1.3547   -4.5134    2.4751 N.pl3     1 <0>        -0.5145
     16 H1         -1.6145   -5.4351    2.6295 H         1 <0>         0.4367
     17 C11        -2.0346   -3.4010    2.8692 C.2       1 <0>         0.3401
     18 N4         -1.3747   -2.3269    2.4814 N.2       1 <0>        -0.4837
     19 C12        -3.3101   -3.3980    3.6137 C.ar      1 <0>        -0.0657
     20 C13        -3.9128   -4.6051    3.9751 C.ar      1 <0>        -0.0542
     21 C14        -5.1027   -4.5980    4.6695 C.ar      1 <0>        -0.1387
     22 C15        -5.7034   -3.3923    5.0099 C.ar      1 <0>         0.1457
     23 C16        -5.1073   -2.1895    4.6519 C.ar      1 <0>        -0.2098
     24 C17        -3.9140   -2.1879    3.9633 C.ar      1 <0>        -0.0207
     25 O3         -6.8764   -3.3895    5.6940 O.3       1 <0>        -0.2870
     26 C18        -7.4391   -2.1150    6.0117 C.3       1 <0>         0.0400
     27 C19        -8.7293   -2.3094    6.7658 C.2       1 <0>         0.5236
     28 O4         -9.1277   -3.4291    7.0073 O.2       1 <0>        -0.4949
     29 N5         -9.4404   -1.2389    7.1718 N.am      1 <0>        -0.7330
     30 C20       -10.6947   -1.4279    7.9048 C.3       1 <0>         0.0930
     31 C21       -11.2971   -0.0632    8.2450 C.3       1 <0>        -0.0193
     32 N6        -12.5548   -0.2527    8.9800 N.4       1 <0>        -0.6320
     33 H2          1.0039    1.9031    0.0027 H         1 <0>         0.0600
     34 H3         -0.5459    1.8868   -0.8726 H         1 <0>         0.0609
     35 H4         -0.5289    1.8773    0.9072 H         1 <0>         0.0576
     36 H5         -1.0205   -0.3814    0.0098 H         1 <0>         0.0670
     37 H6          0.5123   -0.3556   -0.8948 H         1 <0>         0.0690
     38 H7          1.7647   -0.1336    1.2338 H         1 <0>         0.1016
     39 H8          0.2319   -0.1594    2.1383 H         1 <0>         0.0980
     40 H9          3.8466   -4.0071    0.0334 H         1 <0>         0.1045
     41 H10         3.1521   -5.5940    0.4430 H         1 <0>         0.1025
     42 H11         1.7404   -5.5018   -1.5935 H         1 <0>         0.0669
     43 H12         2.4349   -3.9149   -2.0031 H         1 <0>         0.0692
     44 H13         3.5678   -5.7318   -3.2538 H         1 <0>         0.0622
     45 H14         4.6918   -4.9347   -2.1271 H         1 <0>         0.0604
     46 H15         3.9973   -6.5215   -1.7175 H         1 <0>         0.0594
     47 H16        -3.4469   -5.5427    3.7102 H         1 <0>         0.1344
     48 H17        -5.5694   -5.5309    4.9493 H         1 <0>         0.1444
     49 H18        -5.5777   -1.2543    4.9178 H         1 <0>         0.1367
     50 H19        -3.4487   -1.2525    3.6898 H         1 <0>         0.1478
     51 H20        -6.7387   -1.5523    6.6290 H         1 <0>         0.1028
     52 H21        -7.6354   -1.5649    5.0914 H         1 <0>         0.1028
     53 H22        -9.1218   -0.3433    6.9786 H         1 <0>         0.4114
     54 H23       -11.3950   -1.9906    7.2875 H         1 <0>         0.0931
     55 H24       -10.4983   -1.9780    8.8251 H         1 <0>         0.0931
     56 H25       -10.5968    0.4994    8.8622 H         1 <0>         0.1426
     57 H26       -11.4935    0.4868    7.3247 H         1 <0>         0.1426
     58 H27       -13.2031   -0.7736    8.4086 H         1 <0>         0.4398
     59 H28       -12.3731   -0.7620    9.8319 H         1 <0>         0.4398
     60 H29       -12.9521    0.6472    9.2044 H         1 <0>         0.4453
@<TRIPOS>BOND
     1    1    2 1
     2    1   33 1
     3    1   34 1
     4    1   35 1
     5    2    3 1
     6    2   36 1
     7    2   37 1
     8    3    4 1
     9    3   38 1
    10    3   39 1
    11    4   10 am
    12    4    5 1
    13    5   18 1
    14    5    6 2
    15    6    7 1
    16    6   15 1
    17    7    8 2
    18    7    9 am
    19    9   10 am
    20    9   12 1
    21   10   11 2
    22   12   13 1
    23   12   40 1
    24   12   41 1
    25   13   14 1
    26   13   42 1
    27   13   43 1
    28   14   44 1
    29   14   45 1
    30   14   46 1
    31   15   16 1
    32   15   17 1
    33   17   18 2
    34   17   19 1
    35   19   24 ar
    36   19   20 ar
    37   20   21 ar
    38   20   47 1
    39   21   22 ar
    40   21   48 1
    41   22   23 ar
    42   22   25 1
    43   23   24 ar
    44   23   49 1
    45   24   50 1
    46   25   26 1
    47   26   27 1
    48   26   51 1
    49   26   52 1
    50   27   28 2
    51   27   29 am
    52   29   30 1
    53   29   53 1
    54   30   31 1
    55   30   54 1
    56   30   55 1
    57   31   32 1
    58   31   56 1
    59   31   57 1
    60   32   58 1
    61   32   59 1
    62   32   60 1
@<TRIPOS>MOLECULE
ZINC02516057
   36    37     0     0     0
SMALL
USER_CHARGES

@<TRIPOS>ATOM
      1 C1         -0.0187    1.5258    0.0104 C.3       1 <0>        -0.1474
      2 C2          0.0021   -0.0041    0.0020 C.3       1 <0>        -0.1381
      3 C3          0.7182   -0.4975   -1.2568 C.3       1 <0>         0.1194
      4 N1          0.7381   -1.9623   -1.2648 N.am      1 <0>        -0.5083
      5 C4          1.7899   -2.6430   -0.6733 C.2       1 <0>         0.3194
      6 C5          1.7858   -4.0321   -0.6940 C.2       1 <0>        -0.1571
      7 C6          0.7133   -4.7075   -1.3154 C.2       1 <0>         0.5952
      8 O1          0.6868   -5.9248   -1.3462 O.2       1 <0>        -0.5130
      9 N2         -0.2825   -3.9887   -1.8744 N.am      1 <0>        -0.5494
     10 C7         -0.2685   -2.6450   -1.8422 C.2       1 <0>         0.7072
     11 O2         -1.1858   -2.0304   -2.3516 O.2       1 <0>        -0.5303
     12 C8         -1.3986   -4.6834   -2.5209 C.3       1 <0>         0.1141
     13 C9         -2.5024   -4.9418   -1.4933 C.3       1 <0>        -0.1375
     14 C10        -3.6680   -5.6673   -2.1685 C.3       1 <0>        -0.1473
     15 N3          2.9356   -4.4316   -0.0428 N.pl3     1 <0>        -0.4127
     16 C11         3.5803   -3.3122    0.3401 C.2       1 <0>         0.2667
     17 N4          2.8987   -2.2600   -0.0352 N.2       1 <0>        -0.4981
     18 C12         3.3717   -5.8109    0.1887 C.3       1 <0>         0.0688
     19 H1          1.0039    1.9031    0.0027 H         1 <0>         0.0590
     20 H2         -0.5459    1.8868   -0.8726 H         1 <0>         0.0589
     21 H3         -0.5289    1.8773    0.9072 H         1 <0>         0.0606
     22 H4          0.5293   -0.3651    0.8851 H         1 <0>         0.0677
     23 H5         -1.0205   -0.3814    0.0098 H         1 <0>         0.0674
     24 H6          0.1910   -0.1364   -2.1398 H         1 <0>         0.0998
     25 H7          1.7408   -0.1202   -1.2645 H         1 <0>         0.0985
     26 H8         -1.7917   -4.0663   -3.3288 H         1 <0>         0.1029
     27 H9         -1.0497   -5.6333   -2.9260 H         1 <0>         0.1012
     28 H10        -2.1094   -5.5590   -0.6854 H         1 <0>         0.0667
     29 H11        -2.8513   -3.9920   -1.0882 H         1 <0>         0.0690
     30 H12        -4.4543   -5.8514   -1.4364 H         1 <0>         0.0614
     31 H13        -4.0610   -5.0502   -2.9764 H         1 <0>         0.0599
     32 H14        -3.3191   -6.6172   -2.5735 H         1 <0>         0.0588
     33 H15         4.5175   -3.2871    0.8762 H         1 <0>         0.2308
     34 H16         3.9892   -6.1417   -0.6463 H         1 <0>         0.0875
     35 H17         3.9513   -5.8588    1.1106 H         1 <0>         0.0981
     36 H18         2.4990   -6.4583    0.2742 H         1 <0>         0.1001
@<TRIPOS>BOND
     1    1    2 1
     2    1   19 1
     3    1   20 1
     4    1   21 1
     5    2    3 1
     6    2   22 1
     7    2   23 1
     8    3    4 1
     9    3   24 1
    10    3   25 1
    11    4   10 am
    12    4    5 1
    13    5   17 1
    14    5    6 2
    15    6    7 1
    16    6   15 1
    17    7    8 2
    18    7    9 am
    19    9   10 am
    20    9   12 1
    21   10   11 2
    22   12   13 1
    23   12   26 1
    24   12   27 1
    25   13   14 1
    26   13   28 1
    27   13   29 1
    28   14   30 1
    29   14   31 1
    30   14   32 1
    31   15   16 1
    32   15   18 1
    33   16   17 2
    34   16   33 1
    35   18   34 1
    36   18   35 1
    37   18   36 1
@<TRIPOS>MOLECULE
ZINC00403567
   24    25     0     0     0
SMALL
USER_CHARGES

@<TRIPOS>ATOM
      1 C1         -0.0187    1.5258    0.0104 C.3       1 <0>        -0.1479
      2 C2          0.0021   -0.0041    0.0020 C.3       1 <0>        -0.1390
      3 C3          0.7182   -0.4975   -1.2568 C.3       1 <0>         0.1181
      4 N1          0.7381   -1.9623   -1.2648 N.am      1 <0>        -0.5070
      5 C4          1.7899   -2.6430   -0.6733 C.2       1 <0>         0.3246
      6 C5          1.7858   -4.0321   -0.6940 C.2       1 <0>        -0.1564
      7 C6          0.7133   -4.7075   -1.3154 C.2       1 <0>         0.5968
      8 O1          0.6868   -5.9248   -1.3462 O.2       1 <0>        -0.5132
      9 N2         -0.2825   -3.9887   -1.8744 N.am      1 <0>        -0.6511
     10 H1         -1.0215   -4.4487   -2.3024 H         1 <0>         0.4406
     11 C7         -0.2685   -2.6450   -1.8422 C.2       1 <0>         0.7099
     12 O2         -1.1858   -2.0304   -2.3516 O.2       1 <0>        -0.5303
     13 N3          2.9356   -4.4316   -0.0428 N.pl3     1 <0>        -0.5176
     14 H2          3.2248   -5.3448    0.1097 H         1 <0>         0.4390
     15 C8          3.5803   -3.3122    0.3401 C.2       1 <0>         0.2792
     16 N4          2.8987   -2.2600   -0.0352 N.2       1 <0>        -0.4986
     17 H3          1.0039    1.9031    0.0027 H         1 <0>         0.0593
     18 H4         -0.5459    1.8868   -0.8726 H         1 <0>         0.0592
     19 H5         -0.5289    1.8773    0.9072 H         1 <0>         0.0610
     20 H6          0.5293   -0.3651    0.8851 H         1 <0>         0.0684
     21 H7         -1.0205   -0.3814    0.0098 H         1 <0>         0.0683
     22 H8          0.1910   -0.1364   -2.1398 H         1 <0>         0.1012
     23 H9          1.7408   -0.1202   -1.2645 H         1 <0>         0.1001
     24 H10         4.5175   -3.2871    0.8762 H         1 <0>         0.2355
@<TRIPOS>BOND
     1    1    2 1
     2    1   17 1
     3    1   18 1
     4    1   19 1
     5    2    3 1
     6    2   20 1
     7    2   21 1
     8    3    4 1
     9    3   22 1
    10    3   23 1
    11    4   11 am
    12    4    5 1
    13    5   16 1
    14    5    6 2
    15    6    7 1
    16    6   13 1
    17    7    8 2
    18    7    9 am
    19    9   10 1
    20    9   11 am
    21   11   12 2
    22   13   14 1
    23   13   15 1
    24   15   16 2
    25   15   24 1
@<TRIPOS>MOLECULE
ZINC01652977
   40    42     0     0     0
SMALL
USER_CHARGES
8-cyclohexyl-1,3,7-trimethyl-purine-2,6-dione
@<TRIPOS>ATOM
      1 C1         -0.0178    1.4608    0.0101 C.3       1 <0>         0.0661
      2 N1          0.0021   -0.0041    0.0020 N.pl3     1 <0>        -0.4081
      3 C2         -0.0034   -0.8194   -1.1120 C.2       1 <0>        -0.1572
      4 C3          0.0241   -2.1251   -0.6384 C.2       1 <0>         0.3192
      5 N2          0.0362   -2.0620    0.6956 N.2       1 <0>        -0.4880
      6 C4          0.0233   -0.8113    1.0805 C.2       1 <0>         0.2954
      7 C5          0.0305   -0.3446    2.5134 C.3       1 <0>        -0.0064
      8 C6          1.2935   -0.8553    3.2098 C.3       1 <0>        -0.1078
      9 C7          1.3008   -0.3815    4.6645 C.3       1 <0>        -0.1187
     10 C8          0.0657   -0.9262    5.3846 C.3       1 <0>        -0.1234
     11 C9         -1.1973   -0.4155    4.6882 C.3       1 <0>        -0.1187
     12 C10        -1.2046   -0.8893    3.2335 C.3       1 <0>        -0.1085
     13 N3          0.0291   -3.1675   -1.5510 N.am      1 <0>        -0.5098
     14 C11         0.0128   -2.9085   -2.8721 C.2       1 <0>         0.7075
     15 O1          0.0179   -3.8363   -3.6581 O.2       1 <0>        -0.5337
     16 N4         -0.0086   -1.6501   -3.3443 N.am      1 <0>        -0.5521
     17 C12        -0.0149   -0.5933   -2.5053 C.2       1 <0>         0.5951
     18 O2         -0.0350    0.5423   -2.9451 O.2       1 <0>        -0.5126
     19 C13        -0.0257   -1.4227   -4.7914 C.3       1 <0>         0.0828
     20 C14         0.0516   -4.5538   -1.0777 C.3       1 <0>         0.0895
     21 H1          1.0048    1.8381    0.0023 H         1 <0>         0.0880
     22 H2         -0.5450    1.8219   -0.8730 H         1 <0>         0.1026
     23 H3         -0.5280    1.8123    0.9069 H         1 <0>         0.0960
     24 H4          0.0160    0.7450    2.5407 H         1 <0>         0.0929
     25 H5          1.3081   -1.9449    3.1825 H         1 <0>         0.0798
     26 H6          2.1734   -0.4673    2.6968 H         1 <0>         0.0641
     27 H7          1.2863    0.7081    4.6918 H         1 <0>         0.0635
     28 H8          2.2006   -0.7454    5.1606 H         1 <0>         0.0687
     29 H9          0.0709   -0.5887    6.4210 H         1 <0>         0.0646
     30 H10         0.0802   -2.0158    5.3573 H         1 <0>         0.0660
     31 H11        -1.2119    0.6741    4.7155 H         1 <0>         0.0634
     32 H12        -2.0773   -0.8036    5.2012 H         1 <0>         0.0688
     33 H13        -2.1044   -0.5254    2.7374 H         1 <0>         0.0640
     34 H14        -1.1901   -1.9789    3.2062 H         1 <0>         0.0800
     35 H15        -0.0180   -2.3814   -5.3100 H         1 <0>         0.1058
     36 H16        -0.9257   -0.8706   -5.0618 H         1 <0>         0.0813
     37 H17         0.8540   -0.8469   -5.0791 H         1 <0>         0.0813
     38 H18        -0.9703   -4.9110   -0.9506 H         1 <0>         0.0732
     39 H19         0.5668   -5.1785   -1.8074 H         1 <0>         0.0934
     40 H20         0.5752   -4.6033   -0.1230 H         1 <0>         0.0919
@<TRIPOS>BOND
     1    1    2 1
     2    1   21 1
     3    1   22 1
     4    1   23 1
     5    2    6 1
     6    2    3 1
     7    3   17 1
     8    3    4 2
     9    4    5 1
    10    4   13 1
    11    5    6 2
    12    6    7 1
    13    7   12 1
    14    7    8 1
    15    7   24 1
    16    8    9 1
    17    8   25 1
    18    8   26 1
    19    9   10 1
    20    9   27 1
    21    9   28 1
    22   10   11 1
    23   10   29 1
    24   10   30 1
    25   11   12 1
    26   11   31 1
    27   11   32 1
    28   12   33 1
    29   12   34 1
    30   13   14 am
    31   13   20 1
    32   14   15 2
    33   14   16 am
    34   16   17 am
    35   16   19 1
    36   17   18 2
    37   19   35 1
    38   19   36 1
    39   19   37 1
    40   20   38 1
    41   20   39 1
    42   20   40 1
@<TRIPOS>MOLECULE
ZINC01764195
   26    27     0     0     0
SMALL
USER_CHARGES

@<TRIPOS>ATOM
      1 C1         -0.0178    1.4608    0.0101 C.3       1 <0>         0.0681
      2 N1          0.0021   -0.0041    0.0020 N.pl3     1 <0>        -0.4120
      3 C2          0.0085   -0.7996   -1.0853 C.2       1 <0>         0.2689
      4 N2          0.0275   -2.0544   -0.7142 N.2       1 <0>        -0.4986
      5 C3          0.0343   -2.1318    0.6190 C.2       1 <0>         0.3186
      6 C4          0.0238   -0.8312    1.1071 C.2       1 <0>        -0.1556
      7 C5          0.0338   -0.6202    2.5028 C.2       1 <0>         0.5974
      8 O1          0.0219    0.5106    2.9550 O.2       1 <0>        -0.5085
      9 N3          0.0564   -1.6860    3.3300 N.am      1 <0>        -0.5489
     10 C6          0.0693   -2.9392    2.8440 C.2       1 <0>         0.7091
     11 O2          0.0891   -3.8755    3.6197 O.2       1 <0>        -0.5278
     12 N4          0.0527   -3.1841    1.5201 N.am      1 <0>        -0.5102
     13 C7          0.0693   -4.5651    1.0316 C.3       1 <0>         0.0890
     14 C8          0.0674   -1.4741    4.7795 C.3       1 <0>         0.2303
     15 C9         -1.3166   -1.4222    5.2783 C.1       1 <0>        -0.2169
     16 C10        -2.4204   -1.3807    5.6761 C.1       1 <0>        -0.1582
     17 H1          1.0048    1.8381    0.0023 H         1 <0>         0.0884
     18 H2         -0.5450    1.8219   -0.8730 H         1 <0>         0.0988
     19 H3         -0.5280    1.8123    0.9069 H         1 <0>         0.1005
     20 H4         -0.0012   -0.4540   -2.1085 H         1 <0>         0.2321
     21 H5          1.1010   -4.8936    0.9058 H         1 <0>         0.0741
     22 H6         -0.4324   -5.2114    1.7518 H         1 <0>         0.0935
     23 H7         -0.4482   -4.6180    0.0738 H         1 <0>         0.0928
     24 H8          0.5971   -2.2951    5.2627 H         1 <0>         0.1270
     25 H9          0.5705   -0.5340    5.0055 H         1 <0>         0.1254
     26 H10        -3.4075   -1.3437    6.0319 H         1 <0>         0.2227
@<TRIPOS>BOND
     1    1    2 1
     2    1   17 1
     3    1   18 1
     4    1   19 1
     5    2    6 1
     6    2    3 1
     7    3    4 2
     8    3   20 1
     9    4    5 1
    10    5   12 1
    11    5    6 2
    12    6    7 1
    13    7    8 2
    14    7    9 am
    15    9   10 am
    16    9   14 1
    17   10   11 2
    18   10   12 am
    19   12   13 1
    20   13   21 1
    21   13   22 1
    22   13   23 1
    23   14   15 1
    24   14   24 1
    25   14   25 1
    26   15   16 3
    27   16   26 1
@<TRIPOS>MOLECULE
ZINC13472986
   25    27     0     0     0
SMALL
USER_CHARGES
8-phenyl-3,7-dihydropurine-2,6-dione
@<TRIPOS>ATOM
      1 C1          2.3964    0.0337   -0.0206 C.ar      1 <0>        -0.0951
      2 C2          1.2077   -0.6744   -0.0131 C.ar      1 <0>        -0.1189
      3 C3          0.0021   -0.0041    0.0020 C.ar      1 <0>        -0.0636
      4 C4         -0.0169    1.3916    0.0097 C.ar      1 <0>        -0.0405
      5 C5          1.1859    2.0998    0.0020 C.ar      1 <0>        -0.0976
      6 C6          2.3847    1.4172   -0.0131 C.ar      1 <0>        -0.1168
      7 C7         -1.3052    2.1165    0.0198 C.2       1 <0>         0.3450
      8 N1         -1.4470    3.4705    0.0332 N.pl3     1 <0>        -0.5164
      9 H1         -0.7107    4.1471    0.0393 H         1 <0>         0.4443
     10 C8         -2.8038    3.7298    0.0367 C.2       1 <0>        -0.1450
     11 C9         -3.4415    2.4933    0.0331 C.2       1 <0>         0.3254
     12 N2         -2.4971    1.5534    0.0228 N.2       1 <0>        -0.4848
     13 N3         -4.8274    2.4568    0.0405 N.am      1 <0>        -0.6138
     14 H2         -5.3036    1.5775    0.0380 H         1 <0>         0.4476
     15 C10        -5.5331    3.6032    0.0511 C.2       1 <0>         0.7176
     16 O1         -6.7479    3.5510    0.0575 O.2       1 <0>        -0.5325
     17 N4         -4.9292    4.8040    0.0547 N.am      1 <0>        -0.6533
     18 H3         -5.4856    5.6349    0.0626 H         1 <0>         0.4491
     19 C11        -3.5839    4.9055    0.0478 C.2       1 <0>         0.5980
     20 O2         -3.0488    5.9998    0.0516 O.2       1 <0>        -0.5109
     21 H4          3.3376   -0.4959   -0.0321 H         1 <0>         0.1307
     22 H5          1.2238   -1.7543   -0.0194 H         1 <0>         0.1343
     23 H6         -0.9251   -0.5579    0.0083 H         1 <0>         0.1418
     24 H7          1.1781    3.1798    0.0075 H         1 <0>         0.1229
     25 H8          3.3160    1.9640   -0.0187 H         1 <0>         0.1328
@<TRIPOS>BOND
     1    1    6 ar
     2    1    2 ar
     3    1   21 1
     4    2    3 ar
     5    2   22 1
     6    3    4 ar
     7    3   23 1
     8    4    5 ar
     9    4    7 1
    10    5    6 ar
    11    5   24 1
    12    6   25 1
    13    7   12 2
    14    7    8 1
    15    8    9 1
    16    8   10 1
    17   10   19 1
    18   10   11 2
    19   11   12 1
    20   11   13 1
    21   13   14 1
    22   13   15 am
    23   15   16 2
    24   15   17 am
    25   17   18 1
    26   17   19 am
    27   19   20 2
@<TRIPOS>MOLECULE
ZINC13472986
   26    28     0     0     0
SMALL
USER_CHARGES
8-phenyl-3,7-dihydropurine-2,6-dione
@<TRIPOS>ATOM
      1 C1          2.3964    0.0337   -0.0206 C.ar      1 <0>        -0.0537
      2 C2          1.2077   -0.6744   -0.0131 C.ar      1 <0>        -0.1071
      3 C3          0.0021   -0.0041    0.0020 C.ar      1 <0>        -0.0670
      4 C4         -0.0169    1.3916    0.0097 C.ar      1 <0>        -0.1055
      5 C5          1.1859    2.0998    0.0020 C.ar      1 <0>        -0.0632
      6 C6          2.3847    1.4172   -0.0131 C.ar      1 <0>        -0.1064
      7 C7         -1.3052    2.1165    0.0198 C.cat     1 <0>         0.4468
      8 N1         -1.4470    3.4705    0.0332 N.pl3     1 <0>        -0.4623
      9 H1         -0.7107    4.1471    0.0393 H         1 <0>         0.4837
     10 C8         -2.8038    3.7298    0.0367 C.2       1 <0>        -0.0691
     11 C9         -3.4415    2.4933    0.0331 C.2       1 <0>         0.3569
     12 N2         -4.8274    2.4568    0.0405 N.am      1 <0>        -0.6144
     13 H2         -5.3036    1.5775    0.0380 H         1 <0>         0.4599
     14 C10        -5.5331    3.6032    0.0511 C.2       1 <0>         0.7191
     15 O1         -6.7479    3.5510    0.0575 O.2       1 <0>        -0.4805
     16 N3         -4.9292    4.8040    0.0547 N.am      1 <0>        -0.6432
     17 H3         -5.4856    5.6349    0.0626 H         1 <0>         0.4661
     18 C11        -3.5839    4.9055    0.0478 C.2       1 <0>         0.5940
     19 O2         -3.0488    5.9998    0.0516 O.2       1 <0>        -0.4615
     20 H4          3.3376   -0.4959   -0.0321 H         1 <0>         0.1479
     21 H5          1.2238   -1.7543   -0.0194 H         1 <0>         0.1500
     22 H6         -0.9251   -0.5579    0.0083 H         1 <0>         0.1347
     23 H7          1.1781    3.1798    0.0075 H         1 <0>         0.1366
     24 H8          3.3160    1.9640   -0.0187 H         1 <0>         0.1505
     25 N4         -2.4975    1.5511    0.0228 N.pl3     1 <0>        -0.4972
     26 H9         -2.6721    0.5392    0.0179 H         1 <0>         0.4851
@<TRIPOS>BOND
     1    1    6 ar
     2    1    2 ar
     3    1   20 1
     4    2    3 ar
     5    2   21 1
     6    3    4 ar
     7    3   22 1
     8    4    5 ar
     9    4    7 1
    10    5    6 ar
    11    5   23 1
    12    6   24 1
    13    7    8 1
    14    7   25 2
    15    8    9 1
    16    8   10 1
    17   10   18 1
    18   10   11 2
    19   11   12 1
    20   11   25 1
    21   12   13 1
    22   12   14 am
    23   14   15 2
    24   14   16 am
    25   16   17 1
    26   16   18 am
    27   18   19 2
    28   25   26 1
@<TRIPOS>MOLECULE
ZINC04770328
   27    28     0     0     0
SMALL
USER_CHARGES
1-methyl-3-propyl-7H-purine-2,6-dione
@<TRIPOS>ATOM
      1 C1          4.8600    4.3313   -1.4654 C.3       1 <0>        -0.1491
      2 C2          3.3301    4.3321   -1.4508 C.3       1 <0>        -0.1388
      3 C3          2.8338    4.3259   -0.0036 C.3       1 <0>         0.1166
      4 N1          1.3689    4.3267    0.0104 N.am      1 <0>        -0.5078
      5 C4          0.6765    3.1266    0.0116 C.2       1 <0>         0.3174
      6 C5         -0.7124    3.1538    0.0245 C.2       1 <0>        -0.1644
      7 C6         -1.3758    4.3997    0.0354 C.2       1 <0>         0.5940
      8 O1         -2.5927    4.4497    0.0460 O.2       1 <0>        -0.5146
      9 N2         -0.6460    5.5347    0.0341 N.am      1 <0>        -0.5517
     10 C7          0.6974    5.4937    0.0215 C.2       1 <0>         0.7069
     11 O2          1.3222    6.5369    0.0207 O.2       1 <0>        -0.5328
     12 C8         -1.3282    6.8311    0.0459 C.3       1 <0>         0.0781
     13 N3         -1.1247    1.8363    0.0168 N.pl3     1 <0>        -0.5308
     14 H1         -2.1981    1.5959    0.0186 H         1 <0>         0.4707
     15 C9         -0.0126    1.0758    0.0080 C.2       1 <0>         0.2856
     16 N4          1.0472    1.8436    0.0020 N.2       1 <0>        -0.5016
     17 H2          5.2167    4.3358   -2.5059 H         1 <0>         0.0612
     18 H3          5.2311    3.4306   -0.9544 H         1 <0>         0.0596
     19 H4          5.2321    5.2269   -0.9464 H         1 <0>         0.0595
     20 H5          2.9590    5.2328   -1.9618 H         1 <0>         0.0681
     21 H6          2.9580    3.4365   -1.9699 H         1 <0>         0.0681
     22 H7          3.2048    3.4252    0.5074 H         1 <0>         0.0999
     23 H8          3.2059    5.2215    0.5155 H         1 <0>         0.1011
     24 H9         -0.5812    7.6385    0.0430 H         1 <0>         0.1073
     25 H10        -1.9499    6.9100    0.9499 H         1 <0>         0.0826
     26 H11        -1.9657    6.9181   -0.8463 H         1 <0>         0.0825
     27 H12         0.0021   -0.0041    0.0020 H         1 <0>         0.2323
@<TRIPOS>BOND
     1    1    2 1
     2    1   17 1
     3    1   18 1
     4    1   19 1
     5    2    3 1
     6    2   20 1
     7    2   21 1
     8    3    4 1
     9    3   22 1
    10    3   23 1
    11    4   10 am
    12    4    5 1
    13    5   16 1
    14    5    6 2
    15    6    7 1
    16    6   13 1
    17    7    8 2
    18    7    9 am
    19    9   10 am
    20    9   12 1
    21   10   11 2
    22   12   24 1
    23   12   25 1
    24   12   26 1
    25   13   14 1
    26   13   15 1
    27   15   16 2
    28   15   27 1
@<TRIPOS>MOLECULE
ZINC01683110
   35    37     0     0     0
SMALL
USER_CHARGES

@<TRIPOS>ATOM
      1 C1         -0.0178    1.4608    0.0101 C.3       1 <0>         0.0858
      2 N1          0.0021   -0.0041    0.0020 N.am      1 <0>        -0.7307
      3 C2          0.5851   -0.6645   -1.0180 C.2       1 <0>         0.5150
      4 O1          1.0933   -0.0461   -1.9292 O.2       1 <0>        -0.5025
      5 C3          0.6055   -2.1713   -1.0263 C.3       1 <0>         0.0318
      6 H1         -0.4062   -2.5682   -0.9422 H         1 <0>         0.1226
      7 C4          1.5005   -2.7114    0.1182 C.3       1 <0>         0.0507
      8 H2          2.3775   -2.0793    0.2574 H         1 <0>         0.0950
      9 C5          1.9044   -4.1068   -0.4169 C.3       1 <0>         0.0831
     10 H3          2.9518   -4.3118   -0.1954 H         1 <0>         0.0900
     11 C6          1.6847   -4.0058   -1.9388 C.3       1 <0>         0.3141
     12 H4          0.9189   -4.7160   -2.2506 H         1 <0>         0.1319
     13 O2          1.2474   -2.6645   -2.2218 O.3       1 <0>        -0.3270
     14 N2          2.9388   -4.2849   -2.6427 N.pl3     1 <0>        -0.4754
     15 C7          3.8437   -3.3616   -3.0753 C.2       1 <0>         0.2663
     16 N3          4.8419   -3.9575   -3.6601 N.2       1 <0>        -0.4588
     17 C8          4.6419   -5.2972   -3.6401 C.ar      1 <0>        -0.1080
     18 C9          3.4209   -5.5237   -2.9822 C.ar      1 <0>         0.3101
     19 N4          2.9940   -6.7723   -2.8248 N.ar      1 <0>        -0.5540
     20 C10         3.7034   -7.7857   -3.2750 C.ar      1 <0>         0.3667
     21 N5          4.8573   -7.6228   -3.8960 N.ar      1 <0>        -0.5907
     22 C11         5.3602   -6.4108   -4.1073 C.ar      1 <0>         0.5098
     23 N6          6.5708   -6.2501   -4.7583 N.pl3     1 <0>        -0.8163
     24 O3          1.0679   -5.1196    0.1458 O.3       1 <0>        -0.5315
     25 O4          0.7592   -2.8258    1.3345 O.3       1 <0>        -0.5363
     26 H5          1.0048    1.8381    0.0023 H         1 <0>         0.0653
     27 H6         -0.5450    1.8219   -0.8730 H         1 <0>         0.0657
     28 H7         -0.5280    1.8123    0.9069 H         1 <0>         0.0830
     29 H8         -0.4044   -0.4986    0.7308 H         1 <0>         0.3997
     30 H9          3.7463   -2.2932   -2.9513 H         1 <0>         0.2250
     31 H10         3.3278   -8.7880   -3.1306 H         1 <0>         0.2070
     32 H11         6.9329   -5.3609   -4.8966 H         1 <0>         0.4196
     33 H12         7.0573   -7.0267   -5.0762 H         1 <0>         0.4114
     34 H13         1.1247   -5.1864    1.1088 H         1 <0>         0.3970
     35 H14         0.4078   -1.9863    1.6614 H         1 <0>         0.3845
@<TRIPOS>BOND
     1    1    2 1
     2    1   26 1
     3    1   27 1
     4    1   28 1
     5    2    3 am
     6    2   29 1
     7    3    4 2
     8    3    5 1
     9    5    6 1
    10    5   13 1
    11    5    7 1
    12    7    8 1
    13    7    9 1
    14    7   25 1
    15    9   10 1
    16    9   11 1
    17    9   24 1
    18   11   12 1
    19   11   13 1
    20   11   14 1
    21   14   18 1
    22   14   15 1
    23   15   16 2
    24   15   30 1
    25   16   17 1
    26   17   22 ar
    27   17   18 ar
    28   18   19 ar
    29   19   20 ar
    30   20   21 ar
    31   20   31 1
    32   21   22 ar
    33   22   23 1
    34   23   32 1
    35   23   33 1
    36   24   34 1
    37   25   35 1
@<TRIPOS>MOLECULE
ZINC00602413
   52    56     0     0     0
SMALL
USER_CHARGES

@<TRIPOS>ATOM
      1 C1         11.4272   -4.1581   -1.9284 C.3       1 <0>        -0.1511
      2 C2          9.9019   -4.2511   -1.8528 C.3       1 <0>        -0.1389
      3 C3          9.5043   -5.1999   -0.7203 C.3       1 <0>         0.1262
      4 N1          8.0438   -5.2890   -0.6480 N.pl3     1 <0>        -0.3354
      5 C4          7.3347   -6.4300   -0.7012 C.2       1 <0>         0.1585
      6 C5          6.0069   -6.1031   -0.6031 C.2       1 <0>        -0.2680
      7 C6          5.9380   -4.6381   -0.4817 C.2       1 <0>         0.3020
      8 N2          7.1760   -4.1989   -0.5135 N.2       1 <0>        -0.2468
      9 N3          4.7154   -4.0553   -0.3684 N.2       1 <0>        -0.4410
     10 C7          3.6159   -4.7560   -0.3648 C.2       1 <0>         0.6667
     11 N4          3.5823   -6.1207   -0.4669 N.pl3     1 <0>        -0.3745
     12 C8          4.7388   -6.8429   -0.5934 C.2       1 <0>         0.4133
     13 N5          4.4176   -8.1143   -0.6779 N.2       1 <0>        -0.5116
     14 C9          3.0857   -8.2474   -0.6161 C.2       1 <0>         0.3459
     15 N6          2.5365   -7.0552   -0.4905 N.2       1 <0>        -0.2932
     16 C10         2.3491   -9.5271   -0.6787 C.2       1 <0>         0.0431
     17 C11         0.9990   -9.6744   -0.6171 C.2       1 <0>        -0.1369
     18 C12         0.7366  -11.0554   -0.7136 C.2       1 <0>        -0.2192
     19 C13         1.9271  -11.6764   -0.8283 C.2       1 <0>        -0.0048
     20 O1          2.8986  -10.7496   -0.8127 O.3       1 <0>        -0.1531
     21 N7          2.4159   -4.0829   -0.2454 N.am      1 <0>        -0.6477
     22 C14         2.4047   -2.7396   -0.1370 C.2       1 <0>         0.7001
     23 O2          3.4508   -2.1204   -0.1443 O.2       1 <0>        -0.4865
     24 N8          1.2336   -2.0827   -0.0205 N.am      1 <0>        -0.6733
     25 C15         1.2132   -0.6815   -0.0199 C.ar      1 <0>         0.1228
     26 C16         2.1373    0.0268   -0.7761 C.ar      1 <0>        -0.0768
     27 C17         2.1164    1.4076   -0.7755 C.ar      1 <0>        -0.1295
     28 C18         1.1723    2.0869   -0.0195 C.ar      1 <0>         0.1161
     29 C19         0.2488    1.3798    0.7363 C.ar      1 <0>        -0.1888
     30 C20         0.2686   -0.0010    0.7366 C.ar      1 <0>        -0.1008
     31 O3          1.1525    3.4465   -0.0190 O.3       1 <0>        -0.3167
     32 C21         0.1533    4.0805    0.7821 C.3       1 <0>         0.0263
     33 H1         11.8154   -3.7785   -0.9832 H         1 <0>         0.0607
     34 H2         11.8425   -5.1474   -2.1206 H         1 <0>         0.0588
     35 H3         11.7105   -3.4822   -2.7352 H         1 <0>         0.0653
     36 H4          9.5138   -4.6307   -2.7980 H         1 <0>         0.0707
     37 H5          9.4867   -3.2618   -1.6606 H         1 <0>         0.0830
     38 H6          9.8924   -4.8203    0.2248 H         1 <0>         0.0988
     39 H7          9.9196   -6.1892   -0.9125 H         1 <0>         0.1084
     40 H8          7.7389   -7.4263   -0.8027 H         1 <0>         0.2006
     41 H9          0.2688   -8.8854   -0.5143 H         1 <0>         0.1604
     42 H10        -0.2348  -11.5271   -0.6983 H         1 <0>         0.1595
     43 H11         2.0749  -12.7421   -0.9219 H         1 <0>         0.2140
     44 H12         1.5812   -4.5770   -0.2396 H         1 <0>         0.4275
     45 H13         0.4049   -2.5799    0.0629 H         1 <0>         0.4095
     46 H14         2.8726   -0.5019   -1.3645 H         1 <0>         0.1445
     47 H15         2.8381    1.9588   -1.3601 H         1 <0>         0.1363
     48 H16        -0.4860    1.9093    1.3247 H         1 <0>         0.1334
     49 H17        -0.4508   -0.5514    1.3247 H         1 <0>         0.1299
     50 H18         0.2486    5.1626    0.6927 H         1 <0>         0.1007
     51 H19        -0.8351    3.7733    0.4405 H         1 <0>         0.0558
     52 H20         0.2843    3.7891    1.8243 H         1 <0>         0.0558
@<TRIPOS>BOND
     1    1    2 1
     2    1   33 1
     3    1   34 1
     4    1   35 1
     5    2    3 1
     6    2   36 1
     7    2   37 1
     8    3    4 1
     9    3   38 1
    10    3   39 1
    11    4    8 1
    12    4    5 1
    13    5    6 2
    14    5   40 1
    15    6   12 1
    16    6    7 1
    17    7    8 2
    18    7    9 1
    19    9   10 2
    20   10   11 1
    21   10   21 1
    22   11   15 1
    23   11   12 1
    24   12   13 2
    25   13   14 1
    26   14   15 2
    27   14   16 1
    28   16   20 1
    29   16   17 2
    30   17   18 1
    31   17   41 1
    32   18   19 2
    33   18   42 1
    34   19   20 1
    35   19   43 1
    36   21   22 am
    37   21   44 1
    38   22   23 2
    39   22   24 am
    40   24   25 1
    41   24   45 1
    42   25   30 ar
    43   25   26 ar
    44   26   27 ar
    45   26   46 1
    46   27   28 ar
    47   27   47 1
    48   28   29 ar
    49   28   31 1
    50   29   30 ar
    51   29   48 1
    52   30   49 1
    53   31   32 1
    54   32   50 1
    55   32   51 1
    56   32   52 1
@<TRIPOS>MOLECULE
ZINC13832607
   55    58     0     0     0
SMALL
USER_CHARGES
3-[2-(4-aminophenyl)ethyl]-8-cyclopentyl-1-propyl-7H-purine-2,6-dione
@<TRIPOS>ATOM
      1 C1         -0.0187    1.5258    0.0104 C.3       1 <0>        -0.1473
      2 C2          0.0021   -0.0041    0.0020 C.3       1 <0>        -0.1376
      3 C3         -1.4333   -0.5336    0.0129 C.3       1 <0>         0.1139
      4 N1         -1.4134   -1.9985    0.0048 N.am      1 <0>        -0.5487
      5 C4         -1.3932   -2.6693    1.1754 C.2       1 <0>         0.5940
      6 O1         -1.3914   -2.0640    2.2324 O.2       1 <0>        -0.5135
      7 C5         -1.3746   -4.0806    1.1608 C.2       1 <0>        -0.1549
      8 C6         -1.3776   -4.7450   -0.0593 C.2       1 <0>         0.3251
      9 N2         -1.3581   -6.0543    0.2029 N.2       1 <0>        -0.4906
     10 C7         -1.3433   -6.2471    1.4972 C.2       1 <0>         0.3071
     11 N3         -1.3526   -5.0597    2.1337 N.pl3     1 <0>        -0.5165
     12 H1         -1.3450   -4.9151    3.1232 H         1 <0>         0.4407
     13 C8         -1.3186   -7.5937    2.1734 C.3       1 <0>        -0.0163
     14 C9         -2.0939   -7.5304    3.5056 C.3       1 <0>        -0.1241
     15 C10        -1.2812   -8.4406    4.4608 C.3       1 <0>        -0.1244
     16 C11         0.1836   -8.1393    4.0575 C.3       1 <0>        -0.1287
     17 C12         0.1288   -7.9811    2.5239 C.3       1 <0>        -0.1170
     18 N4         -1.3988   -3.9992   -1.2268 N.am      1 <0>        -0.5074
     19 C13        -1.4212   -2.6542   -1.1685 C.2       1 <0>         0.7070
     20 O2         -1.4443   -2.0165   -2.2037 O.2       1 <0>        -0.5287
     21 C14        -1.4029   -4.6751   -2.5265 C.3       1 <0>         0.1255
     22 C15        -2.8466   -4.9291   -2.9647 C.3       1 <0>        -0.0834
     23 C16        -2.8508   -5.6244   -4.3017 C.ar      1 <0>        -0.1428
     24 C17        -2.8776   -4.8797   -5.4665 C.ar      1 <0>        -0.0608
     25 C18        -2.8758   -5.5136   -6.6935 C.ar      1 <0>        -0.1978
     26 C19        -2.8585   -6.9011   -6.7566 C.ar      1 <0>         0.2152
     27 C20        -2.8372   -7.6463   -5.5844 C.ar      1 <0>        -0.1982
     28 C21        -2.8335   -7.0059   -4.3609 C.ar      1 <0>        -0.0607
     29 N5         -2.8619   -7.5456   -7.9957 N.pl3     1 <0>        -0.8797
     30 H2          1.0039    1.9031    0.0027 H         1 <0>         0.0612
     31 H3         -0.5459    1.8868   -0.8726 H         1 <0>         0.0598
     32 H4         -0.5289    1.8773    0.9072 H         1 <0>         0.0587
     33 H5          0.5123   -0.3556   -0.8948 H         1 <0>         0.0693
     34 H6          0.5293   -0.3651    0.8851 H         1 <0>         0.0669
     35 H7         -1.9435   -0.1821    0.9097 H         1 <0>         0.1009
     36 H8         -1.9605   -0.1726   -0.8702 H         1 <0>         0.1034
     37 H9         -1.7591   -8.3472    1.5205 H         1 <0>         0.1172
     38 H10        -2.1203   -6.5083    3.8834 H         1 <0>         0.0624
     39 H11        -3.1049   -7.9169    3.3773 H         1 <0>         0.0821
     40 H12        -1.5208   -9.4901    4.2902 H         1 <0>         0.0759
     41 H13        -1.4597   -8.1666    5.5006 H         1 <0>         0.0735
     42 H14         0.8335   -8.9700    4.3323 H         1 <0>         0.0739
     43 H15         0.5255   -7.2155    4.5243 H         1 <0>         0.0665
     44 H16         0.3904   -8.9230    2.0418 H         1 <0>         0.0818
     45 H17         0.8133   -7.1951    2.2049 H         1 <0>         0.0684
     46 H18        -0.9044   -4.0466   -3.2645 H         1 <0>         0.1006
     47 H19        -0.8758   -5.6256   -2.4433 H         1 <0>         0.0994
     48 H20        -3.3450   -5.5576   -2.2267 H         1 <0>         0.0744
     49 H21        -3.3736   -3.9786   -3.0478 H         1 <0>         0.0744
     50 H22        -2.8959   -3.8010   -5.4167 H         1 <0>         0.1226
     51 H23        -2.8924   -4.9312   -7.6029 H         1 <0>         0.1194
     52 H24        -2.8241   -8.7253   -5.6299 H         1 <0>         0.1193
     53 H25        -2.8166   -7.5847   -3.4492 H         1 <0>         0.1226
     54 H26        -2.8494   -8.5146   -8.0385 H         1 <0>         0.3979
     55 H27        -2.8767   -7.0242   -8.8135 H         1 <0>         0.3980
@<TRIPOS>BOND
     1    1    2 1
     2    1   30 1
     3    1   31 1
     4    1   32 1
     5    2    3 1
     6    2   33 1
     7    2   34 1
     8    3    4 1
     9    3   35 1
    10    3   36 1
    11    4   19 am
    12    4    5 am
    13    5    6 2
    14    5    7 1
    15    7   11 1
    16    7    8 2
    17    8    9 1
    18    8   18 1
    19    9   10 2
    20   10   11 1
    21   10   13 1
    22   11   12 1
    23   13   17 1
    24   13   14 1
    25   13   37 1
    26   14   15 1
    27   14   38 1
    28   14   39 1
    29   15   16 1
    30   15   40 1
    31   15   41 1
    32   16   17 1
    33   16   42 1
    34   16   43 1
    35   17   44 1
    36   17   45 1
    37   18   19 am
    38   18   21 1
    39   19   20 2
    40   21   22 1
    41   21   46 1
    42   21   47 1
    43   22   23 1
    44   22   48 1
    45   22   49 1
    46   23   28 ar
    47   23   24 ar
    48   24   25 ar
    49   24   50 1
    50   25   26 ar
    51   25   51 1
    52   26   27 ar
    53   26   29 1
    54   27   28 ar
    55   27   52 1
    56   28   53 1
    57   29   54 1
    58   29   55 1
@<TRIPOS>MOLECULE
ZINC08581223
   37    39     0     0     0
SMALL
USER_CHARGES
8-cyclohexyl-1,3-dimethyl-7H-purine-2,6-dione
@<TRIPOS>ATOM
      1 C1          3.0658   -2.1400   -0.0391 C.3       1 <0>         0.0873
      2 N1          1.6616   -1.7224   -0.0235 N.am      1 <0>        -0.5100
      3 C2          1.3409   -0.3746   -0.0128 C.2       1 <0>         0.3177
      4 C3          0.0021   -0.0041    0.0020 C.2       1 <0>        -0.1631
      5 C4         -0.9895   -1.0086    0.0057 C.2       1 <0>         0.5945
      6 O1         -2.1700   -0.7090    0.0189 O.2       1 <0>        -0.5146
      7 N2         -0.6144   -2.3047   -0.0052 N.am      1 <0>        -0.5514
      8 C5          0.6848   -2.6490   -0.0190 C.2       1 <0>         0.7064
      9 O2          0.9856   -3.8272   -0.0282 O.2       1 <0>        -0.5327
     10 C6         -1.6385   -3.3523   -0.0015 C.3       1 <0>         0.0785
     11 N3         -0.0166    1.3763    0.0096 N.pl3     1 <0>        -0.5247
     12 H1         -0.9765    1.9133    0.0216 H         1 <0>         0.4665
     13 C7          1.2663    1.7875   -0.0004 C.2       1 <0>         0.3157
     14 N4          2.0626    0.7490   -0.0136 N.2       1 <0>        -0.4961
     15 C8          1.7164    3.2257    0.0030 C.3       1 <0>        -0.0088
     16 C9          0.7489    4.0608    0.8441 C.3       1 <0>        -0.1199
     17 C10         1.2058    5.5210    0.8476 C.3       1 <0>        -0.1185
     18 C11         1.2244    6.0530   -0.5868 C.3       1 <0>        -0.1250
     19 C12         2.1919    5.2179   -1.4279 C.3       1 <0>        -0.1196
     20 C13         1.7350    3.7577   -1.4314 C.3       1 <0>        -0.1122
     21 H2          3.7129   -1.2504   -0.0406 H         1 <0>         0.1004
     22 H3          3.2608   -2.7369   -0.9423 H         1 <0>         0.0800
     23 H4          3.2780   -2.7462    0.8539 H         1 <0>         0.0799
     24 H5         -1.1533   -4.3394   -0.0117 H         1 <0>         0.1073
     25 H6         -2.2740   -3.2469   -0.8931 H         1 <0>         0.0826
     26 H7         -2.2571   -3.2571    0.9031 H         1 <0>         0.0826
     27 H8          2.7271    3.2771    0.4341 H         1 <0>         0.1145
     28 H9         -0.2617    3.9938    0.4150 H         1 <0>         0.0644
     29 H10         0.7354    3.6783    1.8754 H         1 <0>         0.0721
     30 H11         0.5102    6.1214    1.4524 H         1 <0>         0.0694
     31 H12         2.2165    5.5880    1.2767 H         1 <0>         0.0692
     32 H13         0.2137    5.9860   -1.0158 H         1 <0>         0.0633
     33 H14         1.5528    7.1028   -0.5843 H         1 <0>         0.0669
     34 H15         2.2053    5.6004   -2.4592 H         1 <0>         0.0692
     35 H16         3.2026    5.2848   -0.9988 H         1 <0>         0.0687
     36 H17         2.4306    3.1573   -2.0361 H         1 <0>         0.0742
     37 H18         0.7243    3.6908   -1.8605 H         1 <0>         0.0654
@<TRIPOS>BOND
     1    1    2 1
     2    1   21 1
     3    1   22 1
     4    1   23 1
     5    2    8 am
     6    2    3 1
     7    3   14 1
     8    3    4 2
     9    4    5 1
    10    4   11 1
    11    5    6 2
    12    5    7 am
    13    7    8 am
    14    7   10 1
    15    8    9 2
    16   10   24 1
    17   10   25 1
    18   10   26 1
    19   11   12 1
    20   11   13 1
    21   13   14 2
    22   13   15 1
    23   15   20 1
    24   15   16 1
    25   15   27 1
    26   16   17 1
    27   16   28 1
    28   16   29 1
    29   17   18 1
    30   17   30 1
    31   17   31 1
    32   18   19 1
    33   18   32 1
    34   18   33 1
    35   19   20 1
    36   19   34 1
    37   19   35 1
    38   20   36 1
    39   20   37 1
@<TRIPOS>MOLECULE
ZINC03995486
   37    39     0     0     0
SMALL
USER_CHARGES
4-(2,6-dioxo-1-propyl-3,7-dihydropurin-8-yl)benzenesulfonic acid
@<TRIPOS>ATOM
      1 C1         -5.0003    6.4947   11.8999 C.3       1 <0>        -0.1465
      2 C2         -4.6211    5.5112   10.7909 C.3       1 <0>        -0.1391
      3 C3         -5.5281    5.7344    9.5792 C.3       1 <0>         0.1143
      4 N1         -5.1649    4.7927    8.5173 N.am      1 <0>        -0.5485
      5 C4         -4.2350    5.1458    7.6059 C.2       1 <0>         0.5959
      6 O1         -3.6997    6.2385    7.6636 O.2       1 <0>        -0.5110
      7 C5         -3.8876    4.2340    6.5865 C.2       1 <0>        -0.1489
      8 C6         -4.5149    2.9929    6.5448 C.2       1 <0>         0.3201
      9 N2         -5.4634    2.6914    7.5100 N.am      1 <0>        -0.6100
     10 H1         -5.9111    1.8309    7.4968 H         1 <0>         0.4389
     11 C7         -5.7639    3.5906    8.4656 C.2       1 <0>         0.7142
     12 O2         -6.5982    3.3079    9.3038 O.2       1 <0>        -0.5360
     13 N3         -4.0224    2.3280    5.5004 N.2       1 <0>        -0.4846
     14 C8         -3.1196    3.0658    4.8853 C.2       1 <0>         0.3571
     15 N4         -3.0047    4.2623    5.5246 N.pl3     1 <0>        -0.5172
     16 H2         -2.3979    5.0165    5.2737 H         1 <0>         0.4447
     17 C9         -2.3565    2.6602    3.6859 C.ar      1 <0>        -0.0258
     18 C10        -2.5616    1.4022    3.1169 C.ar      1 <0>        -0.0883
     19 C11        -1.8458    1.0298    1.9979 C.ar      1 <0>        -0.0331
     20 C12        -0.9267    1.9002    1.4394 C.ar      1 <0>        -0.6356
     21 C13        -0.7146    3.1464    2.0018 C.ar      1 <0>        -0.0309
     22 C14        -1.4275    3.5333    3.1178 C.ar      1 <0>        -0.1231
     23 S1         -0.0172    1.4168    0.0098 S.o2      1 <0>         2.6934
     24 O3          0.0021   -0.0041    0.0020 O.2       1 <0>        -1.0505
     25 O4          1.1718    2.1948    0.0027 O.2       1 <0>        -1.0518
     26 H3         -6.0389    6.3336   12.1889 H         1 <0>         0.0591
     27 H4         -4.3541    6.3356   12.7632 H         1 <0>         0.0605
     28 H5         -4.8781    7.5154   11.5378 H         1 <0>         0.0585
     29 H6         -4.7433    4.4904   11.1531 H         1 <0>         0.0697
     30 H7         -3.5825    5.6723   10.5020 H         1 <0>         0.0681
     31 H8         -5.4059    6.7552    9.2170 H         1 <0>         0.1014
     32 H9         -6.5667    5.5733    9.8681 H         1 <0>         0.1030
     33 H10        -3.2787    0.7219    3.5519 H         1 <0>         0.1409
     34 H11        -2.0035    0.0567    1.5566 H         1 <0>         0.1458
     35 H12         0.0075    3.8195    1.5636 H         1 <0>         0.1445
     36 H13        -1.2641    4.5081    3.5532 H         1 <0>         0.1218
     37 O5         -0.8262    1.8475   -1.2052 O.3       1 <0>        -1.0706
@<TRIPOS>BOND
     1    1    2 1
     2    1   26 1
     3    1   27 1
     4    1   28 1
     5    2    3 1
     6    2   29 1
     7    2   30 1
     8    3    4 1
     9    3   31 1
    10    3   32 1
    11    4   11 am
    12    4    5 am
    13    5    6 2
    14    5    7 1
    15    7   15 1
    16    7    8 2
    17    8    9 1
    18    8   13 1
    19    9   10 1
    20    9   11 am
    21   11   12 2
    22   13   14 2
    23   14   15 1
    24   14   17 1
    25   15   16 1
    26   17   22 ar
    27   17   18 ar
    28   18   19 ar
    29   18   33 1
    30   19   20 ar
    31   19   34 1
    32   20   21 ar
    33   20   23 1
    34   21   22 ar
    35   21   35 1
    36   22   36 1
    37   23   24 2
    38   23   25 2
    39   23   37 1
@<TRIPOS>MOLECULE
ZINC03995486
   38    40     0     0     0
SMALL
USER_CHARGES
4-(2,6-dioxo-1-propyl-3,7-dihydropurin-8-yl)benzenesulfonic acid
@<TRIPOS>ATOM
      1 C1         -5.0003    6.4947   11.8999 C.3       1 <0>        -0.1504
      2 C2         -4.6211    5.5112   10.7909 C.3       1 <0>        -0.1396
      3 C3         -5.5281    5.7344    9.5792 C.3       1 <0>         0.1076
      4 N1         -5.1649    4.7927    8.5173 N.am      1 <0>        -0.5397
      5 C4         -4.2350    5.1458    7.6059 C.2       1 <0>         0.5900
      6 O1         -3.6997    6.2385    7.6636 O.2       1 <0>        -0.4631
      7 C5         -3.8876    4.2340    6.5865 C.2       1 <0>        -0.0698
      8 C6         -4.5149    2.9929    6.5448 C.2       1 <0>         0.3490
      9 N2         -5.4634    2.6914    7.5100 N.am      1 <0>        -0.6113
     10 H1         -5.9111    1.8309    7.4968 H         1 <0>         0.4500
     11 C7         -5.7639    3.5906    8.4656 C.2       1 <0>         0.7145
     12 O2         -6.5982    3.3079    9.3038 O.2       1 <0>        -0.4862
     13 C8         -3.1196    3.0658    4.8853 C.cat     1 <0>         0.4590
     14 N3         -3.0047    4.2623    5.5246 N.pl3     1 <0>        -0.4669
     15 H2         -2.3979    5.0165    5.2737 H         1 <0>         0.4837
     16 C9         -2.3565    2.6602    3.6859 C.ar      1 <0>        -0.0927
     17 C10        -2.5616    1.4022    3.1169 C.ar      1 <0>        -0.0902
     18 C11        -1.8458    1.0298    1.9979 C.ar      1 <0>        -0.0246
     19 C12        -0.9267    1.9002    1.4394 C.ar      1 <0>        -0.5963
     20 C13        -0.7146    3.1464    2.0018 C.ar      1 <0>        -0.0242
     21 C14        -1.4275    3.5333    3.1178 C.ar      1 <0>        -0.0856
     22 S1         -0.0172    1.4168    0.0098 S.o2      1 <0>         2.6776
     23 O3          0.0021   -0.0041    0.0020 O.2       1 <0>        -1.0375
     24 O4          1.1718    2.1948    0.0027 O.2       1 <0>        -1.0369
     25 H3         -6.0389    6.3336   12.1889 H         1 <0>         0.0624
     26 H4         -4.3541    6.3356   12.7632 H         1 <0>         0.0663
     27 H5         -4.8781    7.5154   11.5378 H         1 <0>         0.0621
     28 H6         -4.7433    4.4904   11.1531 H         1 <0>         0.0717
     29 H7         -3.5825    5.6723   10.5020 H         1 <0>         0.0705
     30 H8         -5.4059    6.7552    9.2170 H         1 <0>         0.1122
     31 H9         -6.5667    5.5733    9.8681 H         1 <0>         0.1130
     32 H10        -3.2787    0.7219    3.5519 H         1 <0>         0.1341
     33 H11        -2.0035    0.0567    1.5566 H         1 <0>         0.1609
     34 H12         0.0075    3.8195    1.5636 H         1 <0>         0.1614
     35 H13        -1.2641    4.5081    3.5532 H         1 <0>         0.1361
     36 O5         -0.8262    1.8475   -1.2052 O.3       1 <0>        -1.0539
     37 N4         -4.0231    2.3258    5.4997 N.pl3     1 <0>        -0.4987
     38 H14        -4.3047    1.3800    5.2163 H         1 <0>         0.4854
@<TRIPOS>BOND
     1    1    2 1
     2    1   25 1
     3    1   26 1
     4    1   27 1
     5    2    3 1
     6    2   28 1
     7    2   29 1
     8    3    4 1
     9    3   30 1
    10    3   31 1
    11    4   11 am
    12    4    5 am
    13    5    6 2
    14    5    7 1
    15    7   14 1
    16    7    8 2
    17    8    9 1
    18    8   37 1
    19    9   10 1
    20    9   11 am
    21   11   12 2
    22   13   14 1
    23   13   16 1
    24   13   37 2
    25   14   15 1
    26   16   21 ar
    27   16   17 ar
    28   17   18 ar
    29   17   32 1
    30   18   19 ar
    31   18   33 1
    32   19   20 ar
    33   19   22 1
    34   20   21 ar
    35   20   34 1
    36   21   35 1
    37   22   23 2
    38   22   24 2
    39   22   36 1
    40   37   38 1
@<TRIPOS>MOLECULE
ZINC13981593
   36    39     0     0     0
SMALL
USER_CHARGES
4-(2-furyl)-N-(3-pyridyl)-5-pyrimidin-4-yl-pyrimidin-2-amine
@<TRIPOS>ATOM
      1 C1          0.1119    2.2520    1.4496 C.ar      1 <0>        -0.1509
      2 C2         -0.8749    3.2054    1.2580 C.ar      1 <0>        -0.0672
      3 C3         -1.7979    3.0056    0.2345 C.ar      1 <0>         0.1078
      4 C4         -1.7026    1.8593   -0.5445 C.ar      1 <0>         0.0823
      5 N1         -0.7509    0.9746   -0.3247 N.ar      1 <0>        -0.4642
      6 C5          0.1414    1.1372    0.6329 C.ar      1 <0>         0.0834
      7 N2         -2.8094    3.9418   -0.0016 N.pl3     1 <0>        -0.6258
      8 C6         -2.5460    5.2933    0.1325 C.ar      1 <0>         0.5791
      9 N3         -1.3061    5.6832    0.3994 N.ar      1 <0>        -0.5534
     10 C7         -1.0046    6.9631    0.5308 C.ar      1 <0>         0.2278
     11 C8         -2.0149    7.9169    0.3966 C.ar      1 <0>        -0.2052
     12 C9         -3.3244    7.4664    0.1182 C.ar      1 <0>         0.3400
     13 N4         -3.5394    6.1567   -0.0040 N.ar      1 <0>        -0.5449
     14 C10        -4.4315    8.4259   -0.0336 C.2       1 <0>         0.0296
     15 C11        -5.6542    8.3372    0.5608 C.2       1 <0>        -0.1498
     16 C12        -6.3903    9.4604    0.1421 C.2       1 <0>        -0.2202
     17 C13        -5.5949   10.1691   -0.6858 C.2       1 <0>        -0.0135
     18 O1         -4.4137    9.5417   -0.7895 O.3       1 <0>        -0.1332
     19 C14        -1.7223    9.3598    0.5424 C.ar      1 <0>         0.2330
     20 C15        -0.4041    9.8081    0.6833 C.ar      1 <0>        -0.2221
     21 C16        -0.1846   11.1666    0.8116 C.ar      1 <0>         0.1561
     22 N5         -1.2209   11.9924    0.8071 N.ar      1 <0>        -0.5239
     23 C17        -2.4519   11.5391    0.6776 C.ar      1 <0>         0.3062
     24 N6         -2.7101   10.2546    0.5475 N.ar      1 <0>        -0.5001
     25 H1          0.8470    2.3762    2.2310 H         1 <0>         0.1399
     26 H2         -0.9247    4.0838    1.8844 H         1 <0>         0.1409
     27 H3         -2.4157    1.6913   -1.3380 H         1 <0>         0.1578
     28 H4          0.9061    0.3890    0.7807 H         1 <0>         0.1594
     29 H5         -3.6957    3.6436   -0.2594 H         1 <0>         0.4300
     30 H6          0.0096    7.2670    0.7440 H         1 <0>         0.1818
     31 H7         -5.9921    7.5566    1.2263 H         1 <0>         0.1479
     32 H8         -7.4027    9.7067    0.4263 H         1 <0>         0.1507
     33 H9         -5.8645   11.0892   -1.1829 H         1 <0>         0.2041
     34 H10         0.4206    9.1108    0.6877 H         1 <0>         0.1488
     35 H11         0.8193   11.5502    0.9188 H         1 <0>         0.1720
     36 H12        -3.2722   12.2416    0.6786 H         1 <0>         0.1959
@<TRIPOS>BOND
     1    1    6 ar
     2    1    2 ar
     3    1   25 1
     4    2    3 ar
     5    2   26 1
     6    3    4 ar
     7    3    7 1
     8    4    5 ar
     9    4   27 1
    10    5    6 ar
    11    6   28 1
    12    7    8 1
    13    7   29 1
    14    8   13 ar
    15    8    9 ar
    16    9   10 ar
    17   10   11 ar
    18   10   30 1
    19   11   12 ar
    20   11   19 1
    21   12   13 ar
    22   12   14 1
    23   14   18 1
    24   14   15 2
    25   15   16 1
    26   15   31 1
    27   16   17 2
    28   16   32 1
    29   17   18 1
    30   17   33 1
    31   19   24 ar
    32   19   20 ar
    33   20   21 ar
    34   20   34 1
    35   21   22 ar
    36   21   35 1
    37   22   23 ar
    38   23   24 ar
    39   23   36 1
@<TRIPOS>MOLECULE
ZINC22058213
   46    48     0     0     0
SMALL
USER_CHARGES

@<TRIPOS>ATOM
      1 C1         -0.0187    1.5258    0.0104 C.3       1 <0>        -0.1464
      2 C2          0.0021   -0.0041    0.0020 C.3       1 <0>        -0.1391
      3 C3          0.7421   -0.5109    1.2415 C.3       1 <0>         0.1191
      4 N1          0.7619   -1.9757    1.2335 N.am      1 <0>        -0.5069
      5 C4         -0.2661   -2.6852    1.8352 C.2       1 <0>         0.3263
      6 C5         -0.2232   -4.0756    1.8129 C.2       1 <0>        -0.1520
      7 C6          0.8617   -4.7198    1.1812 C.2       1 <0>         0.5952
      8 O1          0.9214   -5.9360    1.1483 O.2       1 <0>        -0.5132
      9 N2          1.8317   -3.9735    0.6136 N.am      1 <0>        -0.5494
     10 C7          1.7755   -2.6308    0.6370 C.2       1 <0>         0.7089
     11 O2          2.6658   -1.9913    0.1106 O.2       1 <0>        -0.5345
     12 C8          2.9607   -4.6368   -0.0434 C.3       1 <0>         0.1150
     13 C9          2.6270   -4.8707   -1.5181 C.3       1 <0>        -0.1386
     14 C10         3.8061   -5.5634   -2.2042 C.3       1 <0>        -0.1461
     15 N3         -1.3542   -4.5128    2.4747 N.pl3     1 <0>        -0.5150
     16 H1         -1.6140   -5.4345    2.6289 H         1 <0>         0.4373
     17 C11        -2.0336   -3.4010    2.8694 C.2       1 <0>         0.3560
     18 N4         -1.3745   -2.3270    2.4821 N.2       1 <0>        -0.4821
     19 C12        -3.3102   -3.3986    3.6148 C.ar      1 <0>        -0.0252
     20 C13        -3.9134   -4.6044    3.9759 C.ar      1 <0>        -0.1221
     21 C14        -5.1044   -4.5951    4.6719 C.ar      1 <0>        -0.0316
     22 C15        -5.7014   -3.3940    5.0116 C.ar      1 <0>        -0.6327
     23 C16        -5.1088   -2.1952    4.6567 C.ar      1 <0>        -0.0340
     24 C17        -3.9147   -2.1904    3.9656 C.ar      1 <0>        -0.0867
     25 S1         -7.2232   -3.3911    5.8996 S.o2      1 <0>         2.6913
     26 O3         -7.9409   -2.1892    5.5039 O.2       1 <0>        -1.0573
     27 O4         -7.9368   -4.6002    5.5188 O.2       1 <0>        -1.0586
     28 O5         -6.8866   -3.3818    7.3147 O.3       1 <0>        -1.0570
     29 H2          1.0039    1.9031    0.0027 H         1 <0>         0.0572
     30 H3         -0.5459    1.8868   -0.8726 H         1 <0>         0.0598
     31 H4         -0.5289    1.8773    0.9072 H         1 <0>         0.0602
     32 H5         -1.0205   -0.3814    0.0098 H         1 <0>         0.0697
     33 H6          0.5123   -0.3556   -0.8948 H         1 <0>         0.0666
     34 H7          1.7647   -0.1336    1.2338 H         1 <0>         0.0994
     35 H8          0.2319   -0.1594    2.1383 H         1 <0>         0.0999
     36 H9          3.8469   -4.0067    0.0331 H         1 <0>         0.1021
     37 H10         3.1524   -5.5938    0.4420 H         1 <0>         0.1006
     38 H11         1.7409   -5.5008   -1.5946 H         1 <0>         0.0677
     39 H12         2.4353   -3.9137   -2.0034 H         1 <0>         0.0692
     40 H13         4.6922   -4.9333   -2.1277 H         1 <0>         0.0588
     41 H14         3.9978   -6.5204   -1.7188 H         1 <0>         0.0584
     42 H15         3.5683   -5.7300   -3.2548 H         1 <0>         0.0602
     43 H16        -3.4488   -5.5427    3.7108 H         1 <0>         0.1218
     44 H17        -5.5722   -5.5274    4.9520 H         1 <0>         0.1427
     45 H18        -5.5798   -1.2611    4.9249 H         1 <0>         0.1441
     46 H19        -3.4511   -1.2539    3.6928 H         1 <0>         0.1410
@<TRIPOS>BOND
     1    1    2 1
     2    1   29 1
     3    1   30 1
     4    1   31 1
     5    2    3 1
     6    2   32 1
     7    2   33 1
     8    3    4 1
     9    3   34 1
    10    3   35 1
    11    4   10 am
    12    4    5 1
    13    5   18 1
    14    5    6 2
    15    6    7 1
    16    6   15 1
    17    7    8 2
    18    7    9 am
    19    9   10 am
    20    9   12 1
    21   10   11 2
    22   12   13 1
    23   12   36 1
    24   12   37 1
    25   13   14 1
    26   13   38 1
    27   13   39 1
    28   14   40 1
    29   14   41 1
    30   14   42 1
    31   15   16 1
    32   15   17 1
    33   17   18 2
    34   17   19 1
    35   19   24 ar
    36   19   20 ar
    37   20   21 ar
    38   20   43 1
    39   21   22 ar
    40   21   44 1
    41   22   23 ar
    42   22   25 1
    43   23   24 ar
    44   23   45 1
    45   24   46 1
    46   25   26 2
    47   25   27 2
    48   25   28 1
@<TRIPOS>MOLECULE
ZINC19608452
   31    33     0     0     0
SMALL
USER_CHARGES
2-amino-4-(2-furyl)-6-phenyl-pyridine-3-carbonitrile
@<TRIPOS>ATOM
      1 C1         -7.5516    2.9821    3.7259 C.ar      1 <0>        -0.0996
      2 C2         -7.9507    2.0385    2.7963 C.ar      1 <0>        -0.1290
      3 C3         -7.0448    1.5404    1.8822 C.ar      1 <0>        -0.0694
      4 C4         -5.7252    1.9899    1.8968 C.ar      1 <0>        -0.0652
      5 C5         -5.3275    2.9371    2.8393 C.ar      1 <0>        -0.0898
      6 C6         -6.2435    3.4319    3.7451 C.ar      1 <0>        -0.1255
      7 C7         -4.7472    1.4583    0.9176 C.ar      1 <0>         0.2634
      8 C8         -3.4353    1.9169    0.9455 C.ar      1 <0>        -0.2106
      9 C9         -2.5166    1.4136    0.0207 C.ar      1 <0>         0.1273
     10 C10        -2.9695    0.4543   -0.9158 C.ar      1 <0>        -0.1505
     11 C11        -4.3125    0.0435   -0.8678 C.ar      1 <0>         0.4748
     12 N1         -5.1404    0.5520    0.0286 N.ar      1 <0>        -0.5381
     13 N2         -4.7744   -0.8978   -1.7715 N.pl3     1 <0>        -0.8570
     14 C12        -2.0743   -0.0917   -1.8911 C.1       1 <0>         0.2581
     15 N3         -1.3642   -0.5249   -2.6647 N.1       1 <0>        -0.4105
     16 C13        -1.1165    1.8737    0.0168 C.2       1 <0>        -0.0045
     17 C14        -0.0126    1.0758    0.0080 C.2       1 <0>        -0.1632
     18 C15         1.1051    1.9308    0.0019 C.2       1 <0>        -0.2134
     19 C16         0.6360    3.1955    0.0123 C.2       1 <0>        -0.0197
     20 O1         -0.7053    3.1570    0.0244 O.3       1 <0>        -0.1599
     21 H1         -8.2641    3.3694    4.4392 H         1 <0>         0.1257
     22 H2         -8.9731    1.6908    2.7863 H         1 <0>         0.1274
     23 H3         -7.3576    0.8040    1.1567 H         1 <0>         0.1367
     24 H4         -4.3056    3.2859    2.8578 H         1 <0>         0.1300
     25 H5         -5.9376    4.1690    4.4728 H         1 <0>         0.1286
     26 H6         -3.1296    2.6539    1.6733 H         1 <0>         0.1491
     27 H7         -5.8247   -1.2230   -1.7384 H         1 <0>         0.4364
     28 H8         -4.0911   -1.3207   -2.5227 H         1 <0>         0.4329
     29 H9          0.0021   -0.0041    0.0020 H         1 <0>         0.1493
     30 H10         2.1426    1.6311   -0.0086 H         1 <0>         0.1552
     31 H11         1.2400    4.0908    0.0112 H         1 <0>         0.2110
@<TRIPOS>BOND
     1    1    6 ar
     2    1    2 ar
     3    1   21 1
     4    2    3 ar
     5    2   22 1
     6    3    4 ar
     7    3   23 1
     8    4    5 ar
     9    4    7 1
    10    5    6 ar
    11    5   24 1
    12    6   25 1
    13    7   12 ar
    14    7    8 ar
    15    8    9 ar
    16    8   26 1
    17    9   10 ar
    18    9   16 1
    19   10   11 ar
    20   10   14 1
    21   11   12 ar
    22   11   13 1
    23   13   27 1
    24   13   28 1
    25   14   15 3
    26   16   20 1
    27   16   17 2
    28   17   18 1
    29   17   29 1
    30   18   19 2
    31   18   30 1
    32   19   20 1
    33   19   31 1
@<TRIPOS>MOLECULE
ZINC40394057
   49    51     0     0     0
SMALL
USER_CHARGES

@<TRIPOS>ATOM
      1 C1         -0.2216    1.6736   -0.8767 C.3       1 <0>        -0.0730
      2 C2         -0.0898    0.1922   -0.6334 C.2       1 <0>         0.0886
      3 C3         -0.2439   -0.8129   -1.5959 C.2       1 <0>        -0.2673
      4 C4         -0.0489   -2.0054   -0.9887 C.2       1 <0>         0.1228
      5 N1          0.2208   -1.7607    0.3208 N.pl3     1 <0>        -0.3176
      6 N2          0.1936   -0.3731    0.5113 N.2       1 <0>        -0.2610
      7 C5          0.4834   -2.7197    1.2991 C.ar      1 <0>         0.6321
      8 N3          0.6155   -3.9860    0.9400 N.ar      1 <0>        -0.5659
      9 C6          0.8667   -4.9287    1.8444 C.ar      1 <0>         0.4597
     10 C7          0.9900   -4.5677    3.1817 C.ar      1 <0>        -0.3540
     11 C8          0.8445   -3.2249    3.5211 C.ar      1 <0>         0.5074
     12 N4          0.5990   -2.3377    2.5601 N.ar      1 <0>        -0.5819
     13 N5          0.9586   -2.8175    4.8411 N.pl3     1 <0>        -0.5862
     14 C9          0.7181   -1.4522    5.3427 C.3       1 <0>         0.1191
     15 C10         0.3618   -1.6365    6.8390 C.3       1 <0>        -0.1337
     16 C11         1.3059   -2.7996    7.2431 C.3       1 <0>        -0.1244
     17 C12         1.3332   -3.6767    5.9737 C.3       1 <0>         0.1467
     18 H1          0.6191   -4.4946    6.0706 H         1 <0>         0.0921
     19 C13         2.7418   -4.2345    5.7602 C.3       1 <0>         0.0408
     20 O1          3.6862   -3.1622    5.7765 O.3       1 <0>        -0.3791
     21 C14         5.0401   -3.5772    5.5846 C.3       1 <0>         0.0318
     22 N6          1.0036   -6.2580    1.4576 N.am      1 <0>        -0.6556
     23 C15         0.9874   -6.5844    0.1501 C.2       1 <0>         0.5006
     24 O2          0.7609   -5.7342   -0.6844 O.2       1 <0>        -0.4669
     25 C16         1.2508   -8.0061   -0.2749 C.3       1 <0>        -0.1688
     26 C17        -0.1182   -3.3602   -1.6451 C.3       1 <0>        -0.0805
     27 H2          0.7488    2.0835   -1.1569 H         1 <0>         0.0806
     28 H3         -0.9356    1.8475   -1.6817 H         1 <0>         0.0814
     29 H4         -0.5732    2.1612    0.0325 H         1 <0>         0.0754
     30 H5         -0.4776   -0.6623   -2.6394 H         1 <0>         0.1573
     31 H6          1.1933   -5.3107    3.9387 H         1 <0>         0.1443
     32 H7          1.6180   -0.8460    5.2389 H         1 <0>         0.0712
     33 H8         -0.1135   -0.9928    4.8085 H         1 <0>         0.0802
     34 H9          0.5871   -0.7347    7.4082 H         1 <0>         0.0879
     35 H10        -0.6833   -1.9218    6.9594 H         1 <0>         0.0755
     36 H11         2.3018   -2.4240    7.4782 H         1 <0>         0.0926
     37 H12         0.8938   -3.3561    8.0848 H         1 <0>         0.0841
     38 H13         2.9783   -4.9392    6.5574 H         1 <0>         0.0632
     39 H14         2.7884   -4.7451    4.7983 H         1 <0>         0.0567
     40 H15         5.3243   -4.2682    6.3782 H         1 <0>         0.0425
     41 H16         5.1344   -4.0741    4.6191 H         1 <0>         0.0388
     42 H17         5.6943   -2.7057    5.6101 H         1 <0>         0.0871
     43 H18         1.1107   -6.9499    2.1290 H         1 <0>         0.4216
     44 H19         1.4323   -8.6211    0.6065 H         1 <0>         0.0777
     45 H20         0.3851   -8.3904   -0.8142 H         1 <0>         0.1011
     46 H21         2.1257   -8.0349   -0.9245 H         1 <0>         0.1010
     47 H22         0.8856   -3.6804   -1.9243 H         1 <0>         0.0841
     48 H23        -0.5486   -4.0798   -0.9486 H         1 <0>         0.1004
     49 H24        -0.7417   -3.3003   -2.5371 H         1 <0>         0.0694
@<TRIPOS>BOND
     1    1    2 1
     2    1   27 1
     3    1   28 1
     4    1   29 1
     5    2    6 2
     6    2    3 1
     7    3    4 2
     8    3   30 1
     9    4    5 1
    10    4   26 1
    11    5    6 1
    12    5    7 1
    13    7   12 ar
    14    7    8 ar
    15    8    9 ar
    16    9   10 ar
    17    9   22 1
    18   10   11 ar
    19   10   31 1
    20   11   12 ar
    21   11   13 1
    22   13   17 1
    23   13   14 1
    24   14   15 1
    25   14   32 1
    26   14   33 1
    27   15   16 1
    28   15   34 1
    29   15   35 1
    30   16   17 1
    31   16   36 1
    32   16   37 1
    33   17   18 1
    34   17   19 1
    35   19   20 1
    36   19   38 1
    37   19   39 1
    38   20   21 1
    39   21   40 1
    40   21   41 1
    41   21   42 1
    42   22   23 am
    43   22   43 1
    44   23   24 2
    45   23   25 1
    46   25   44 1
    47   25   45 1
    48   25   46 1
    49   26   47 1
    50   26   48 1
    51   26   49 1
@<TRIPOS>MOLECULE
ZINC03995401
   38    40     0     0     0
SMALL
USER_CHARGES

@<TRIPOS>ATOM
      1 C1         -0.0187    1.5258    0.0104 C.3       1 <0>        -0.1678
      2 C2          0.0021   -0.0041    0.0020 C.3       1 <0>         0.1135
      3 N1          0.6878   -0.4765   -1.2033 N.am      1 <0>        -0.7272
      4 C3          0.8268   -1.7986   -1.4250 C.2       1 <0>         0.5159
      5 O1          0.3843   -2.5972   -0.6267 O.2       1 <0>        -0.5034
      6 C4          1.5322   -2.2846   -2.6649 C.3       1 <0>         0.0319
      7 H1          2.5323   -1.8560   -2.7290 H         1 <0>         0.1223
      8 C5          0.7085   -1.9402   -3.9319 C.3       1 <0>         0.0508
      9 H2         -0.3595   -2.0480   -3.7427 H         1 <0>         0.0949
     10 C6          1.2015   -3.0074   -4.9392 C.3       1 <0>         0.0831
     11 H3          0.3680   -3.3897   -5.5285 H         1 <0>         0.0899
     12 C7          1.7901   -4.1212   -4.0517 C.3       1 <0>         0.3141
     13 H4          2.8552   -4.2328   -4.2545 H         1 <0>         0.1318
     14 O2          1.5952   -3.7270   -2.6817 O.3       1 <0>        -0.3269
     15 N2          1.0980   -5.3855   -4.3143 N.pl3     1 <0>        -0.4753
     16 C8          0.0390   -5.8854   -3.6166 C.2       1 <0>         0.2664
     17 N3         -0.3260   -7.0283   -4.1208 N.2       1 <0>        -0.4588
     18 C9          0.4732   -7.3336   -5.1712 C.ar      1 <0>        -0.1081
     19 C10         1.3931   -6.2806   -5.3114 C.ar      1 <0>         0.3101
     20 N4          2.2951   -6.3363   -6.2857 N.ar      1 <0>        -0.5540
     21 C11         2.3279   -7.3607   -7.1119 C.ar      1 <0>         0.3666
     22 N5          1.4828   -8.3713   -7.0218 N.ar      1 <0>        -0.5906
     23 C12         0.5516   -8.4074   -6.0740 C.ar      1 <0>         0.5098
     24 N6         -0.3304   -9.4704   -5.9882 N.pl3     1 <0>        -0.8164
     25 O3          2.2079   -2.4612   -5.7941 O.3       1 <0>        -0.5314
     26 O4          1.0116   -0.6227   -4.3947 O.3       1 <0>        -0.5362
     27 H5          1.0039    1.9031    0.0027 H         1 <0>         0.0645
     28 H6         -0.5459    1.8868   -0.8726 H         1 <0>         0.0637
     29 H7         -0.5289    1.8773    0.9072 H         1 <0>         0.0792
     30 H8          0.5293   -0.3651    0.8851 H         1 <0>         0.0731
     31 H9         -1.0205   -0.3814    0.0098 H         1 <0>         0.0727
     32 H10         1.0417    0.1622   -1.8418 H         1 <0>         0.3979
     33 H11        -0.4280   -5.4042   -2.7700 H         1 <0>         0.2249
     34 H12         3.0737   -7.3749   -7.8929 H         1 <0>         0.2070
     35 H13        -1.0129   -9.4799   -5.2989 H         1 <0>         0.4195
     36 H14        -0.2662  -10.2059   -6.6173 H         1 <0>         0.4114
     37 H15         1.9048   -1.7181   -6.3335 H         1 <0>         0.3970
     38 H16         0.8031    0.0753   -3.7587 H         1 <0>         0.3843
@<TRIPOS>BOND
     1    1    2 1
     2    1   27 1
     3    1   28 1
     4    1   29 1
     5    2    3 1
     6    2   30 1
     7    2   31 1
     8    3    4 am
     9    3   32 1
    10    4    5 2
    11    4    6 1
    12    6    7 1
    13    6   14 1
    14    6    8 1
    15    8    9 1
    16    8   10 1
    17    8   26 1
    18   10   11 1
    19   10   12 1
    20   10   25 1
    21   12   13 1
    22   12   14 1
    23   12   15 1
    24   15   19 1
    25   15   16 1
    26   16   17 2
    27   16   33 1
    28   17   18 1
    29   18   23 ar
    30   18   19 ar
    31   19   20 ar
    32   20   21 ar
    33   21   22 ar
    34   21   34 1
    35   22   23 ar
    36   23   24 1
    37   24   35 1
    38   24   36 1
    39   25   37 1
    40   26   38 1
@<TRIPOS>MOLECULE
ZINC20432202
   28    30     0     0     0
SMALL
USER_CHARGES
2-amino-4-(2-furyl)-6-(2-thienyl)pyridine-3-carbonitrile
@<TRIPOS>ATOM
      1 C1          6.3566    7.0243    0.4678 C.2       1 <0>        -0.2151
      2 C2          5.1200    6.4594    0.8316 C.2       1 <0>        -0.1600
      3 C3          4.1846    6.9937   -0.0018 C.2       1 <0>        -0.0084
      4 O1          4.8088    7.8414   -0.8430 O.3       1 <0>        -0.1620
      5 C4          6.1201    7.8670   -0.5585 C.2       1 <0>        -0.0185
      6 C5          2.7418    6.6924    0.0102 C.ar      1 <0>         0.1317
      7 C6          2.2848    5.3736    0.0081 C.ar      1 <0>        -0.2057
      8 C7          0.9131    5.1290    0.0202 C.ar      1 <0>         0.3058
      9 N1          0.0355    6.1307    0.0282 N.ar      1 <0>        -0.5341
     10 C8          0.4167    7.3959    0.0362 C.ar      1 <0>         0.4774
     11 C9          1.7816    7.7329    0.0246 C.ar      1 <0>        -0.1511
     12 C10         2.1934    9.1044    0.0278 C.1       1 <0>         0.2584
     13 N2          2.5201   10.1924    0.0304 N.1       1 <0>        -0.4086
     14 N3         -0.5369    8.3990    0.0503 N.pl3     1 <0>        -0.8558
     15 C11         0.4248    3.7374    0.0181 C.2       1 <0>        -0.1410
     16 C12        -0.8661    3.2744    0.0279 C.2       1 <0>        -0.0947
     17 C13        -1.0813    1.9159    0.0167 C.2       1 <0>        -0.1680
     18 C14        -0.0126    1.0758    0.0080 C.2       1 <0>        -0.1558
     19 S1          1.3604    2.2168    0.0010 S.3       1 <0>         0.0868
     20 H1          7.3141    6.8215    0.9243 H         1 <0>         0.1564
     21 H2          4.9465    5.7408    1.6189 H         1 <0>         0.1573
     22 H3          6.8636    8.4604   -1.0698 H         1 <0>         0.2087
     23 H4          2.9861    4.5524   -0.0030 H         1 <0>         0.1481
     24 H5         -0.2254    9.4539    0.0570 H         1 <0>         0.4339
     25 H6         -1.6063    8.1412    0.0548 H         1 <0>         0.4368
     26 H7         -1.6978    3.9633    0.0396 H         1 <0>         0.1449
     27 H8         -2.0867    1.5216    0.0180 H         1 <0>         0.1405
     28 H9          0.0021   -0.0041    0.0020 H         1 <0>         0.1920
@<TRIPOS>BOND
     1    1    5 2
     2    1    2 1
     3    1   20 1
     4    2    3 2
     5    2   21 1
     6    3    4 1
     7    3    6 1
     8    4    5 1
     9    5   22 1
    10    6   11 ar
    11    6    7 ar
    12    7    8 ar
    13    7   23 1
    14    8    9 ar
    15    8   15 1
    16    9   10 ar
    17   10   11 ar
    18   10   14 1
    19   11   12 1
    20   12   13 3
    21   14   24 1
    22   14   25 1
    23   15   19 1
    24   15   16 2
    25   16   17 1
    26   16   26 1
    27   17   18 2
    28   17   27 1
    29   18   19 1
    30   18   28 1
@<TRIPOS>MOLECULE
ZINC38741103
   28    30     0     0     0
SMALL
USER_CHARGES

@<TRIPOS>ATOM
      1 C1         -0.0162    1.3445    0.0094 C.2       1 <0>        -0.2231
      2 C2          1.3235    1.7757   -0.0010 C.2       1 <0>        -0.1311
      3 C3          2.0959    0.6545   -0.0144 C.2       1 <0>        -0.0026
      4 O1          1.2788   -0.4170   -0.0124 O.3       1 <0>        -0.1648
      5 C4          0.0021   -0.0041    0.0020 C.2       1 <0>        -0.0090
      6 C5          3.5702    0.6190   -0.0291 C.ar      1 <0>         0.2955
      7 C6          4.2257   -0.6106   -0.0477 C.ar      1 <0>        -0.1953
      8 C7          5.6208   -0.6389   -0.0621 C.ar      1 <0>         0.1389
      9 C8          6.3148    0.5955   -0.0570 C.ar      1 <0>        -0.1471
     10 C9          5.5738    1.7898   -0.0379 C.ar      1 <0>         0.4725
     11 N1          4.2526    1.7625   -0.0300 N.ar      1 <0>        -0.5291
     12 N2          6.2343    3.0062   -0.0322 N.pl3     1 <0>        -0.8325
     13 C10         7.7464    0.6265   -0.0707 C.1       1 <0>         0.2512
     14 N3          8.8821    0.6511   -0.0815 N.1       1 <0>        -0.3989
     15 C11         6.3521   -1.9186   -0.0814 C.2       1 <0>        -0.1516
     16 C12         6.1910   -3.0185    0.7223 C.2       1 <0>        -0.1132
     17 C13         6.9988   -4.1124    0.5152 C.2       1 <0>        -0.1633
     18 C14         7.9289   -4.0713   -0.4754 C.2       1 <0>        -0.1605
     19 S1          7.6728   -2.4435   -1.1621 S.3       1 <0>         0.0813
     20 H1         -0.8932    1.9746    0.0252 H         1 <0>         0.1559
     21 H2          1.6715    2.7981    0.0008 H         1 <0>         0.1600
     22 H3         -0.8669   -0.6454    0.0072 H         1 <0>         0.2114
     23 H4          3.6605   -1.5310   -0.0507 H         1 <0>         0.1530
     24 H5          7.2039    3.0317   -0.0414 H         1 <0>         0.4131
     25 H6          5.7275    3.8332   -0.0191 H         1 <0>         0.4146
     26 H7          5.4445   -3.0254    1.5028 H         1 <0>         0.1417
     27 H8          6.8957   -4.9928    1.1322 H         1 <0>         0.1416
     28 H9          8.6378   -4.8298   -0.7729 H         1 <0>         0.1914
@<TRIPOS>BOND
     1    1    5 2
     2    1    2 1
     3    1   20 1
     4    2    3 2
     5    2   21 1
     6    3    4 1
     7    3    6 1
     8    4    5 1
     9    5   22 1
    10    6   11 ar
    11    6    7 ar
    12    7    8 ar
    13    7   23 1
    14    8    9 ar
    15    8   15 1
    16    9   10 ar
    17    9   13 1
    18   10   11 ar
    19   10   12 1
    20   12   24 1
    21   12   25 1
    22   13   14 3
    23   15   19 1
    24   15   16 2
    25   16   17 1
    26   16   26 1
    27   17   18 2
    28   17   27 1
    29   18   19 1
    30   18   28 1
@<TRIPOS>MOLECULE
ZINC49867711
   64    68     0     0     0
SMALL
USER_CHARGES

@<TRIPOS>ATOM
      1 C1         -0.0187    1.5258    0.0104 C.3       1 <0>        -0.1479
      2 C2          0.0021   -0.0041    0.0020 C.3       1 <0>        -0.1386
      3 C3          0.7182   -0.4975   -1.2568 C.3       1 <0>         0.1125
      4 N1          0.7381   -1.9623   -1.2648 N.am      1 <0>        -0.5465
      5 C4          1.7667   -2.6158   -0.6861 C.2       1 <0>         0.5940
      6 O1          2.6733   -1.9949   -0.1603 O.2       1 <0>        -0.5039
      7 C5          1.7804   -4.0268   -0.6965 C.2       1 <0>        -0.1326
      8 C6          0.7318   -4.7103   -1.3037 C.2       1 <0>         0.3237
      9 N2         -0.2956   -3.9801   -1.8812 N.am      1 <0>        -0.6110
     10 H1         -1.0352   -4.4395   -2.3088 H         1 <0>         0.4408
     11 C7         -0.2715   -2.6346   -1.8438 C.2       1 <0>         0.7131
     12 O2         -1.1843   -2.0115   -2.3510 O.2       1 <0>        -0.5256
     13 N3          0.9764   -6.0143   -1.1804 N.2       1 <0>        -0.4736
     14 C8          2.1111   -6.1978   -0.5349 C.2       1 <0>         0.3256
     15 N4          2.6470   -4.9882   -0.2138 N.pl3     1 <0>        -0.5075
     16 H2          3.4777   -4.8315    0.2619 H         1 <0>         0.4391
     17 C9          2.7077   -7.5108   -0.2102 C.ar      1 <0>         0.0233
     18 C10         3.9156   -7.5790    0.4859 C.ar      1 <0>        -0.1202
     19 C11         4.4667   -8.8076    0.7861 C.ar      1 <0>        -0.0148
     20 C12         3.8247   -9.9705    0.3988 C.ar      1 <0>        -0.6623
     21 C13         2.6271   -9.9099   -0.2914 C.ar      1 <0>        -0.0167
     22 C14         2.0626   -8.6878   -0.5933 C.ar      1 <0>        -0.0852
     23 S1          4.5358  -11.5355    0.7859 S.o2      1 <0>         2.6882
     24 O3          4.0202  -12.4611   -0.1610 O.2       1 <0>        -0.9477
     25 O4          5.9295  -11.3172    0.9568 O.2       1 <0>        -0.9491
     26 N5          3.9432  -11.9905    2.2637 N.pl3     1 <0>        -0.9980
     27 C15         4.6374  -11.6130    3.5042 C.3       1 <0>         0.1214
     28 C16         4.8382  -12.8733    4.3525 C.3       1 <0>         0.0438
     29 N6          3.5445  -13.5424    4.5436 N.3       1 <0>        -0.5310
     30 C17         2.9855  -13.9971    3.2635 C.3       1 <0>         0.0377
     31 C18         2.7054  -12.7777    2.3709 C.3       1 <0>         0.1217
     32 C19         3.6637  -14.6579    5.4920 C.3       1 <0>         0.0927
     33 C20         2.2893  -15.1610    5.8511 C.ar      1 <0>        -0.0760
     34 C21         1.6129  -14.6154    6.9262 C.ar      1 <0>        -0.0839
     35 C22         0.3523  -15.0764    7.2560 C.ar      1 <0>        -0.1105
     36 C23        -0.2325  -16.0841    6.5099 C.ar      1 <0>        -0.0333
     37 C24         0.4449  -16.6297    5.4340 C.ar      1 <0>        -0.1100
     38 C25         1.7031  -16.1640    5.1018 C.ar      1 <0>        -0.1033
     39 Cl1        -1.8156  -16.6641    6.9239 Cl        1 <0>        -0.0695
     40 H3          1.0039    1.9031    0.0027 H         1 <0>         0.0593
     41 H4         -0.5459    1.8868   -0.8726 H         1 <0>         0.0604
     42 H5         -0.5289    1.8773    0.9072 H         1 <0>         0.0621
     43 H6          0.5293   -0.3651    0.8851 H         1 <0>         0.0677
     44 H7         -1.0205   -0.3814    0.0098 H         1 <0>         0.0702
     45 H8          0.1910   -0.1364   -2.1398 H         1 <0>         0.1056
     46 H9          1.7408   -0.1202   -1.2645 H         1 <0>         0.1033
     47 H10         4.4179   -6.6721    0.7884 H         1 <0>         0.1345
     48 H11         5.4014   -8.8618    1.3244 H         1 <0>         0.1498
     49 H12         2.1311  -10.8213   -0.5908 H         1 <0>         0.1511
     50 H13         1.1255   -8.6419   -1.1282 H         1 <0>         0.1534
     51 H14         5.6063  -11.1758    3.2631 H         1 <0>         0.0993
     52 H15         4.0344  -10.8922    4.0564 H         1 <0>         0.0809
     53 H16         5.5253  -13.5490    3.8431 H         1 <0>         0.0445
     54 H17         5.2516  -12.5969    5.3224 H         1 <0>         0.0922
     55 H18         3.6984  -14.6571    2.7693 H         1 <0>         0.0442
     56 H19         2.0551  -14.5357    3.4437 H         1 <0>         0.0942
     57 H20         1.9203  -12.1667    2.8163 H         1 <0>         0.0811
     58 H21         2.3963  -13.1108    1.3801 H         1 <0>         0.0993
     59 H22         4.2376  -15.4638    5.0347 H         1 <0>         0.0487
     60 H23         4.1723  -14.3157    6.3933 H         1 <0>         0.0895
     61 H24         2.0697  -13.8291    7.5088 H         1 <0>         0.1330
     62 H25        -0.1759  -14.6504    8.0962 H         1 <0>         0.1337
     63 H26        -0.0110  -17.4166    4.8515 H         1 <0>         0.1338
     64 H27         2.2300  -16.5865    4.2590 H         1 <0>         0.1296
@<TRIPOS>BOND
     1    1    2 1
     2    1   40 1
     3    1   41 1
     4    1   42 1
     5    2    3 1
     6    2   43 1
     7    2   44 1
     8    3    4 1
     9    3   45 1
    10    3   46 1
    11    4   11 am
    12    4    5 am
    13    5    6 2
    14    5    7 1
    15    7   15 1
    16    7    8 2
    17    8    9 1
    18    8   13 1
    19    9   10 1
    20    9   11 am
    21   11   12 2
    22   13   14 2
    23   14   15 1
    24   14   17 1
    25   15   16 1
    26   17   22 ar
    27   17   18 ar
    28   18   19 ar
    29   18   47 1
    30   19   20 ar
    31   19   48 1
    32   20   21 ar
    33   20   23 1
    34   21   22 ar
    35   21   49 1
    36   22   50 1
    37   23   24 2
    38   23   25 2
    39   23   26 1
    40   26   31 1
    41   26   27 1
    42   27   28 1
    43   27   51 1
    44   27   52 1
    45   28   29 1
    46   28   53 1
    47   28   54 1
    48   29   30 1
    49   29   32 1
    50   30   31 1
    51   30   55 1
    52   30   56 1
    53   31   57 1
    54   31   58 1
    55   32   33 1
    56   32   59 1
    57   32   60 1
    58   33   38 ar
    59   33   34 ar
    60   34   35 ar
    61   34   61 1
    62   35   36 ar
    63   35   62 1
    64   36   37 ar
    65   36   39 1
    66   37   38 ar
    67   37   63 1
    68   38   64 1
@<TRIPOS>MOLECULE
ZINC49867711
   63    67     0     0     0
SMALL
USER_CHARGES

@<TRIPOS>ATOM
      1 C1         -0.0187    1.5258    0.0104 C.3       1 <0>        -0.1436
      2 C2          0.0021   -0.0041    0.0020 C.3       1 <0>        -0.1381
      3 C3          0.7182   -0.4975   -1.2568 C.3       1 <0>         0.1180
      4 N1          0.7381   -1.9623   -1.2648 N.am      1 <0>        -0.5339
      5 C4          1.7781   -2.6201   -0.6798 C.2       1 <0>         0.5565
      6 O1          2.7780   -1.9320   -0.0994 O.3       1 <0>        -0.5917
      7 C5          1.7944   -4.0177   -0.6890 C.2       1 <0>        -0.1449
      8 C6          0.7261   -4.7085   -1.3081 C.2       1 <0>         0.2261
      9 N2         -0.2994   -3.9781   -1.8841 N.am      1 <0>        -0.6080
     10 H1         -1.0396   -4.4358   -2.3124 H         1 <0>         0.4218
     11 C7         -0.2724   -2.6322   -1.8442 C.2       1 <0>         0.7117
     12 O2         -1.1841   -2.0066   -2.3504 O.2       1 <0>        -0.5709
     13 N3          0.9824   -5.9969   -1.1793 N.2       1 <0>        -0.5275
     14 C8          2.1388   -6.1421   -0.5213 C.2       1 <0>         0.1468
     15 N4          2.6376   -4.9561   -0.2206 N.2       1 <0>        -0.4348
     16 C9          2.7667   -7.4409   -0.1801 C.ar      1 <0>         0.1082
     17 C10         3.9743   -7.4729    0.5158 C.ar      1 <0>        -0.1268
     18 C11         4.5541   -8.6850    0.8307 C.ar      1 <0>        -0.0209
     19 C12         3.9397   -9.8666    0.4567 C.ar      1 <0>        -0.6974
     20 C13         2.7414   -9.8410   -0.2339 C.ar      1 <0>        -0.0226
     21 C14         2.1490   -8.6351   -0.5489 C.ar      1 <0>        -0.1269
     22 S1          4.6866  -11.4104    0.8612 S.o2      1 <0>         2.6937
     23 O3          4.1927  -12.3582   -0.0751 O.2       1 <0>        -0.9620
     24 O4          6.0749  -11.1581    1.0297 O.2       1 <0>        -0.9614
     25 N5          4.1044  -11.8624    2.3441 N.pl3     1 <0>        -1.0013
     26 C15         4.7895  -11.4551    3.5803 C.3       1 <0>         0.1220
     27 C16         5.0192  -12.7008    4.4426 C.3       1 <0>         0.0457
     28 N6          3.7412  -13.3973    4.6413 N.3       1 <0>        -0.5307
     29 C17         3.1931  -13.8792    3.3665 C.3       1 <0>         0.0396
     30 C18         2.8851  -12.6766    2.4602 C.3       1 <0>         0.1230
     31 C19         3.8859  -14.4991    5.6022 C.3       1 <0>         0.0922
     32 C20         2.5234  -15.0297    5.9669 C.ar      1 <0>        -0.0729
     33 C21         1.8344  -14.4879    7.0359 C.ar      1 <0>        -0.0837
     34 C22         0.5848  -14.9742    7.3710 C.ar      1 <0>        -0.1106
     35 C23         0.0235  -16.0034    6.6363 C.ar      1 <0>        -0.0343
     36 C24         0.7135  -16.5452    5.5665 C.ar      1 <0>        -0.1106
     37 C25         1.9607  -16.0543    5.2290 C.ar      1 <0>        -0.1029
     38 Cl1        -1.5458  -16.6151    7.0569 Cl        1 <0>        -0.0731
     39 H2          1.0039    1.9031    0.0027 H         1 <0>         0.0571
     40 H3         -0.5459    1.8868   -0.8726 H         1 <0>         0.0557
     41 H4         -0.5289    1.8773    0.9072 H         1 <0>         0.0561
     42 H5          0.5293   -0.3651    0.8851 H         1 <0>         0.0690
     43 H6         -1.0205   -0.3814    0.0098 H         1 <0>         0.0655
     44 H7          0.1910   -0.1364   -2.1398 H         1 <0>         0.0934
     45 H8          1.7408   -0.1202   -1.2645 H         1 <0>         0.0972
     46 H9          4.4553   -6.5510    0.8076 H         1 <0>         0.1402
     47 H10         5.4896   -8.7111    1.3697 H         1 <0>         0.1344
     48 H11         2.2664  -10.7667   -0.5236 H         1 <0>         0.1335
     49 H12         1.2110   -8.6163   -1.0838 H         1 <0>         0.1385
     50 H13         5.7480  -10.9983    3.3342 H         1 <0>         0.0992
     51 H14         4.1699  -10.7422    4.1244 H         1 <0>         0.0801
     52 H15         5.7218  -13.3660    3.9408 H         1 <0>         0.0423
     53 H16         5.4258  -12.4040    5.4094 H         1 <0>         0.0896
     54 H17         3.9211  -14.5281    2.8796 H         1 <0>         0.0418
     55 H18         2.2754  -14.4371    3.5528 H         1 <0>         0.0908
     56 H19         2.0860  -12.0790    2.8988 H         1 <0>         0.0795
     57 H20         2.5840  -13.0279    1.4733 H         1 <0>         0.0981
     58 H21         4.4784  -15.2966    5.1539 H         1 <0>         0.0467
     59 H22         4.3863  -14.1352    6.4995 H         1 <0>         0.0882
     60 H23         2.2728  -13.6847    7.6096 H         1 <0>         0.1335
     61 H24         0.0467  -14.5510    8.2064 H         1 <0>         0.1330
     62 H25         0.2760  -17.3489    4.9929 H         1 <0>         0.1327
     63 H26         2.4974  -16.4740    4.3910 H         1 <0>         0.1297
@<TRIPOS>BOND
     1    1    2 1
     2    1   39 1
     3    1   40 1
     4    1   41 1
     5    2    3 1
     6    2   42 1
     7    2   43 1
     8    3    4 1
     9    3   44 1
    10    3   45 1
    11    4   11 am
    12    4    5 1
    13    5    6 1
    14    5    7 2
    15    7   15 1
    16    7    8 1
    17    8    9 1
    18    8   13 2
    19    9   10 1
    20    9   11 am
    21   11   12 2
    22   13   14 1
    23   14   15 2
    24   14   16 1
    25   16   21 ar
    26   16   17 ar
    27   17   18 ar
    28   17   46 1
    29   18   19 ar
    30   18   47 1
    31   19   20 ar
    32   19   22 1
    33   20   21 ar
    34   20   48 1
    35   21   49 1
    36   22   23 2
    37   22   24 2
    38   22   25 1
    39   25   30 1
    40   25   26 1
    41   26   27 1
    42   26   50 1
    43   26   51 1
    44   27   28 1
    45   27   52 1
    46   27   53 1
    47   28   29 1
    48   28   31 1
    49   29   30 1
    50   29   54 1
    51   29   55 1
    52   30   56 1
    53   30   57 1
    54   31   32 1
    55   31   58 1
    56   31   59 1
    57   32   37 ar
    58   32   33 ar
    59   33   34 ar
    60   33   60 1
    61   34   35 ar
    62   34   61 1
    63   35   36 ar
    64   35   38 1
    65   36   37 ar
    66   36   62 1
    67   37   63 1
@<TRIPOS>MOLECULE
ZINC49867711
   65    69     0     0     0
SMALL
USER_CHARGES

@<TRIPOS>ATOM
      1 C1         -0.0187    1.5258    0.0104 C.3       1 <0>        -0.1489
      2 C2          0.0021   -0.0041    0.0020 C.3       1 <0>        -0.1378
      3 C3          0.7182   -0.4975   -1.2568 C.3       1 <0>         0.1111
      4 N1          0.7381   -1.9623   -1.2648 N.am      1 <0>        -0.5454
      5 C4          1.7667   -2.6158   -0.6861 C.2       1 <0>         0.5927
      6 O1          2.6733   -1.9949   -0.1603 O.2       1 <0>        -0.5008
      7 C5          1.7804   -4.0268   -0.6965 C.2       1 <0>        -0.1245
      8 C6          0.7318   -4.7103   -1.3037 C.2       1 <0>         0.3250
      9 N2         -0.2956   -3.9801   -1.8812 N.am      1 <0>        -0.6117
     10 H1         -1.0352   -4.4395   -2.3088 H         1 <0>         0.4415
     11 C7         -0.2715   -2.6346   -1.8438 C.2       1 <0>         0.7120
     12 O2         -1.1843   -2.0115   -2.3510 O.2       1 <0>        -0.5196
     13 N3          0.9764   -6.0143   -1.1804 N.2       1 <0>        -0.4701
     14 C8          2.1111   -6.1978   -0.5349 C.2       1 <0>         0.3100
     15 N4          2.6470   -4.9882   -0.2138 N.pl3     1 <0>        -0.5054
     16 H2          3.4777   -4.8315    0.2619 H         1 <0>         0.4392
     17 C9          2.7077   -7.5108   -0.2102 C.ar      1 <0>         0.0405
     18 C10         3.9156   -7.5790    0.4859 C.ar      1 <0>        -0.1205
     19 C11         4.4667   -8.8076    0.7861 C.ar      1 <0>        -0.0143
     20 C12         3.8247   -9.9705    0.3988 C.ar      1 <0>        -0.6728
     21 C13         2.6271   -9.9099   -0.2914 C.ar      1 <0>        -0.0163
     22 C14         2.0626   -8.6878   -0.5933 C.ar      1 <0>        -0.0857
     23 S1          4.5358  -11.5355    0.7859 S.o2      1 <0>         2.6904
     24 O3          4.0202  -12.4611   -0.1610 O.2       1 <0>        -0.9333
     25 O4          5.9295  -11.3172    0.9568 O.2       1 <0>        -0.9346
     26 N5          3.9432  -11.9905    2.2637 N.pl3     1 <0>        -1.0136
     27 C15         4.6364  -11.6136    3.5053 C.3       1 <0>         0.0914
     28 C16         4.8182  -12.8715    4.3611 C.3       1 <0>        -0.0185
     29 N6          3.5145  -13.5154    4.5663 N.4       1 <0>        -0.3824
     30 C17         2.9811  -13.9854    3.2816 C.3       1 <0>        -0.0262
     31 C18         2.7053  -12.7778    2.3725 C.3       1 <0>         0.0936
     32 C19         3.6724  -14.6577    5.4763 C.3       1 <0>         0.0441
     33 C20         2.3192  -15.2446    5.7853 C.ar      1 <0>        -0.1621
     34 C21         1.5925  -14.7753    6.8636 C.ar      1 <0>        -0.0784
     35 C22         0.3513  -15.3132    7.1475 C.ar      1 <0>        -0.1059
     36 C23        -0.1637  -16.3214    6.3523 C.ar      1 <0>        -0.0060
     37 C24         0.5640  -16.7906    5.2732 C.ar      1 <0>        -0.1056
     38 C25         1.8026  -16.2480    4.9870 C.ar      1 <0>        -0.0842
     39 Cl1        -1.7223  -16.9978    6.7085 Cl        1 <0>        -0.0362
     40 H3          1.0039    1.9031    0.0027 H         1 <0>         0.0599
     41 H4         -0.5459    1.8868   -0.8726 H         1 <0>         0.0615
     42 H5         -0.5289    1.8773    0.9072 H         1 <0>         0.0630
     43 H6          0.5293   -0.3651    0.8851 H         1 <0>         0.0670
     44 H7         -1.0205   -0.3814    0.0098 H         1 <0>         0.0702
     45 H8          0.1910   -0.1364   -2.1398 H         1 <0>         0.1073
     46 H9          1.7408   -0.1202   -1.2645 H         1 <0>         0.1045
     47 H10         4.4179   -6.6721    0.7884 H         1 <0>         0.1379
     48 H11         5.4014   -8.8618    1.3244 H         1 <0>         0.1502
     49 H12         2.1311  -10.8213   -0.5908 H         1 <0>         0.1514
     50 H13         1.1255   -8.6419   -1.1282 H         1 <0>         0.1567
     51 H14         5.6115  -11.1894    3.2661 H         1 <0>         0.1408
     52 H15         4.0395  -10.8827    4.0507 H         1 <0>         0.1010
     53 H16         5.4892  -13.5635    3.8522 H         1 <0>         0.1386
     54 H17         5.2435  -12.5962    5.3262 H         1 <0>         0.1479
     55 H18         3.7077  -14.6437    2.8053 H         1 <0>         0.1388
     56 H19         2.0527  -14.5308    3.4511 H         1 <0>         0.1453
     57 H20         1.9166  -12.1624    2.8054 H         1 <0>         0.1013
     58 H21         2.4031  -13.1236    1.3840 H         1 <0>         0.1407
     59 H22         4.2976  -15.4152    5.0035 H         1 <0>         0.1399
     60 H23         4.1432  -14.3235    6.4008 H         1 <0>         0.1424
     61 H24         1.9948  -13.9886    7.4845 H         1 <0>         0.1416
     62 H25        -0.2162  -14.9467    7.9902 H         1 <0>         0.1474
     63 H26         0.1626  -17.5778    4.6523 H         1 <0>         0.1482
     64 H27         2.3688  -16.6109    4.1419 H         1 <0>         0.1424
     65 H28         2.8729  -12.8510    4.9727 H         1 <0>         0.4236
@<TRIPOS>BOND
     1    1    2 1
     2    1   40 1
     3    1   41 1
     4    1   42 1
     5    2    3 1
     6    2   43 1
     7    2   44 1
     8    3    4 1
     9    3   45 1
    10    3   46 1
    11    4   11 am
    12    4    5 am
    13    5    6 2
    14    5    7 1
    15    7   15 1
    16    7    8 2
    17    8    9 1
    18    8   13 1
    19    9   10 1
    20    9   11 am
    21   11   12 2
    22   13   14 2
    23   14   15 1
    24   14   17 1
    25   15   16 1
    26   17   22 ar
    27   17   18 ar
    28   18   19 ar
    29   18   47 1
    30   19   20 ar
    31   19   48 1
    32   20   21 ar
    33   20   23 1
    34   21   22 ar
    35   21   49 1
    36   22   50 1
    37   23   24 2
    38   23   25 2
    39   23   26 1
    40   26   31 1
    41   26   27 1
    42   27   28 1
    43   27   51 1
    44   27   52 1
    45   28   29 1
    46   28   53 1
    47   28   54 1
    48   29   30 1
    49   29   32 1
    50   29   65 1
    51   30   31 1
    52   30   55 1
    53   30   56 1
    54   31   57 1
    55   31   58 1
    56   32   33 1
    57   32   59 1
    58   32   60 1
    59   33   38 ar
    60   33   34 ar
    61   34   35 ar
    62   34   61 1
    63   35   36 ar
    64   35   62 1
    65   36   37 ar
    66   36   39 1
    67   37   38 ar
    68   37   63 1
    69   38   64 1
@<TRIPOS>MOLECULE
ZINC49872110
   61    65     0     0     0
SMALL
USER_CHARGES

@<TRIPOS>ATOM
      1 C1         -0.1671    1.4710   -0.0659 C.3       1 <0>        -0.1480
      2 C2         -0.1271   -0.0584   -0.0665 C.3       1 <0>        -0.1386
      3 C3          0.6002   -0.5491   -1.3200 C.3       1 <0>         0.1124
      4 N1          0.6385   -2.0136   -1.3205 N.am      1 <0>        -0.5465
      5 C4          1.6731   -2.6511   -0.7346 C.2       1 <0>         0.5939
      6 O1          2.5696   -2.0162   -0.2084 O.2       1 <0>        -0.5034
      7 C5          1.7046   -4.0618   -0.7377 C.2       1 <0>        -0.1318
      8 C6          0.6671   -4.7616   -1.3455 C.2       1 <0>         0.3238
      9 N2         -0.3671   -4.0473   -1.9306 N.am      1 <0>        -0.6111
     10 H1         -1.0992   -4.5182   -2.3587 H         1 <0>         0.4408
     11 C7         -0.3602   -2.7015   -1.8999 C.2       1 <0>         0.7130
     12 O2         -1.2788   -2.0925   -2.4138 O.2       1 <0>        -0.5251
     13 N3          0.9277   -6.0617   -1.2146 N.2       1 <0>        -0.4733
     14 C8          2.0620   -6.2277   -0.5637 C.2       1 <0>         0.3240
     15 N4          2.5813   -5.0097   -0.2467 N.pl3     1 <0>        -0.5074
     16 H2          3.4081   -4.8402    0.2314 H         1 <0>         0.4390
     17 C9          2.6738   -7.5314   -0.2301 C.ar      1 <0>         0.0248
     18 C10         3.8798   -7.5808    0.4710 C.ar      1 <0>        -0.1199
     19 C11         4.4451   -8.8008    0.7796 C.ar      1 <0>        -0.0151
     20 C12         3.8194   -9.9736    0.3957 C.ar      1 <0>        -0.6635
     21 C13         2.6239   -9.9316   -0.2994 C.ar      1 <0>        -0.0170
     22 C14         2.0451   -8.7184   -0.6097 C.ar      1 <0>        -0.0850
     23 S1          4.5486  -11.5275    0.7934 S.o2      1 <0>         2.6879
     24 O3          4.0484  -12.4644   -0.1507 O.2       1 <0>        -0.9450
     25 O4          5.9388  -11.2909    0.9687 O.2       1 <0>        -0.9463
     26 N5          3.9560  -11.9826    2.2713 N.pl3     1 <0>        -0.9937
     27 C15         4.6451  -11.5869    3.5076 C.3       1 <0>         0.1022
     28 C16         3.6469  -10.8532    4.4117 C.3       1 <0>         0.1039
     29 N6          2.4222  -11.6595    4.5105 N.pl3     1 <0>        -0.6237
     30 C17         1.7331  -12.0552    3.2742 C.3       1 <0>         0.1039
     31 C18         2.7282  -12.7842    2.3703 C.3       1 <0>         0.1023
     32 C19         1.9221  -12.0435    5.7576 C.ar      1 <0>         0.2242
     33 C20         2.6418  -11.7633    6.9121 C.ar      1 <0>        -0.1885
     34 C21         2.1449  -12.1435    8.1433 C.ar      1 <0>        -0.0586
     35 C22         0.9315  -12.8035    8.2275 C.ar      1 <0>        -0.0925
     36 C23         0.2124  -13.0839    7.0789 C.ar      1 <0>        -0.0585
     37 C24         0.7017  -12.7009    5.8455 C.ar      1 <0>        -0.1879
     38 Cl1         0.3105  -13.2809    9.7767 Cl        1 <0>        -0.0781
     39 H3          0.8506    1.8612   -0.0717 H         1 <0>         0.0593
     40 H4         -0.6954    1.8210   -0.9529 H         1 <0>         0.0605
     41 H5         -0.6852    1.8206    0.8271 H         1 <0>         0.0622
     42 H6          0.4012   -0.4084    0.8204 H         1 <0>         0.0676
     43 H7         -1.1448   -0.4486   -0.0608 H         1 <0>         0.0702
     44 H8          0.0719   -0.1992   -2.2069 H         1 <0>         0.1058
     45 H9          1.6180   -0.1590   -1.3257 H         1 <0>         0.1034
     46 H10         4.3694   -6.6661    0.7709 H         1 <0>         0.1345
     47 H11         5.3784   -8.8405    1.3217 H         1 <0>         0.1496
     48 H12         2.1405  -10.8507   -0.5961 H         1 <0>         0.1510
     49 H13         1.1096   -8.6870   -1.1485 H         1 <0>         0.1534
     50 H14         5.0178  -12.4745    4.0188 H         1 <0>         0.0852
     51 H15         5.4764  -10.9241    3.2670 H         1 <0>         0.1033
     52 H16         4.0795  -10.7221    5.4036 H         1 <0>         0.0989
     53 H17         3.4104   -9.8800    3.9815 H         1 <0>         0.0700
     54 H18         0.9018  -12.7180    3.5148 H         1 <0>         0.0993
     55 H19         1.3604  -11.1676    2.7630 H         1 <0>         0.0703
     56 H20         2.2938  -12.9120    1.3788 H         1 <0>         0.1044
     57 H21         2.9613  -13.7590    2.7987 H         1 <0>         0.0848
     58 H22         3.5892  -11.2489    6.8470 H         1 <0>         0.1320
     59 H23         2.7041  -11.9259    9.0413 H         1 <0>         0.1322
     60 H24        -0.7343  -13.5991    7.1475 H         1 <0>         0.1323
     61 H25         0.1380  -12.9161    4.9498 H         1 <0>         0.1321
@<TRIPOS>BOND
     1    1    2 1
     2    1   39 1
     3    1   40 1
     4    1   41 1
     5    2    3 1
     6    2   42 1
     7    2   43 1
     8    3    4 1
     9    3   44 1
    10    3   45 1
    11    4   11 am
    12    4    5 am
    13    5    6 2
    14    5    7 1
    15    7   15 1
    16    7    8 2
    17    8    9 1
    18    8   13 1
    19    9   10 1
    20    9   11 am
    21   11   12 2
    22   13   14 2
    23   14   15 1
    24   14   17 1
    25   15   16 1
    26   17   22 ar
    27   17   18 ar
    28   18   19 ar
    29   18   46 1
    30   19   20 ar
    31   19   47 1
    32   20   21 ar
    33   20   23 1
    34   21   22 ar
    35   21   48 1
    36   22   49 1
    37   23   24 2
    38   23   25 2
    39   23   26 1
    40   26   31 1
    41   26   27 1
    42   27   28 1
    43   27   50 1
    44   27   51 1
    45   28   29 1
    46   28   52 1
    47   28   53 1
    48   29   30 1
    49   29   32 1
    50   30   31 1
    51   30   54 1
    52   30   55 1
    53   31   56 1
    54   31   57 1
    55   32   37 ar
    56   32   33 ar
    57   33   34 ar
    58   33   58 1
    59   34   35 ar
    60   34   59 1
    61   35   36 ar
    62   35   38 1
    63   36   37 ar
    64   36   60 1
    65   37   61 1
@<TRIPOS>MOLECULE
ZINC49872110
   60    64     0     0     0
SMALL
USER_CHARGES

@<TRIPOS>ATOM
      1 C1         -0.0087    1.4698    0.1758 C.3       1 <0>        -0.1437
      2 C2          0.0091   -0.0598    0.1467 C.3       1 <0>        -0.1380
      3 C3         -1.4274   -0.5865    0.1454 C.3       1 <0>         0.1179
      4 N1         -1.4104   -2.0512    0.1175 N.am      1 <0>        -0.5339
      5 C4         -1.4042   -2.6970   -1.0823 C.2       1 <0>         0.5565
      6 O1         -1.4131   -1.9975   -2.2314 O.3       1 <0>        -0.5911
      7 C5         -1.3880   -4.0944   -1.1057 C.2       1 <0>        -0.1445
      8 C6         -1.3785   -4.7975    0.1221 C.2       1 <0>         0.2268
      9 N2         -1.3859   -4.0788    1.3054 N.am      1 <0>        -0.6082
     10 H1         -1.3792   -4.5450    2.1560 H         1 <0>         0.4219
     11 C7         -1.3958   -2.7325    1.2756 C.2       1 <0>         0.7117
     12 O2         -1.3965   -2.1171    2.3245 O.2       1 <0>        -0.5703
     13 N3         -1.3643   -6.0830   -0.1772 N.2       1 <0>        -0.5277
     14 C8         -1.3645   -6.2149   -1.5091 C.2       1 <0>         0.1454
     15 N4         -1.3787   -5.0233   -2.0795 N.2       1 <0>        -0.4344
     16 C9         -1.3503   -7.5066   -2.2364 C.ar      1 <0>         0.1099
     17 C10        -1.3456   -7.5247   -3.6305 C.ar      1 <0>        -0.1265
     18 C11        -1.3324   -8.7301   -4.3021 C.ar      1 <0>        -0.0212
     19 C12        -1.3243   -9.9190   -3.5949 C.ar      1 <0>        -0.6986
     20 C13        -1.3290   -9.9073   -2.2116 C.ar      1 <0>        -0.0229
     21 C14        -1.3359   -8.7079   -1.5291 C.ar      1 <0>        -0.1266
     22 S1         -1.3087  -11.4542   -4.4594 S.o2      1 <0>         2.6929
     23 O3         -1.8539  -12.4238   -3.5752 O.2       1 <0>        -0.9594
     24 O4         -1.8579  -11.2017   -5.7455 O.2       1 <0>        -0.9587
     25 N5          0.2775  -11.8674   -4.6950 N.pl3     1 <0>        -0.9977
     26 C15         0.9937  -11.4281   -5.9008 C.3       1 <0>         0.1058
     27 C16         2.2586  -10.6741   -5.4722 C.3       1 <0>         0.1011
     28 N6          2.9755  -11.4861   -4.4789 N.pl3     1 <0>        -0.6197
     29 C17         2.2593  -11.9254   -3.2731 C.3       1 <0>         0.1017
     30 C18         0.9960  -12.6747   -3.6991 C.3       1 <0>         0.1063
     31 C19         4.3141  -11.8347   -4.6777 C.ar      1 <0>         0.2303
     32 C20         4.9468  -11.5132   -5.8716 C.ar      1 <0>        -0.1906
     33 C21         6.2700  -11.8585   -6.0652 C.ar      1 <0>        -0.0581
     34 C22         6.9651  -12.5246   -5.0712 C.ar      1 <0>        -0.0974
     35 C23         6.3372  -12.8462   -3.8807 C.ar      1 <0>        -0.0582
     36 C24         5.0159  -12.4982   -3.6795 C.ar      1 <0>        -0.1905
     37 Cl1         8.6278  -12.9582   -5.3184 Cl        1 <0>        -0.0849
     38 H2          1.0147    1.8451    0.1768 H         1 <0>         0.0562
     39 H3         -0.5320    1.8439   -0.7041 H         1 <0>         0.0571
     40 H4         -0.5213    1.8102    1.0755 H         1 <0>         0.0558
     41 H5          0.5217   -0.4002   -0.7529 H         1 <0>         0.0689
     42 H6          0.5324   -0.4339    1.0267 H         1 <0>         0.0655
     43 H7         -1.9401   -0.2462    1.0450 H         1 <0>         0.0935
     44 H8         -1.9507   -0.2125   -0.7346 H         1 <0>         0.0973
     45 H9         -1.3525   -6.5971   -4.1836 H         1 <0>         0.1402
     46 H10        -1.3287   -8.7453   -5.3820 H         1 <0>         0.1341
     47 H11        -1.3230  -10.8386   -1.6647 H         1 <0>         0.1334
     48 H12        -1.3345   -8.6999   -0.4491 H         1 <0>         0.1385
     49 H13         1.2705  -12.2965   -6.4987 H         1 <0>         0.0790
     50 H14         0.3542  -10.7670   -6.4857 H         1 <0>         0.1035
     51 H15         2.8976  -10.5088   -6.3396 H         1 <0>         0.0965
     52 H16         1.9818   -9.7166   -5.0309 H         1 <0>         0.0763
     53 H17         2.8988  -12.5865   -2.6883 H         1 <0>         0.0962
     54 H18         1.9826  -11.0570   -2.6753 H         1 <0>         0.0751
     55 H19         0.3581  -12.8366   -2.8303 H         1 <0>         0.1033
     56 H20         1.2729  -13.6339   -4.1366 H         1 <0>         0.0785
     57 H21         4.4046  -10.9940   -6.6480 H         1 <0>         0.1327
     58 H22         6.7625  -11.6088   -6.9934 H         1 <0>         0.1303
     59 H23         6.8821  -13.3660   -3.1066 H         1 <0>         0.1302
     60 H24         4.5276  -12.7455   -2.7484 H         1 <0>         0.1323
@<TRIPOS>BOND
     1    1    2 1
     2    1   38 1
     3    1   39 1
     4    1   40 1
     5    2    3 1
     6    2   41 1
     7    2   42 1
     8    3    4 1
     9    3   43 1
    10    3   44 1
    11    4   11 am
    12    4    5 1
    13    5    6 1
    14    5    7 2
    15    7   15 1
    16    7    8 1
    17    8    9 1
    18    8   13 2
    19    9   10 1
    20    9   11 am
    21   11   12 2
    22   13   14 1
    23   14   15 2
    24   14   16 1
    25   16   21 ar
    26   16   17 ar
    27   17   18 ar
    28   17   45 1
    29   18   19 ar
    30   18   46 1
    31   19   20 ar
    32   19   22 1
    33   20   21 ar
    34   20   47 1
    35   21   48 1
    36   22   23 2
    37   22   24 2
    38   22   25 1
    39   25   30 1
    40   25   26 1
    41   26   27 1
    42   26   49 1
    43   26   50 1
    44   27   28 1
    45   27   51 1
    46   27   52 1
    47   28   29 1
    48   28   31 1
    49   29   30 1
    50   29   53 1
    51   29   54 1
    52   30   55 1
    53   30   56 1
    54   31   36 ar
    55   31   32 ar
    56   32   33 ar
    57   32   57 1
    58   33   34 ar
    59   33   58 1
    60   34   35 ar
    61   34   37 1
    62   35   36 ar
    63   35   59 1
    64   36   60 1
@<TRIPOS>MOLECULE
ZINC20432232
   28    30     0     0     0
SMALL
USER_CHARGES
2-amino-4,6-bis(2-furyl)pyridine-3-carbonitrile
@<TRIPOS>ATOM
      1 C1          1.1052    1.9309    0.0019 C.2       1 <0>        -0.2154
      2 C2         -0.0126    1.0758    0.0080 C.2       1 <0>        -0.1594
      3 C3         -1.1164    1.8736    0.0168 C.2       1 <0>        -0.0085
      4 O1         -0.7053    3.1569    0.0250 O.3       1 <0>        -0.1622
      5 C4          0.6361    3.1954    0.0127 C.2       1 <0>        -0.0183
      6 C5         -2.5167    1.4135    0.0205 C.ar      1 <0>         0.1293
      7 C6         -2.9629    0.4672   -0.9036 C.ar      1 <0>        -0.1995
      8 C7         -4.2927    0.0530   -0.8648 C.ar      1 <0>         0.2972
      9 N1         -5.1433    0.5526    0.0301 N.ar      1 <0>        -0.5318
     10 C8         -4.7722    1.4539    0.9220 C.ar      1 <0>         0.4787
     11 C9         -3.4474    1.9235    0.9577 C.ar      1 <0>        -0.1488
     12 C10        -3.0463    2.9000    1.9252 C.1       1 <0>         0.2580
     13 N2         -2.7281    3.6747    2.6927 N.1       1 <0>        -0.4074
     14 N3         -5.6966    1.9410    1.8298 N.pl3     1 <0>        -0.8554
     15 C11        -4.7681   -0.9506   -1.8352 C.2       1 <0>        -0.0020
     16 C12        -6.0332   -1.4472   -1.9167 C.2       1 <0>        -0.1314
     17 C13        -6.0390   -2.3690   -2.9802 C.2       1 <0>        -0.2232
     18 C14        -4.7888   -2.3976   -3.4857 C.2       1 <0>        -0.0092
     19 O2         -4.0245   -1.5401   -2.7920 O.3       1 <0>        -0.1650
     20 H1          2.1427    1.6311   -0.0093 H         1 <0>         0.1564
     21 H2          0.0021   -0.0041    0.0020 H         1 <0>         0.1573
     22 H3          1.2400    4.0908    0.0119 H         1 <0>         0.2088
     23 H4         -2.2845    0.0581   -1.6375 H         1 <0>         0.1530
     24 H5         -5.3933    2.6915    2.5746 H         1 <0>         0.4346
     25 H6         -6.7346    1.5776    1.8064 H         1 <0>         0.4373
     26 H7         -6.8709   -1.1832   -1.2882 H         1 <0>         0.1599
     27 H8         -6.8838   -2.9473   -3.3240 H         1 <0>         0.1559
     28 H9         -4.4577   -3.0097   -4.3115 H         1 <0>         0.2113
@<TRIPOS>BOND
     1    1    5 2
     2    1    2 1
     3    1   20 1
     4    2    3 2
     5    2   21 1
     6    3    4 1
     7    3    6 1
     8    4    5 1
     9    5   22 1
    10    6   11 ar
    11    6    7 ar
    12    7    8 ar
    13    7   23 1
    14    8    9 ar
    15    8   15 1
    16    9   10 ar
    17   10   11 ar
    18   10   14 1
    19   11   12 1
    20   12   13 3
    21   14   24 1
    22   14   25 1
    23   15   19 1
    24   15   16 2
    25   16   17 1
    26   16   26 1
    27   17   18 2
    28   17   27 1
    29   18   19 1
    30   18   28 1
@<TRIPOS>MOLECULE
ZINC00198826
   32    34     0     0     0
SMALL
USER_CHARGES

@<TRIPOS>ATOM
      1 C1         -0.0178    1.4608    0.0101 C.3       1 <0>         0.1058
      2 N1          0.0021   -0.0041    0.0020 N.am      1 <0>        -0.4961
      3 C2         -1.1923   -0.7155    0.0039 C.2       1 <0>         0.0080
      4 C3         -1.1511   -2.1069   -0.0039 C.2       1 <0>        -0.0889
      5 C4          0.1087   -2.7496   -0.0133 C.2       1 <0>         0.5855
      6 O1          0.1781   -3.9657   -0.0206 O.2       1 <0>        -0.5491
      7 N2          1.2318   -2.0043   -0.0146 N.am      1 <0>        -0.5545
      8 C5          1.1772   -0.6615   -0.0127 C.2       1 <0>         0.6875
      9 O2          2.2135   -0.0252   -0.0197 O.2       1 <0>        -0.5803
     10 C6          2.5365   -2.6705   -0.0245 C.3       1 <0>         0.0898
     11 N3         -2.4503   -2.5684    0.0003 N.pl3     1 <0>        -0.5131
     12 H1         -2.7200   -3.5002   -0.0029 H         1 <0>         0.4088
     13 C7         -3.2978   -1.4902    0.0104 C.2       1 <0>        -0.0879
     14 C8         -2.5414   -0.3376    0.0128 C.2       1 <0>         0.2362
     15 O3         -3.0191    0.9374    0.0230 O.3       1 <0>        -0.7193
     16 C9         -4.7736   -1.5533    0.0166 C.ar      1 <0>         0.0422
     17 C10        -5.5144   -0.7296   -0.8335 C.ar      1 <0>        -0.0906
     18 C11        -6.8923   -0.7936   -0.8225 C.ar      1 <0>        -0.1210
     19 C12        -7.5405   -1.6714    0.0283 C.ar      1 <0>        -0.1463
     20 C13        -6.8126   -2.4901    0.8737 C.ar      1 <0>        -0.1228
     21 C14        -5.4341   -2.4409    0.8685 C.ar      1 <0>        -0.1364
     22 H2          1.0048    1.8381    0.0023 H         1 <0>         0.0811
     23 H3         -0.5450    1.8219   -0.8730 H         1 <0>         0.0721
     24 H4         -0.5280    1.8123    0.9069 H         1 <0>         0.0720
     25 H5          2.8552   -2.8302   -1.0545 H         1 <0>         0.0654
     26 H6          3.2673   -2.0459    0.4893 H         1 <0>         0.0878
     27 H7          2.4578   -3.6311    0.4846 H         1 <0>         0.0858
     28 H8         -5.0097   -0.0438   -1.4978 H         1 <0>         0.1272
     29 H9         -7.4664   -0.1569   -1.4792 H         1 <0>         0.1152
     30 H10        -8.6195   -1.7175    0.0329 H         1 <0>         0.1112
     31 H11        -7.3249   -3.1728    1.5355 H         1 <0>         0.1125
     32 H12        -4.8670   -3.0841    1.5251 H         1 <0>         0.1121
@<TRIPOS>BOND
     1    1    2 1
     2    1   22 1
     3    1   23 1
     4    1   24 1
     5    2    8 am
     6    2    3 1
     7    3   14 1
     8    3    4 2
     9    4    5 1
    10    4   11 1
    11    5    6 2
    12    5    7 am
    13    7    8 am
    14    7   10 1
    15    8    9 2
    16   10   25 1
    17   10   26 1
    18   10   27 1
    19   11   12 1
    20   11   13 1
    21   13   14 2
    22   13   16 1
    23   14   15 1
    24   16   21 ar
    25   16   17 ar
    26   17   18 ar
    27   17   28 1
    28   18   19 ar
    29   18   29 1
    30   19   20 ar
    31   19   30 1
    32   20   21 ar
    33   20   31 1
    34   21   32 1
@<TRIPOS>MOLECULE
ZINC18207215
   54    58     0     0     0
SMALL
USER_CHARGES

@<TRIPOS>ATOM
      1 C1         -0.0187    1.5258    0.0104 C.3       1 <0>        -0.1472
      2 C2          0.0021   -0.0041    0.0020 C.3       1 <0>        -0.1379
      3 C3         -1.4333   -0.5336    0.0129 C.3       1 <0>         0.1191
      4 N1         -1.4134   -1.9985    0.0048 N.am      1 <0>        -0.5073
      5 C4         -1.3926   -2.6965    1.2014 C.2       1 <0>         0.3253
      6 C5         -1.3745   -4.0853    1.1673 C.2       1 <0>        -0.1553
      7 C6         -1.3778   -4.7426   -0.0818 C.2       1 <0>         0.5939
      8 O1         -1.3626   -5.9592   -0.1378 O.2       1 <0>        -0.5125
      9 N2         -1.3985   -4.0075   -1.2131 N.am      1 <0>        -0.5487
     10 C7         -1.4211   -2.6644   -1.1653 C.2       1 <0>         0.7072
     11 O2         -1.4445   -2.0347   -2.2054 O.2       1 <0>        -0.5296
     12 C8         -1.4021   -4.6834   -2.5128 C.3       1 <0>         0.1138
     13 C9         -2.8457   -4.9379   -2.9514 C.3       1 <0>        -0.1378
     14 C10        -2.8494   -5.6438   -4.3088 C.3       1 <0>        -0.1472
     15 N3         -1.3562   -4.5039    2.4827 N.pl3     1 <0>        -0.5130
     16 C11        -1.3635   -3.3955    3.2487 C.2       1 <0>         0.3244
     17 N4         -1.3850   -2.3321    2.4862 N.2       1 <0>        -0.4864
     18 H1         -1.3410   -5.4217    2.7960 H         1 <0>         0.4346
     19 C12        -1.3491   -3.3823    4.7555 C.3       1 <0>         0.0007
     20 C13        -0.3830   -4.4298    5.3831 C.3       1 <0>        -0.1187
     21 C14        -0.1207   -3.7936    6.7774 C.3       1 <0>        -0.0896
     22 H2          0.6849   -4.2848    7.3232 H         1 <0>         0.0922
     23 C15        -1.4390   -3.7841    7.5562 C.3       1 <0>        -0.1073
     24 C16        -2.5864   -3.0979    6.8097 C.3       1 <0>        -0.0926
     25 H3         -3.5164   -3.0994    7.3782 H         1 <0>         0.0936
     26 C17        -2.7211   -3.7395    5.3994 C.3       1 <0>        -0.1093
     27 C18        -2.1308   -1.6708    6.4004 C.3       1 <0>        -0.1188
     28 C19        -0.9534   -2.0058    5.3650 C.3       1 <0>        -0.0740
     29 C20         0.2357   -2.3440    6.3494 C.3       1 <0>        -0.1216
     30 H4          1.0039    1.9031    0.0027 H         1 <0>         0.0607
     31 H5         -0.5459    1.8868   -0.8726 H         1 <0>         0.0588
     32 H6         -0.5289    1.8773    0.9072 H         1 <0>         0.0589
     33 H7          0.5123   -0.3556   -0.8948 H         1 <0>         0.0676
     34 H8          0.5293   -0.3651    0.8851 H         1 <0>         0.0678
     35 H9         -1.9435   -0.1821    0.9097 H         1 <0>         0.0985
     36 H10        -1.9605   -0.1726   -0.8702 H         1 <0>         0.0999
     37 H11        -0.9037   -4.0548   -3.2507 H         1 <0>         0.1031
     38 H12        -0.8748   -5.6338   -2.4296 H         1 <0>         0.1013
     39 H13        -3.3441   -5.5666   -2.2135 H         1 <0>         0.0670
     40 H14        -3.3730   -3.9876   -3.0346 H         1 <0>         0.0692
     41 H15        -2.3510   -5.0151   -5.0466 H         1 <0>         0.0599
     42 H16        -2.3221   -6.5941   -4.2256 H         1 <0>         0.0588
     43 H17        -3.8778   -5.8251   -4.6212 H         1 <0>         0.0614
     44 H18        -0.8668   -5.4018    5.4797 H         1 <0>         0.0762
     45 H19         0.5392   -4.5078    4.8073 H         1 <0>         0.0714
     46 H20        -1.7268   -4.8139    7.7674 H         1 <0>         0.0629
     47 H21        -1.2810   -3.2679    8.5031 H         1 <0>         0.0662
     48 H22        -3.5451   -3.3020    4.8358 H         1 <0>         0.0740
     49 H23        -2.8416   -4.8188    5.4935 H         1 <0>         0.0719
     50 H24        -2.9334   -1.1324    5.8963 H         1 <0>         0.0677
     51 H25        -1.7679   -1.1124    7.2632 H         1 <0>         0.0742
     52 H26        -0.7411   -1.2390    4.6199 H         1 <0>         0.1113
     53 H27         0.2376   -1.6711    7.2069 H         1 <0>         0.0747
     54 H28         1.1918   -2.3132    5.8269 H         1 <0>         0.0663
@<TRIPOS>BOND
     1    1    2 1
     2    1   30 1
     3    1   31 1
     4    1   32 1
     5    2    3 1
     6    2   33 1
     7    2   34 1
     8    3   35 1
     9    3   36 1
    10    3    4 1
    11    4    5 1
    12    4   10 am
    13    5   17 1
    14    5    6 2
    15    6    7 1
    16    6   15 1
    17    7    9 am
    18    7    8 2
    19    9   10 am
    20    9   12 1
    21   10   11 2
    22   12   13 1
    23   12   37 1
    24   12   38 1
    25   13   14 1
    26   13   39 1
    27   13   40 1
    28   14   41 1
    29   14   42 1
    30   14   43 1
    31   15   18 1
    32   15   16 1
    33   16   19 1
    34   16   17 2
    35   19   26 1
    36   19   28 1
    37   19   20 1
    38   20   21 1
    39   20   44 1
    40   20   45 1
    41   21   22 1
    42   21   29 1
    43   21   23 1
    44   23   24 1
    45   23   46 1
    46   23   47 1
    47   24   25 1
    48   24   26 1
    49   24   27 1
    50   26   48 1
    51   26   49 1
    52   27   28 1
    53   27   50 1
    54   27   51 1
    55   28   29 1
    56   28   52 1
    57   29   53 1
    58   29   54 1
@<TRIPOS>MOLECULE
ZINC18207215
   55    59     0     0     0
SMALL
USER_CHARGES
1,3-dipropyl-8-BLAHyl-7H-purine-2,6-dione
@<TRIPOS>ATOM
      1 C1         -2.3129    4.8502   -5.0821 C.3       1 <0>        -0.1537
      2 C2         -0.9968    5.2159   -4.3928 C.3       1 <0>        -0.1442
      3 C3          0.1042    4.2595   -4.8554 C.3       1 <0>         0.0949
      4 N1          1.3644    4.6097   -4.1955 N.am      1 <0>        -0.5097
      5 C4          1.6928    4.0312   -2.9801 C.2       1 <0>         0.3509
      6 C5          2.8934    4.3796   -2.3743 C.2       1 <0>        -0.0751
      7 C6          3.7415    5.3099   -3.0130 C.2       1 <0>         0.5886
      8 O1          4.7990    5.6317   -2.5017 O.2       1 <0>        -0.4630
      9 N2          3.3660    5.8398   -4.1957 N.am      1 <0>        -0.5390
     10 C7          2.2013    5.4937   -4.7707 C.2       1 <0>         0.7080
     11 O2          1.8961    5.9911   -5.8375 O.2       1 <0>        -0.4799
     12 C8          4.2408    6.8070   -4.8632 C.3       1 <0>         0.1068
     13 C9          3.8828    8.2213   -4.4024 C.3       1 <0>        -0.1382
     14 C10         4.7964    9.2314   -5.0996 C.3       1 <0>        -0.1511
     15 N3          2.9548    3.6614   -1.1969 N.pl3     1 <0>        -0.4517
     16 H1          3.6944    3.6838   -0.5243 H         1 <0>         0.4836
     17 C11         1.8290    2.9246   -1.1261 C.cat     1 <0>         0.4103
     18 C12         1.4760    1.9857   -0.0014 C.3       1 <0>        -0.0447
     19 C13         1.7539    2.5449    1.4258 C.3       1 <0>        -0.1138
     20 C14         0.7636    1.7031    2.2757 C.3       1 <0>        -0.0856
     21 H2          0.6664    2.0677    3.2984 H         1 <0>         0.1085
     22 C15         1.1777    0.2311    2.1968 C.3       1 <0>        -0.1184
     23 C16         1.3277   -0.2870    0.7638 C.3       1 <0>        -0.0867
     24 H3          1.6304   -1.3330    0.7147 H         1 <0>         0.1082
     25 C17         2.2891    0.6570   -0.0086 C.3       1 <0>        -0.1090
     26 C18         0.0021   -0.0041    0.0020 C.3       1 <0>        -0.1233
     27 C19        -0.0190    1.5528    0.0106 C.3       1 <0>        -0.0898
     28 C20        -0.5347    1.8895    1.4407 C.3       1 <0>        -0.1202
     29 H4         -3.0972    5.5316   -4.7525 H         1 <0>         0.0721
     30 H5         -2.1919    4.9307   -6.1623 H         1 <0>         0.0685
     31 H6         -2.5871    3.8277   -4.8224 H         1 <0>         0.0604
     32 H7         -1.1178    5.1354   -3.3126 H         1 <0>         0.0636
     33 H8         -0.7226    6.2384   -4.6525 H         1 <0>         0.0836
     34 H9          0.2252    4.3400   -5.9357 H         1 <0>         0.1287
     35 H10        -0.1700    3.2370   -4.5957 H         1 <0>         0.0959
     36 H11         5.2790    6.5938   -4.6088 H         1 <0>         0.1127
     37 H12         4.1084    6.7321   -5.9426 H         1 <0>         0.1138
     38 H13         2.8446    8.4345   -4.6568 H         1 <0>         0.0711
     39 H14         4.0152    8.2962   -3.3231 H         1 <0>         0.0696
     40 H15         5.8347    9.0182   -4.8452 H         1 <0>         0.0626
     41 H16         4.6641    9.1565   -6.1789 H         1 <0>         0.0633
     42 H17         4.5414   10.2390   -4.7713 H         1 <0>         0.0674
     43 H18         2.7850    2.3587    1.7261 H         1 <0>         0.0932
     44 H19         1.5167    3.6072    1.4838 H         1 <0>         0.0820
     45 H20         0.4263   -0.3705    2.7083 H         1 <0>         0.0779
     46 H21         2.1296    0.1083    2.7135 H         1 <0>         0.0732
     47 H22         3.2346    0.7728    0.5213 H         1 <0>         0.0933
     48 H23         2.4527    0.3028   -1.0264 H         1 <0>         0.0805
     49 H24        -0.8543   -0.4113    0.5395 H         1 <0>         0.0902
     50 H25         0.0434   -0.3906   -1.0163 H         1 <0>         0.0747
     51 H26        -0.6075    1.9886   -0.7968 H         1 <0>         0.0849
     52 H27        -0.8935    2.9172    1.4969 H         1 <0>         0.0754
     53 H28        -1.3076    1.1880    1.7547 H         1 <0>         0.0898
     54 N4          1.0892    3.1423   -2.1849 N.pl3     1 <0>        -0.4924
     55 H29         0.1834    2.6978   -2.3751 H         1 <0>         0.4811
@<TRIPOS>BOND
     1    1    2 1
     2    1   29 1
     3    1   30 1
     4    1   31 1
     5    2    3 1
     6    2   32 1
     7    2   33 1
     8    3    4 1
     9    3   34 1
    10    3   35 1
    11    4   10 am
    12    4    5 1
    13    5    6 2
    14    5   54 1
    15    6    7 1
    16    6   15 1
    17    7    8 2
    18    7    9 am
    19    9   10 am
    20    9   12 1
    21   10   11 2
    22   12   13 1
    23   12   36 1
    24   12   37 1
    25   13   14 1
    26   13   38 1
    27   13   39 1
    28   14   40 1
    29   14   41 1
    30   14   42 1
    31   15   16 1
    32   15   17 1
    33   17   18 1
    34   17   54 2
    35   18   25 1
    36   18   27 1
    37   18   19 1
    38   19   20 1
    39   19   43 1
    40   19   44 1
    41   20   21 1
    42   20   28 1
    43   20   22 1
    44   22   23 1
    45   22   45 1
    46   22   46 1
    47   23   24 1
    48   23   25 1
    49   23   26 1
    50   25   47 1
    51   25   48 1
    52   26   27 1
    53   26   49 1
    54   26   50 1
    55   27   28 1
    56   27   51 1
    57   28   52 1
    58   28   53 1
    59   54   55 1
@<TRIPOS>MOLECULE
ZINC01033985
   42    45     0     0     0
SMALL
USER_CHARGES
(2-anilino-4-phenyl-thiazol-5-yl)-phenyl-methanone
@<TRIPOS>ATOM
      1 C1        -10.0248    3.6951   -0.9751 C.ar      1 <0>        -0.1061
      2 C2         -9.7075    2.6018   -0.1888 C.ar      1 <0>        -0.1185
      3 C3         -8.3875    2.2640    0.0278 C.ar      1 <0>        -0.0983
      4 C4         -7.3716    3.0272   -0.5484 C.ar      1 <0>        -0.0368
      5 C5         -7.6980    4.1313   -1.3364 C.ar      1 <0>        -0.0790
      6 C6         -9.0219    4.4559   -1.5493 C.ar      1 <0>        -0.1235
      7 C7         -5.9530    2.6705   -0.3196 C.2       1 <0>         0.2087
      8 C8         -5.5177    1.3371   -0.3662 C.2       1 <0>        -0.3280
      9 S1         -3.7766    1.5478   -0.0236 S.3       1 <0>         0.1434
     10 C9         -3.7798    3.2759    0.1406 C.2       1 <0>         0.3365
     11 N1         -5.0493    3.5890   -0.0587 N.2       1 <0>        -0.5591
     12 N2         -2.7215    4.1145    0.4166 N.pl3     1 <0>        -0.6060
     13 C10        -1.4223    3.6025    0.4805 C.ar      1 <0>         0.1503
     14 C11        -1.0436    2.5588   -0.3542 C.ar      1 <0>        -0.1583
     15 C12         0.2390    2.0516   -0.2845 C.ar      1 <0>        -0.0817
     16 C13         1.1493    2.5891    0.6070 C.ar      1 <0>        -0.1318
     17 C14         0.7772    3.6320    1.4355 C.ar      1 <0>        -0.0863
     18 C15        -0.5055    4.1401    1.3750 C.ar      1 <0>        -0.1384
     19 C16        -6.2525    0.1554   -0.6154 C.2       1 <0>         0.5018
     20 O1         -6.7764   -0.4425    0.3081 O.2       1 <0>        -0.4307
     21 C17        -6.3855   -0.3554   -1.9975 C.ar      1 <0>        -0.1600
     22 C18        -5.7017    0.2665   -3.0434 C.ar      1 <0>        -0.0627
     23 C19        -5.8266   -0.2175   -4.3292 C.ar      1 <0>        -0.1326
     24 C20        -6.6355   -1.3106   -4.5847 C.ar      1 <0>        -0.0846
     25 C21        -7.3198   -1.9287   -3.5531 C.ar      1 <0>        -0.1320
     26 C22        -7.1998   -1.4577   -2.2621 C.ar      1 <0>        -0.0581
     27 H1        -11.0596    3.9555   -1.1417 H         1 <0>         0.1257
     28 H2        -10.4948    2.0119    0.2567 H         1 <0>         0.1278
     29 H3         -8.1411    1.4104    0.6418 H         1 <0>         0.1291
     30 H4         -6.9160    4.7286   -1.7814 H         1 <0>         0.1264
     31 H5         -9.2760    5.3082   -2.1621 H         1 <0>         0.1269
     32 H6         -2.8781    5.0600    0.5665 H         1 <0>         0.4282
     33 H7         -1.7526    2.1415   -1.0539 H         1 <0>         0.1299
     34 H8          0.5329    1.2372   -0.9302 H         1 <0>         0.1328
     35 H9          2.1531    2.1938    0.6562 H         1 <0>         0.1300
     36 H10         1.4906    4.0497    2.1305 H         1 <0>         0.1330
     37 H11        -0.7953    4.9548    2.0220 H         1 <0>         0.1319
     38 H12        -5.0732    1.1223   -2.8459 H         1 <0>         0.1253
     39 H13        -5.2954    0.2607   -5.1389 H         1 <0>         0.1295
     40 H14        -6.7334   -1.6828   -5.5938 H         1 <0>         0.1289
     41 H15        -7.9496   -2.7816   -3.7592 H         1 <0>         0.1313
     42 H16        -7.7351   -1.9406   -1.4579 H         1 <0>         0.1352
@<TRIPOS>BOND
     1    1    6 ar
     2    1    2 ar
     3    1   27 1
     4    2    3 ar
     5    2   28 1
     6    3    4 ar
     7    3   29 1
     8    4    5 ar
     9    4    7 1
    10    5    6 ar
    11    5   30 1
    12    6   31 1
    13    7   11 1
    14    7    8 2
    15    8    9 1
    16    8   19 1
    17    9   10 1
    18   10   11 2
    19   10   12 1
    20   12   13 1
    21   12   32 1
    22   13   18 ar
    23   13   14 ar
    24   14   15 ar
    25   14   33 1
    26   15   16 ar
    27   15   34 1
    28   16   17 ar
    29   16   35 1
    30   17   18 ar
    31   17   36 1
    32   18   37 1
    33   19   20 2
    34   19   21 1
    35   21   26 ar
    36   21   22 ar
    37   22   23 ar
    38   22   38 1
    39   23   24 ar
    40   23   39 1
    41   24   25 ar
    42   24   40 1
    43   25   26 ar
    44   25   41 1
    45   26   42 1
@<TRIPOS>MOLECULE
ZINC44672349
   43    46     0     0     0
SMALL
USER_CHARGES

@<TRIPOS>ATOM
      1 C1         -0.0167    1.3791    0.0096 C.ar      1 <0>        -0.1012
      2 C2          1.1686    2.0923    0.0021 C.ar      1 <0>        -0.1325
      3 C3          2.3774    1.4268   -0.0134 C.ar      1 <0>        -0.0711
      4 C4          2.4025    0.0330   -0.0211 C.ar      1 <0>        -0.0416
      5 C5          1.2049   -0.6804   -0.0130 C.ar      1 <0>        -0.0690
      6 C6          0.0021   -0.0041    0.0020 C.ar      1 <0>        -0.1326
      7 C7          3.6980   -0.6878   -0.0382 C.ar      1 <0>         0.4246
      8 N1          4.8185    0.0166   -0.0406 N.ar      1 <0>        -0.5645
      9 C8          6.0018   -0.5911   -0.0558 C.ar      1 <0>         0.3460
     10 C9          6.0377   -1.9989   -0.0694 C.ar      1 <0>        -0.2690
     11 C10         7.4507   -2.3704   -0.0842 C.2       1 <0>        -0.1644
     12 C11         8.1541   -1.2257   -0.0791 C.2       1 <0>         0.0396
     13 N2          7.2986   -0.1545   -0.0622 N.pl3     1 <0>        -0.5698
     14 H1          7.5724    0.7760   -0.0561 H         1 <0>         0.4221
     15 C12         4.8247   -2.7066   -0.0662 C.ar      1 <0>         0.4964
     16 N3          3.6900   -2.0168   -0.0452 N.ar      1 <0>        -0.5863
     17 N4          4.8121   -4.0899   -0.0796 N.pl3     1 <0>        -0.6981
     18 C13         3.5368   -4.8109   -0.0761 C.3       1 <0>         0.1556
     19 C14         3.0191   -4.9384   -1.5102 C.3       1 <0>        -0.1235
     20 C15         1.6873   -5.6914   -1.5065 C.3       1 <0>        -0.1092
     21 C16         1.8917   -7.0864   -0.9121 C.3       1 <0>         0.1019
     22 C17         2.4094   -6.9588    0.5220 C.3       1 <0>        -0.1476
     23 C18         3.7412   -6.2058    0.5183 C.3       1 <0>        -0.1239
     24 O1          2.8430   -7.8051   -1.6998 O.3       1 <0>        -0.5631
     25 H2         -0.9603    1.9042    0.0260 H         1 <0>         0.1237
     26 H3          1.1479    3.1721    0.0081 H         1 <0>         0.1260
     27 H4          3.3021    1.9846   -0.0199 H         1 <0>         0.1346
     28 H5          1.2183   -1.7603   -0.0192 H         1 <0>         0.1354
     29 H6         -0.9264   -0.5557    0.0079 H         1 <0>         0.1263
     30 H7          7.8527   -3.3728   -0.0966 H         1 <0>         0.1492
     31 H8          9.2320   -1.1593   -0.0872 H         1 <0>         0.1802
     32 H9          5.6477   -4.5824   -0.0913 H         1 <0>         0.4102
     33 H10         2.8112   -4.2627    0.5247 H         1 <0>         0.0904
     34 H11         2.8735   -3.9447   -1.9336 H         1 <0>         0.0671
     35 H12         3.7448   -5.4866   -2.1110 H         1 <0>         0.0700
     36 H13         0.9616   -5.1432   -0.9057 H         1 <0>         0.0780
     37 H14         1.3185   -5.7823   -2.5282 H         1 <0>         0.0715
     38 H15         0.9428   -7.6228   -0.9095 H         1 <0>         0.0566
     39 H16         1.6837   -6.4106    1.1228 H         1 <0>         0.0756
     40 H17         2.5550   -7.9526    0.9455 H         1 <0>         0.0699
     41 H18         4.4669   -6.7540   -0.0825 H         1 <0>         0.0738
     42 H19         4.1100   -6.1149    1.5400 H         1 <0>         0.0669
     43 H20         3.0221   -8.7000   -1.3804 H         1 <0>         0.3758
@<TRIPOS>BOND
     1    1    6 ar
     2    1    2 ar
     3    1   25 1
     4    2    3 ar
     5    2   26 1
     6    3    4 ar
     7    3   27 1
     8    4    5 ar
     9    4    7 1
    10    5    6 ar
    11    5   28 1
    12    6   29 1
    13    7   16 ar
    14    7    8 ar
    15    8    9 ar
    16    9   13 1
    17    9   10 ar
    18   10   11 1
    19   10   15 ar
    20   11   12 2
    21   11   30 1
    22   12   13 1
    23   12   31 1
    24   13   14 1
    25   15   16 ar
    26   15   17 1
    27   17   18 1
    28   17   32 1
    29   18   23 1
    30   18   19 1
    31   18   33 1
    32   19   20 1
    33   19   34 1
    34   19   35 1
    35   20   21 1
    36   20   36 1
    37   20   37 1
    38   21   22 1
    39   21   24 1
    40   21   38 1
    41   22   23 1
    42   22   39 1
    43   22   40 1
    44   23   41 1
    45   23   42 1
    46   24   43 1
