@<TRIPOS>MOLECULE
ZINC03811810
   48    51     0     0     0
SMALL
USER_CHARGES

@<TRIPOS>ATOM
      1 C1         -0.0178    1.4608    0.0101 C.3       1 <0>         0.0858
      2 N1          0.0021   -0.0041    0.0020 N.am      1 <0>        -0.7308
      3 C2         -1.1558   -0.6938    0.0094 C.2       1 <0>         0.5149
      4 O1         -2.2142   -0.1017    0.0227 O.2       1 <0>        -0.5024
      5 C3         -1.1354   -2.2006    0.0011 C.3       1 <0>         0.0320
      6 H1         -0.5471   -2.5799    0.8366 H         1 <0>         0.1225
      7 C4         -0.5782   -2.7315   -1.3443 C.3       1 <0>         0.0506
      8 H2         -0.9118   -2.1105   -2.1757 H         1 <0>         0.0948
      9 C5         -1.2083   -4.1435   -1.4217 C.3       1 <0>         0.0832
     10 H3         -1.5347   -4.3603   -2.4388 H         1 <0>         0.0899
     11 C6         -2.4187   -4.0695   -0.4709 C.3       1 <0>         0.3144
     12 H4         -2.2882   -4.7738    0.3507 H         1 <0>         0.1316
     13 O2         -2.4789   -2.7275    0.0446 O.3       1 <0>        -0.3270
     14 N2         -3.6479   -4.3821   -1.2041 N.pl3     1 <0>        -0.4753
     15 C7         -4.4978   -3.4819   -1.7747 C.2       1 <0>         0.2660
     16 N3         -5.4881   -4.1049   -2.3448 N.2       1 <0>        -0.4586
     17 C8         -5.3371   -5.4406   -2.1768 C.ar      1 <0>        -0.1040
     18 C9         -4.1517   -5.6348   -1.4476 C.ar      1 <0>         0.3101
     19 N4         -3.7707   -6.8732   -1.1522 N.ar      1 <0>        -0.5538
     20 C10        -4.4895   -7.9064   -1.5380 C.ar      1 <0>         0.3661
     21 N5         -5.6079   -7.7739   -2.2273 N.ar      1 <0>        -0.5871
     22 C11        -6.0726   -6.5743   -2.5614 C.ar      1 <0>         0.5073
     23 N6         -7.2452   -6.4456   -3.2850 N.pl3     1 <0>        -0.6904
     24 C12        -7.9987   -7.6392   -3.6772 C.3       1 <0>         0.1703
     25 C13        -9.2253   -7.2276   -4.4499 C.ar      1 <0>        -0.1092
     26 C14       -10.4099   -6.9750   -3.7831 C.ar      1 <0>        -0.0788
     27 C15       -11.5351   -6.5975   -4.4915 C.ar      1 <0>        -0.1155
     28 C16       -11.4764   -6.4722   -5.8670 C.ar      1 <0>        -0.0754
     29 C17       -10.2918   -6.7247   -6.5341 C.ar      1 <0>        -0.1026
     30 C18        -9.1645   -7.0970   -5.8244 C.ar      1 <0>        -0.0641
     31 I1        -10.2026   -6.5356   -8.6187 I         1 <0>        -0.0379
     32 O3         -0.2777   -5.1316   -0.9750 O.3       1 <0>        -0.5314
     33 O4          0.8483   -2.8101   -1.3100 O.3       1 <0>        -0.5362
     34 H5          1.0048    1.8381    0.0023 H         1 <0>         0.0830
     35 H6         -0.5450    1.8219   -0.8730 H         1 <0>         0.0653
     36 H7         -0.5280    1.8123    0.9069 H         1 <0>         0.0657
     37 H8          0.8486   -0.4776   -0.0086 H         1 <0>         0.3996
     38 H9         -4.3686   -2.4098   -1.7561 H         1 <0>         0.2242
     39 H10        -4.1517   -8.8996   -1.2813 H         1 <0>         0.2060
     40 H11        -7.5682   -5.5651   -3.5326 H         1 <0>         0.4195
     41 H12        -7.3721   -8.2754   -4.3023 H         1 <0>         0.0825
     42 H13        -8.2988   -8.1888   -2.7851 H         1 <0>         0.0840
     43 H14       -10.4561   -7.0732   -2.7086 H         1 <0>         0.1321
     44 H15       -12.4604   -6.4006   -3.9704 H         1 <0>         0.1349
     45 H16       -12.3557   -6.1775   -6.4205 H         1 <0>         0.1316
     46 H17        -8.2379   -7.2896   -6.3447 H         1 <0>         0.1313
     47 H18         0.5294   -5.1801   -1.5054 H         1 <0>         0.3970
     48 H19         1.2858   -1.9588   -1.1720 H         1 <0>         0.3844
@<TRIPOS>BOND
     1    1    2 1
     2    1   34 1
     3    1   35 1
     4    1   36 1
     5    2    3 am
     6    2   37 1
     7    3    4 2
     8    3    5 1
     9    5    6 1
    10    5   13 1
    11    5    7 1
    12    7    8 1
    13    7    9 1
    14    7   33 1
    15    9   10 1
    16    9   11 1
    17    9   32 1
    18   11   12 1
    19   11   13 1
    20   11   14 1
    21   14   18 1
    22   14   15 1
    23   15   16 2
    24   15   38 1
    25   16   17 1
    26   17   22 ar
    27   17   18 ar
    28   18   19 ar
    29   19   20 ar
    30   20   21 ar
    31   20   39 1
    32   21   22 ar
    33   22   23 1
    34   23   24 1
    35   23   40 1
    36   24   25 1
    37   24   41 1
    38   24   42 1
    39   25   30 ar
    40   25   26 ar
    41   26   27 ar
    42   26   43 1
    43   27   28 ar
    44   27   44 1
    45   28   29 ar
    46   28   45 1
    47   29   30 ar
    48   29   31 1
    49   30   46 1
    50   32   47 1
    51   33   48 1
@<TRIPOS>MOLECULE
ZINC03995845
   48    51     0     0     0
SMALL
USER_CHARGES
5-[2-chloro-6-[(3-iodophenyl)methylamino]purin-9-yl]-3,4-dihydroxy-N-methyl-tetrahydrofuran-2-carboxamide
@<TRIPOS>ATOM
      1 C1         -3.5156   -0.8102    1.9233 C.3       1 <0>         0.0861
      2 N1         -2.6417    0.1999    1.3215 N.am      1 <0>        -0.7300
      3 C2         -1.5096    0.5727    1.9507 C.2       1 <0>         0.5159
      4 O1         -1.2144    0.0718    3.0151 O.2       1 <0>        -0.5022
      5 C3         -0.6107    1.6118    1.3317 C.3       1 <0>         0.0319
      6 H1         -1.1613    2.5364    1.1584 H         1 <0>         0.1217
      7 C4         -0.0127    1.0858    0.0080 C.3       1 <0>         0.0511
      8 H2          0.0021   -0.0041    0.0020 H         1 <0>         0.0923
      9 C5          1.4269    1.6468   -0.0027 C.3       1 <0>         0.0805
     10 H3          2.1534    0.8343   -0.0140 H         1 <0>         0.0905
     11 C6          1.5284    2.4454    1.3158 C.3       1 <0>         0.3123
     12 H4          1.3078    3.4982    1.1397 H         1 <0>         0.1301
     13 O2          0.5316    1.8583    2.1804 O.3       1 <0>        -0.3264
     14 N2          2.8630    2.2959    1.9011 N.pl3     1 <0>        -0.4705
     15 C7          3.2280    1.3965    2.8585 C.2       1 <0>         0.2840
     16 N3          4.4896    1.5386    3.1441 N.2       1 <0>        -0.4479
     17 C8          5.0109    2.5415    2.3970 C.ar      1 <0>        -0.0590
     18 C9          3.9735    3.0393    1.5906 C.ar      1 <0>         0.3145
     19 N4          4.2284    4.0408    0.7548 N.ar      1 <0>        -0.5110
     20 C10         5.4360    4.5628    0.6810 C.ar      1 <0>         0.4116
     21 N5          6.4423    4.1279    1.4192 N.ar      1 <0>        -0.5534
     22 C11         6.2816    3.1303    2.2825 C.ar      1 <0>         0.4581
     23 N6          7.3414    2.6815    3.0508 N.pl3     1 <0>        -0.5899
     24 C12         8.6593    3.3075    2.9179 C.3       1 <0>         0.1056
     25 C13         9.6298    2.6396    3.8576 C.ar      1 <0>        -0.0890
     26 C14        10.3623    1.5466    3.4327 C.ar      1 <0>        -0.0720
     27 C15        11.2531    0.9343    4.2939 C.ar      1 <0>        -0.1148
     28 C16        11.4113    1.4139    5.5808 C.ar      1 <0>        -0.0782
     29 C17        10.6786    2.5066    6.0062 C.ar      1 <0>        -0.0999
     30 C18         9.7917    3.1230    5.1421 C.ar      1 <0>        -0.0750
     31 I1         10.9181    3.2339    7.9562 I         1 <0>        -0.0401
     32 Cl1         5.7156    5.8697   -0.4269 Cl        1 <0>         0.0391
     33 O3          1.6201    2.5086   -1.1262 O.3       1 <0>        -0.5236
     34 O4         -0.7516    1.5814   -1.1102 O.3       1 <0>        -0.5325
     35 H5         -2.9634   -1.7420    2.0457 H         1 <0>         0.0652
     36 H6         -3.8585   -0.4605    2.8971 H         1 <0>         0.0657
     37 H7         -4.3752   -0.9798    1.2749 H         1 <0>         0.0828
     38 H8         -2.8779    0.6005    0.4703 H         1 <0>         0.4001
     39 H9          2.5679    0.6715    3.3114 H         1 <0>         0.2324
     40 H10         7.1195    2.7889    4.0199 H         1 <0>         0.3725
     41 H11         9.0121    3.1974    1.8925 H         1 <0>         0.0987
     42 H12         8.5850    4.3666    3.1648 H         1 <0>         0.0697
     43 H13        10.2386    1.1715    2.4275 H         1 <0>         0.1318
     44 H14        11.8255    0.0808    3.9616 H         1 <0>         0.1339
     45 H15        12.1075    0.9354    6.2537 H         1 <0>         0.1305
     46 H16         9.2225    3.9793    5.4726 H         1 <0>         0.1288
     47 H17         1.5077    2.0712   -1.9813 H         1 <0>         0.3936
     48 H18        -1.6713    1.2840   -1.1370 H         1 <0>         0.3843
@<TRIPOS>BOND
     1    1    2 1
     2    1   35 1
     3    1   36 1
     4    1   37 1
     5    2    3 am
     6    2   38 1
     7    3    4 2
     8    3    5 1
     9    5    6 1
    10    5   13 1
    11    5    7 1
    12    7    8 1
    13    7    9 1
    14    7   34 1
    15    9   10 1
    16    9   11 1
    17    9   33 1
    18   11   12 1
    19   11   13 1
    20   11   14 1
    21   14   18 1
    22   14   15 1
    23   15   16 2
    24   15   39 1
    25   16   17 1
    26   17   22 ar
    27   17   18 ar
    28   18   19 ar
    29   19   20 ar
    30   20   21 ar
    31   20   32 1
    32   21   22 ar
    33   22   23 1
    34   23   24 1
    35   23   40 1
    36   24   25 1
    37   24   41 1
    38   24   42 1
    39   25   30 ar
    40   25   26 ar
    41   26   27 ar
    42   26   43 1
    43   27   28 ar
    44   27   44 1
    45   28   29 ar
    46   28   45 1
    47   29   30 ar
    48   29   31 1
    49   30   46 1
    50   33   47 1
    51   34   48 1
