@<TRIPOS>MOLECULE
ZINC64512573
   25    27     0     0     0
SMALL
USER_CHARGES

@<TRIPOS>ATOM
      1 C1         -0.0168    1.3894    0.0097 C.ar      1 <0>        -0.0782
      2 C2          1.1689    2.0938    0.0021 C.ar      1 <0>        -0.1421
      3 C3          2.3804    1.4162   -0.0131 C.ar      1 <0>         0.1195
      4 C4          2.4023    0.0282   -0.0207 C.ar      1 <0>        -0.1425
      5 C5          1.2198   -0.6816   -0.0137 C.ar      1 <0>        -0.0810
      6 C6          0.0021   -0.0041    0.0020 C.ar      1 <0>        -0.0573
      7 C7         -1.2721   -0.7650    0.0106 C.2       1 <0>        -0.1441
      8 C8         -2.1415   -0.6907    1.1213 C.2       1 <0>         0.2069
      9 N1         -3.2653   -1.3645    1.1237 N.2       1 <0>        -0.4518
     10 C9         -3.6120   -2.1323    0.0810 C.2       1 <0>         0.2886
     11 C10        -4.7217   -2.9306   -0.1662 C.2       1 <0>        -0.2417
     12 C11        -4.5571   -3.5033   -1.4188 C.2       1 <0>         0.1280
     13 N2         -3.4177   -3.0937   -1.9300 N.2       1 <0>        -0.2986
     14 N3         -2.7969   -2.2324   -1.0181 N.pl3     1 <0>        -0.3055
     15 C12        -1.6210   -1.5412   -1.0581 C.2       1 <0>         0.1820
     16 Br1        -6.1910   -3.1902    0.9955 Br        1 <0>         0.0061
     17 O1          3.5471    2.1129   -0.0209 O.3       1 <0>        -0.4988
     18 H1         -0.9590    1.9171    0.0260 H         1 <0>         0.1325
     19 H2          1.1549    3.1737    0.0077 H         1 <0>         0.1355
     20 H3          3.3463   -0.4963   -0.0326 H         1 <0>         0.1349
     21 H4          1.2375   -1.7615   -0.0204 H         1 <0>         0.1305
     22 H5         -1.8792   -0.0774    1.9707 H         1 <0>         0.1871
     23 H6         -5.2527   -4.1774   -1.8965 H         1 <0>         0.2086
     24 H7         -0.9738   -1.6100   -1.9201 H         1 <0>         0.1858
     25 H8          3.8933    2.3101    0.8602 H         1 <0>         0.3957
@<TRIPOS>BOND
     1    1    6 ar
     2    1    2 ar
     3    1   18 1
     4    2    3 ar
     5    2   19 1
     6    3    4 ar
     7    3   17 1
     8    4    5 ar
     9    4   20 1
    10    5    6 ar
    11    5   21 1
    12    6    7 1
    13    7   15 2
    14    7    8 1
    15    8    9 2
    16    8   22 1
    17    9   10 1
    18   10   14 1
    19   10   11 2
    20   11   12 1
    21   11   16 1
    22   12   13 2
    23   12   23 1
    24   13   14 1
    25   14   15 1
    26   15   24 1
    27   17   25 1
@<TRIPOS>MOLECULE
ZINC13819807
   54    58     0     0     0
SMALL
USER_CHARGES
6-[4-(2-morpholinoethoxy)phenyl]-3-phenyl-pyrazolo[1,5-a]pyrimidine
@<TRIPOS>ATOM
      1 C1          0.3307    4.3068    0.5196 C.ar      1 <0>        -0.1227
      2 C2          1.5006    3.5785    0.3981 C.ar      1 <0>        -0.1187
      3 C3          1.4543    2.2020    0.3155 C.ar      1 <0>        -0.1112
      4 C4          0.2246    1.5449    0.3544 C.ar      1 <0>         0.0038
      5 C5         -0.9518    2.2850    0.4713 C.ar      1 <0>        -0.0969
      6 C6         -0.8921    3.6608    0.5592 C.ar      1 <0>        -0.1182
      7 C7          0.1678    0.0673    0.2657 C.2       1 <0>        -0.1921
      8 C8          0.8024   -0.7316   -0.6914 C.2       1 <0>         0.1083
      9 N1          0.5215   -1.9889   -0.4476 N.2       1 <0>        -0.3072
     10 N2         -0.3074   -2.0664    0.6772 N.pl3     1 <0>        -0.3055
     11 C9         -0.5264   -0.7909    1.1282 C.2       1 <0>         0.2645
     12 N3         -1.2955   -0.5641    2.1984 N.2       1 <0>        -0.4483
     13 C10        -1.8538   -1.5549    2.8517 C.2       1 <0>         0.1893
     14 C11        -1.6517   -2.8858    2.4266 C.2       1 <0>        -0.1310
     15 C12        -0.8705   -3.1236    1.3305 C.2       1 <0>         0.1611
     16 C13        -2.2791   -4.0126    3.1609 C.ar      1 <0>        -0.0771
     17 C14        -2.0789   -5.3232    2.7317 C.ar      1 <0>        -0.0685
     18 C15        -2.6594   -6.3687    3.4190 C.ar      1 <0>        -0.2051
     19 C16        -3.4505   -6.1158    4.5312 C.ar      1 <0>         0.1438
     20 C17        -3.6564   -4.8109    4.9577 C.ar      1 <0>        -0.1438
     21 C18        -3.0742   -3.7617    4.2776 C.ar      1 <0>        -0.0627
     22 O1         -4.0251   -7.1475    5.2036 O.3       1 <0>        -0.2940
     23 C19        -3.7715   -8.4646    4.7104 C.3       1 <0>         0.0627
     24 C20        -4.4959   -9.4864    5.5890 C.3       1 <0>         0.0523
     25 N4         -5.9474   -9.2986    5.4635 N.3       1 <0>        -0.5304
     26 C21        -6.6579   -9.9128    6.5946 C.3       1 <0>         0.0173
     27 C22        -8.1584   -9.6426    6.4550 C.3       1 <0>         0.0610
     28 O2         -8.6125  -10.1427    5.1945 O.3       1 <0>        -0.3845
     29 C23        -7.9422   -9.5654    4.0708 C.3       1 <0>         0.0619
     30 C24        -6.4395   -9.8348    4.1861 C.3       1 <0>         0.0130
     31 H1          0.3720    5.3841    0.5843 H         1 <0>         0.1207
     32 H2          2.4522    4.0884    0.3681 H         1 <0>         0.1225
     33 H3          2.3683    1.6344    0.2214 H         1 <0>         0.1211
     34 H4         -1.9072    1.7821    0.4974 H         1 <0>         0.1185
     35 H5         -1.8020    4.2347    0.6546 H         1 <0>         0.1219
     36 H6          1.4224   -0.3716   -1.4991 H         1 <0>         0.2022
     37 H7         -2.4686   -1.3523    3.7162 H         1 <0>         0.1832
     38 H8         -0.7018   -4.1333    0.9864 H         1 <0>         0.1806
     39 H9         -1.4669   -5.5204    1.8640 H         1 <0>         0.1262
     40 H10        -2.5010   -7.3850    3.0894 H         1 <0>         0.1313
     41 H11        -4.2727   -4.6171    5.8232 H         1 <0>         0.1379
     42 H12        -3.2347   -2.7467    4.6098 H         1 <0>         0.1359
     43 H13        -4.1373   -8.5456    3.6762 H         1 <0>         0.0651
     44 H14        -2.6897   -8.6628    4.7333 H         1 <0>         0.0700
     45 H15        -4.2284  -10.5032    5.2655 H         1 <0>         0.0630
     46 H16        -4.1973   -9.3450    6.6382 H         1 <0>         0.0902
     47 H17        -6.4772  -10.9979    6.5954 H         1 <0>         0.0440
     48 H18        -6.2914   -9.4793    7.5368 H         1 <0>         0.0898
     49 H19        -8.6992  -10.1481    7.2686 H         1 <0>         0.1008
     50 H20        -8.3426   -8.5595    6.5098 H         1 <0>         0.0622
     51 H21        -8.3272  -10.0149    3.1436 H         1 <0>         0.1000
     52 H22        -8.1220   -8.4803    4.0544 H         1 <0>         0.0617
     53 H23        -5.9121   -9.3439    3.3549 H         1 <0>         0.0854
     54 H24        -6.2553  -10.9186    4.1481 H         1 <0>         0.0450
@<TRIPOS>BOND
     1    1    6 ar
     2    1    2 ar
     3    1   31 1
     4    2    3 ar
     5    2   32 1
     6    3    4 ar
     7    3   33 1
     8    4    5 ar
     9    4    7 1
    10    5    6 ar
    11    5   34 1
    12    6   35 1
    13    7   11 2
    14    7    8 1
    15    8    9 2
    16    8   36 1
    17    9   10 1
    18   10   15 1
    19   10   11 1
    20   11   12 1
    21   12   13 2
    22   13   14 1
    23   13   37 1
    24   14   15 2
    25   14   16 1
    26   15   38 1
    27   16   21 ar
    28   16   17 ar
    29   17   18 ar
    30   17   39 1
    31   18   19 ar
    32   18   40 1
    33   19   20 ar
    34   19   22 1
    35   20   21 ar
    36   20   41 1
    37   21   42 1
    38   22   23 1
    39   23   24 1
    40   23   43 1
    41   23   44 1
    42   24   25 1
    43   24   45 1
    44   24   46 1
    45   25   30 1
    46   25   26 1
    47   26   27 1
    48   26   47 1
    49   26   48 1
    50   27   28 1
    51   27   49 1
    52   27   50 1
    53   28   29 1
    54   29   30 1
    55   29   51 1
    56   29   52 1
    57   30   53 1
    58   30   54 1
@<TRIPOS>MOLECULE
ZINC13829435
   56    60     0     0     0
SMALL
USER_CHARGES

@<TRIPOS>ATOM
      1 C1          0.0439    1.0576    0.0477 C.ar      1 <0>        -0.0548
      2 C2          1.1881    1.8266    0.0060 C.ar      1 <0>        -0.1369
      3 C3          2.4358    1.2185    0.0265 C.ar      1 <0>         0.1234
      4 C4          2.5359   -0.1647    0.0896 C.ar      1 <0>        -0.1995
      5 C5          1.3952   -0.9388    0.1320 C.ar      1 <0>        -0.0580
      6 C6          0.1412   -0.3312    0.1110 C.ar      1 <0>        -0.0592
      7 C7         -1.0881   -1.1614    0.1566 C.2       1 <0>        -0.1585
      8 C8         -1.9646   -1.0805    1.2597 C.2       1 <0>         0.1980
      9 N1         -3.0493   -1.8176    1.2926 N.2       1 <0>        -0.4493
     10 C9         -3.3451   -2.6531    0.2919 C.2       1 <0>         0.2732
     11 C10        -4.4158   -3.5333    0.0816 C.2       1 <0>        -0.1957
     12 C11        -4.2010   -4.1587   -1.1524 C.2       1 <0>         0.1200
     13 N2         -3.0857   -3.7040   -1.6687 N.2       1 <0>        -0.3012
     14 N3         -2.5231   -2.7639   -0.7981 N.pl3     1 <0>        -0.3101
     15 C12        -1.3888   -2.0101   -0.8722 C.2       1 <0>         0.1869
     16 C13        -5.5586   -3.7596    0.9936 C.ar      1 <0>         0.0464
     17 C14        -5.3530   -4.0194    2.3539 C.ar      1 <0>        -0.1527
     18 C15        -6.4462   -4.2244    3.1677 C.ar      1 <0>         0.1023
     19 N4         -7.6722   -4.1787    2.6803 N.ar      1 <0>        -0.4876
     20 C16        -7.9103   -3.9369    1.4045 C.ar      1 <0>         0.1030
     21 C17        -6.8758   -3.7142    0.5214 C.ar      1 <0>        -0.1653
     22 O1          3.5614    1.9786   -0.0156 O.3       1 <0>        -0.3268
     23 C18         4.8121    1.2877    0.0088 C.3       1 <0>         0.0248
     24 C19         5.9562    2.3021   -0.0452 C.3       1 <0>        -0.0012
     25 N5          5.9224    3.1430    1.1588 N.4       1 <0>        -0.3842
     26 C20         6.9194    4.2131    1.0347 C.3       1 <0>        -0.0070
     27 C21         6.8328    5.1395    2.2495 C.3       1 <0>        -0.1467
     28 C22         7.1050    4.3311    3.5214 C.3       1 <0>        -0.1393
     29 C23         6.1060    3.1732    3.6021 C.3       1 <0>        -0.1454
     30 C24         6.2195    2.3197    2.3372 C.3       1 <0>        -0.0130
     31 H1         -0.9266    1.5314    0.0358 H         1 <0>         0.1407
     32 H2          1.1133    2.9028   -0.0431 H         1 <0>         0.1389
     33 H3          3.5080   -0.6350    0.1051 H         1 <0>         0.1321
     34 H4          1.4737   -2.0148    0.1807 H         1 <0>         0.1339
     35 H5         -1.7420   -0.4114    2.0777 H         1 <0>         0.1828
     36 H6         -4.8483   -4.8956   -1.6046 H         1 <0>         0.2069
     37 H7         -0.7356   -2.0858   -1.7289 H         1 <0>         0.1821
     38 H8         -4.3527   -4.0590    2.7593 H         1 <0>         0.1304
     39 H9         -6.2979   -4.4255    4.2184 H         1 <0>         0.1563
     40 H10        -8.9296   -3.9091    1.0488 H         1 <0>         0.1580
     41 H11        -7.0781   -3.5120   -0.5201 H         1 <0>         0.1350
     42 H12         4.8870    0.7041    0.9263 H         1 <0>         0.0878
     43 H13         4.8761    0.6217   -0.8517 H         1 <0>         0.1106
     44 H14         6.9084    1.7737   -0.0928 H         1 <0>         0.1496
     45 H15         5.8443    2.9293   -0.9297 H         1 <0>         0.1430
     46 H16         7.9164    3.7758    0.9820 H         1 <0>         0.1293
     47 H17         6.7263    4.7855    0.1274 H         1 <0>         0.1312
     48 H18         7.5751    5.9323    2.1563 H         1 <0>         0.1133
     49 H19         5.8362    5.5775    2.3030 H         1 <0>         0.0881
     50 H20         8.1202    3.9352    3.4914 H         1 <0>         0.0821
     51 H21         6.9890    4.9742    4.3938 H         1 <0>         0.0950
     52 H22         6.3287    2.5606    4.4758 H         1 <0>         0.1125
     53 H23         5.0943    3.5705    3.6837 H         1 <0>         0.0881
     54 H24         5.5097    1.4943    2.3915 H         1 <0>         0.1271
     55 H25         7.2315    1.9228    2.2568 H         1 <0>         0.1303
     56 H26         5.0048    3.5508    1.2574 H         1 <0>         0.4293
@<TRIPOS>BOND
     1    1    6 ar
     2    1    2 ar
     3    1   31 1
     4    2    3 ar
     5    2   32 1
     6    3    4 ar
     7    3   22 1
     8    4    5 ar
     9    4   33 1
    10    5    6 ar
    11    5   34 1
    12    6    7 1
    13    7   15 2
    14    7    8 1
    15    8    9 2
    16    8   35 1
    17    9   10 1
    18   10   14 1
    19   10   11 2
    20   11   12 1
    21   11   16 1
    22   12   13 2
    23   12   36 1
    24   13   14 1
    25   14   15 1
    26   15   37 1
    27   16   21 ar
    28   16   17 ar
    29   17   18 ar
    30   17   38 1
    31   18   19 ar
    32   18   39 1
    33   19   20 ar
    34   20   21 ar
    35   20   40 1
    36   21   41 1
    37   22   23 1
    38   23   24 1
    39   23   42 1
    40   23   43 1
    41   24   25 1
    42   24   44 1
    43   24   45 1
    44   25   30 1
    45   25   26 1
    46   25   56 1
    47   26   27 1
    48   26   46 1
    49   26   47 1
    50   27   28 1
    51   27   48 1
    52   27   49 1
    53   28   29 1
    54   28   50 1
    55   28   51 1
    56   29   30 1
    57   29   52 1
    58   29   53 1
    59   30   54 1
    60   30   55 1
