@<TRIPOS>MOLECULE
ZINC43202741
   62    67     0     0     0
SMALL
USER_CHARGES

@<TRIPOS>ATOM
      1 C1          7.5670   10.7707    3.8481 C.ar      1 <0>        -0.0372
      2 C2          7.6272    9.4738    3.3759 C.ar      1 <0>        -0.1194
      3 C3          8.5176    9.1459    2.3639 C.ar      1 <0>         0.1620
      4 C4          9.3456   10.1218    1.8286 C.ar      1 <0>        -0.1154
      5 C5          9.2816   11.4172    2.3042 C.ar      1 <0>        -0.0380
      6 C6          8.3933   11.7415    3.3129 C.ar      1 <0>        -0.0483
      7 N1          8.3268   13.1303    3.8206 N.pl3     1 <0>         0.0323
      8 O1          7.5504   13.4150    4.7026 O.2       1 <0>        -0.1524
      9 O2          9.0488   13.9800    3.3533 O.3       1 <0>        -0.1520
     10 O3          8.5790    7.8704    1.8979 O.3       1 <0>        -0.3064
     11 C7          7.6147    7.4591    1.0525 C.2       1 <0>         0.6524
     12 O4          6.7564    8.2368    0.6851 O.2       1 <0>        -0.5499
     13 N2          7.6018    6.1847    0.6138 N.am      1 <0>        -0.5848
     14 C8          8.6292    5.2311    1.0539 C.3       1 <0>         0.1075
     15 C9          9.2785    4.6007   -0.1821 C.3       1 <0>        -0.1267
     16 C10         8.1913    3.9887   -1.0685 C.3       1 <0>        -0.1069
     17 C11         7.2322    5.0867   -1.5338 C.3       1 <0>        -0.1373
     18 C12         6.5564    5.7212   -0.3087 C.3       1 <0>         0.1290
     19 C13         8.8391    3.3279   -2.2869 C.3       1 <0>         0.2392
     20 C14         9.8018    2.2630   -1.8283 C.ar      1 <0>        -0.0618
     21 C15         9.3995    1.3246   -0.8961 C.ar      1 <0>        -0.1020
     22 C16        10.2788    0.3455   -0.4727 C.ar      1 <0>        -0.0983
     23 C17        11.5666    0.3030   -0.9818 C.ar      1 <0>         0.0355
     24 C18        11.9719    1.2483   -1.9207 C.ar      1 <0>         0.0319
     25 C19        11.0835    2.2232   -2.3448 C.ar      1 <0>        -0.0713
     26 O5         13.2690    0.9954   -2.2626 O.3       1 <0>        -0.3073
     27 C20        13.7803    0.1390   -1.2241 C.3       1 <0>         0.2127
     28 O6         12.6097   -0.5423   -0.7355 O.3       1 <0>        -0.3082
     29 C21         7.7709    2.7027   -3.1466 C.ar      1 <0>        -0.1022
     30 C22         6.8326    1.8614   -2.5780 C.ar      1 <0>        -0.0985
     31 C23         5.8505    1.2859   -3.3624 C.ar      1 <0>        -0.0964
     32 C24         5.8046    1.5511   -4.7215 C.ar      1 <0>         0.0360
     33 C25         6.7498    2.3986   -5.2942 C.ar      1 <0>         0.0368
     34 C26         7.7278    2.9763   -4.5009 C.ar      1 <0>        -0.0879
     35 O7          6.4932    2.4980   -6.6312 O.3       1 <0>        -0.3071
     36 C27         5.6342    1.3849   -6.9417 C.3       1 <0>         0.2128
     37 O8          4.9559    1.1196   -5.6996 O.3       1 <0>        -0.3076
     38 O9          9.5442    4.3131   -3.0446 O.3       1 <0>        -0.5432
     39 H1          6.8708   11.0274    4.6328 H         1 <0>         0.1630
     40 H2          6.9818    8.7158    3.7945 H         1 <0>         0.1533
     41 H3         10.0399    9.8689    1.0409 H         1 <0>         0.1568
     42 H4          9.9260   12.1773    1.8877 H         1 <0>         0.1642
     43 H5          9.3866    5.7537    1.6381 H         1 <0>         0.0949
     44 H6          8.1686    4.4525    1.6619 H         1 <0>         0.0777
     45 H7          9.8156    5.3666   -0.7416 H         1 <0>         0.0796
     46 H8          9.9746    3.8220    0.1298 H         1 <0>         0.0853
     47 H9          7.6385    3.2403   -0.5007 H         1 <0>         0.0910
     48 H10         7.7885    5.8481   -2.0805 H         1 <0>         0.0744
     49 H11         6.4717    4.6541   -2.1839 H         1 <0>         0.0888
     50 H12         5.9302    4.9817    0.1905 H         1 <0>         0.0807
     51 H13         5.9457    6.5673   -0.6238 H         1 <0>         0.1013
     52 H14         8.3962    1.3567   -0.4977 H         1 <0>         0.1383
     53 H15         9.9618   -0.3863    0.2555 H         1 <0>         0.1391
     54 H16        11.3936    2.9549   -3.0761 H         1 <0>         0.1458
     55 H17        14.4957   -0.5743   -1.6335 H         1 <0>         0.1332
     56 H18        14.2384    0.7302   -0.4312 H         1 <0>         0.0863
     57 H19         6.8673    1.6530   -1.5189 H         1 <0>         0.1388
     58 H20         5.1188    0.6291   -2.9156 H         1 <0>         0.1389
     59 H21         8.4593    3.6374   -4.9416 H         1 <0>         0.1426
     60 H22         4.9192    1.6578   -7.7179 H         1 <0>         0.1344
     61 H23         6.2231    0.5206   -7.2487 H         1 <0>         0.0866
     62 H24         8.9856    5.0311   -3.3726 H         1 <0>         0.3833
@<TRIPOS>BOND
     1    1    6 ar
     2    1    2 ar
     3    1   39 1
     4    2    3 ar
     5    2   40 1
     6    3    4 ar
     7    3   10 1
     8    4    5 ar
     9    4   41 1
    10    5    6 ar
    11    5   42 1
    12    6    7 1
    13    7    8 2
    14    7    9 1
    15   10   11 1
    16   11   12 2
    17   11   13 am
    18   13   18 1
    19   13   14 1
    20   14   15 1
    21   14   43 1
    22   14   44 1
    23   15   16 1
    24   15   45 1
    25   15   46 1
    26   16   17 1
    27   16   19 1
    28   16   47 1
    29   17   18 1
    30   17   48 1
    31   17   49 1
    32   18   50 1
    33   18   51 1
    34   19   20 1
    35   19   29 1
    36   19   38 1
    37   20   25 ar
    38   20   21 ar
    39   21   22 ar
    40   21   52 1
    41   22   23 ar
    42   22   53 1
    43   23   28 1
    44   23   24 ar
    45   24   25 ar
    46   24   26 1
    47   25   54 1
    48   26   27 1
    49   27   28 1
    50   27   55 1
    51   27   56 1
    52   29   34 ar
    53   29   30 ar
    54   30   31 ar
    55   30   57 1
    56   31   32 ar
    57   31   58 1
    58   32   37 1
    59   32   33 ar
    60   33   34 ar
    61   33   35 1
    62   34   59 1
    63   35   36 1
    64   36   37 1
    65   36   60 1
    66   36   61 1
    67   38   62 1
@<TRIPOS>MOLECULE
ZINC49771282
   55    58     0     0     0
SMALL
USER_CHARGES

@<TRIPOS>ATOM
      1 C1          2.6480    1.2737    3.5400 C.ar      1 <0>        -0.1526
      2 C2          2.7378   -0.1059    3.5627 C.ar      1 <0>        -0.0823
      3 C3          3.0143   -0.8005    2.4012 C.ar      1 <0>        -0.1958
      4 C4          3.2019   -0.1126    1.2108 C.ar      1 <0>         0.1212
      5 C5          3.1113    1.2719    1.1908 C.ar      1 <0>        -0.1460
      6 C6          2.8346    1.9616    2.3552 C.ar      1 <0>        -0.0822
      7 O1          3.4744   -0.7935    0.0669 O.3       1 <0>        -0.2590
      8 C7          3.6298   -2.1409    0.1482 C.ar      1 <0>         0.0854
      9 C8          2.5165   -2.9654    0.2292 C.ar      1 <0>        -0.1292
     10 C9          2.6772   -4.3347    0.3112 C.ar      1 <0>        -0.1034
     11 C10         3.9462   -4.8843    0.3131 C.ar      1 <0>        -0.1136
     12 C11         5.0570   -4.0652    0.2329 C.ar      1 <0>        -0.0671
     13 C12         4.9016   -2.6952    0.1445 C.ar      1 <0>        -0.0979
     14 C13         6.4384   -4.6676    0.2357 C.3       1 <0>         0.0949
     15 N1          6.8519   -4.9507   -1.1452 N.3       1 <0>        -0.5327
     16 C14         6.0090   -5.9943   -1.7437 C.3       1 <0>         0.0343
     17 C15         6.3510   -6.1319   -3.2311 C.3       1 <0>         0.1322
     18 N2          7.7994   -6.3531   -3.3589 N.am      1 <0>        -0.5877
     19 C16         8.7086   -5.4247   -2.6700 C.3       1 <0>         0.1128
     20 C17         8.2738   -5.3150   -1.2047 C.3       1 <0>         0.0398
     21 C18         8.2808   -7.3791   -4.0883 C.2       1 <0>         0.6522
     22 O2          7.5150   -8.1363   -4.6512 O.2       1 <0>        -0.5488
     23 O3          9.6105   -7.5652   -4.1934 O.3       1 <0>        -0.3058
     24 C19        10.0546   -8.5349   -5.0362 C.ar      1 <0>         0.1627
     25 C20        10.6186   -9.6947   -4.5251 C.ar      1 <0>        -0.1158
     26 C21        11.0688  -10.6789   -5.3837 C.ar      1 <0>        -0.0373
     27 C22        10.9576  -10.5087   -6.7513 C.ar      1 <0>        -0.0497
     28 C23        10.3962   -9.3534   -7.2631 C.ar      1 <0>        -0.0357
     29 C24         9.9393   -8.3688   -6.4086 C.ar      1 <0>        -0.1213
     30 N3         11.4407  -11.5648   -7.6690 N.pl3     1 <0>         0.0326
     31 O4         11.9321  -12.5752   -7.2226 O.2       1 <0>        -0.1524
     32 O5         11.3439  -11.4170   -8.8650 O.3       1 <0>        -0.1522
     33 H1          2.4274    1.8146    4.4484 H         1 <0>         0.1257
     34 H2          2.5920   -0.6409    4.4896 H         1 <0>         0.1258
     35 H3          3.0847   -1.8781    2.4195 H         1 <0>         0.1279
     36 H4          3.2573    1.8097    0.2657 H         1 <0>         0.1326
     37 H5          2.7635    3.0392    2.3400 H         1 <0>         0.1318
     38 H6          1.5252   -2.5367    0.2285 H         1 <0>         0.1308
     39 H7          1.8110   -4.9768    0.3743 H         1 <0>         0.1320
     40 H8          4.0697   -5.9553    0.3776 H         1 <0>         0.1258
     41 H9          5.7696   -2.0561    0.0773 H         1 <0>         0.1329
     42 H10         7.1395   -3.9666    0.6885 H         1 <0>         0.0903
     43 H11         6.4295   -5.5943    0.8096 H         1 <0>         0.0503
     44 H12         6.1916   -6.9431   -1.2392 H         1 <0>         0.0434
     45 H13         4.9595   -5.7206   -1.6356 H         1 <0>         0.0996
     46 H14         5.8123   -6.9800   -3.6537 H         1 <0>         0.1028
     47 H15         6.0723   -5.2187   -3.7569 H         1 <0>         0.0871
     48 H16         9.7287   -5.8053   -2.7217 H         1 <0>         0.0982
     49 H17         8.6565   -4.4435   -3.1418 H         1 <0>         0.0866
     50 H18         8.8668   -4.5486   -0.7057 H         1 <0>         0.0958
     51 H19         8.4249   -6.2733   -0.7077 H         1 <0>         0.0436
     52 H20        10.7061   -9.8279   -3.4570 H         1 <0>         0.1570
     53 H21        11.5083  -11.5818   -4.9863 H         1 <0>         0.1645
     54 H22        10.3110   -9.2225   -8.3318 H         1 <0>         0.1631
     55 H23         9.4969   -7.4685   -6.8087 H         1 <0>         0.1528
@<TRIPOS>BOND
     1    1    6 ar
     2    1    2 ar
     3    1   33 1
     4    2    3 ar
     5    2   34 1
     6    3    4 ar
     7    3   35 1
     8    4    5 ar
     9    4    7 1
    10    5    6 ar
    11    5   36 1
    12    6   37 1
    13    7    8 1
    14    8   13 ar
    15    8    9 ar
    16    9   10 ar
    17    9   38 1
    18   10   11 ar
    19   10   39 1
    20   11   12 ar
    21   11   40 1
    22   12   13 ar
    23   12   14 1
    24   13   41 1
    25   14   15 1
    26   14   42 1
    27   14   43 1
    28   15   20 1
    29   15   16 1
    30   16   17 1
    31   16   44 1
    32   16   45 1
    33   17   18 1
    34   17   46 1
    35   17   47 1
    36   18   19 1
    37   18   21 am
    38   19   20 1
    39   19   48 1
    40   19   49 1
    41   20   50 1
    42   20   51 1
    43   21   22 2
    44   21   23 1
    45   23   24 1
    46   24   29 ar
    47   24   25 ar
    48   25   26 ar
    49   25   52 1
    50   26   27 ar
    51   26   53 1
    52   27   28 ar
    53   27   30 1
    54   28   29 ar
    55   28   54 1
    56   29   55 1
    57   30   31 2
    58   30   32 1
@<TRIPOS>MOLECULE
ZINC49771282
   56    59     0     0     0
SMALL
USER_CHARGES

@<TRIPOS>ATOM
      1 C1          2.6768    1.2659    3.5778 C.ar      1 <0>        -0.1419
      2 C2          2.7632   -0.1140    3.5956 C.ar      1 <0>        -0.0811
      3 C3          3.0331   -0.8055    2.4306 C.ar      1 <0>        -0.1968
      4 C4          3.2176   -0.1140    1.2418 C.ar      1 <0>         0.1092
      5 C5          3.1304    1.2707    1.2267 C.ar      1 <0>        -0.1387
      6 C6          2.8602    1.9573    2.3945 C.ar      1 <0>        -0.0782
      7 O1          3.4837   -0.7918    0.0945 O.3       1 <0>        -0.2597
      8 C7          3.6360   -2.1399    0.1707 C.ar      1 <0>         0.1015
      9 C8          2.5209   -2.9619    0.2536 C.ar      1 <0>        -0.0991
     10 C9          2.6785   -4.3318    0.3304 C.ar      1 <0>        -0.0947
     11 C10         3.9461   -4.8846    0.3252 C.ar      1 <0>        -0.0991
     12 C11         5.0587   -4.0681    0.2432 C.ar      1 <0>        -0.1481
     13 C12         4.9064   -2.6974    0.1599 C.ar      1 <0>        -0.1004
     14 C13         6.4385   -4.6739    0.2383 C.3       1 <0>         0.0457
     15 N1          6.8456   -4.9535   -1.1452 N.4       1 <0>        -0.3854
     16 C14         5.9597   -5.9752   -1.7173 C.3       1 <0>        -0.0277
     17 C15         6.3101   -6.1847   -3.1942 C.3       1 <0>         0.1065
     18 N2          7.7436   -6.4997   -3.2932 N.am      1 <0>        -0.6090
     19 C16         8.6970   -5.6141   -2.6070 C.3       1 <0>         0.0869
     20 C17         8.2340   -5.4315   -1.1579 C.3       1 <0>        -0.0214
     21 C18         8.1714   -7.5697   -3.9923 C.2       1 <0>         0.6575
     22 O2          7.3688   -8.2900   -4.5521 O.2       1 <0>        -0.5231
     23 O3          9.4884   -7.8404   -4.0704 O.3       1 <0>        -0.2993
     24 C19         9.8843   -8.8543   -4.8847 C.ar      1 <0>         0.1451
     25 C20        10.3664  -10.0353   -4.3396 C.ar      1 <0>        -0.1102
     26 C21        10.7677  -11.0644   -5.1692 C.ar      1 <0>        -0.0368
     27 C22        10.6891  -10.9180   -6.5418 C.ar      1 <0>        -0.0388
     28 C23        10.2093   -9.7417   -7.0876 C.ar      1 <0>        -0.0353
     29 C24         9.8014   -8.7119   -6.2621 C.ar      1 <0>        -0.1178
     30 N3         11.1197  -12.0223   -7.4285 N.pl3     1 <0>         0.0268
     31 O4         11.5398  -13.0511   -6.9524 O.2       1 <0>        -0.1434
     32 O5         11.0514  -11.8954   -8.6289 O.3       1 <0>        -0.1438
     33 H1          2.4613    1.8043    4.4889 H         1 <0>         0.1311
     34 H2          2.6199   -0.6517    4.5213 H         1 <0>         0.1295
     35 H3          3.1008   -1.8832    2.4451 H         1 <0>         0.1240
     36 H4          3.2739    1.8113    0.3028 H         1 <0>         0.1353
     37 H5          2.7918    3.0351    2.3833 H         1 <0>         0.1372
     38 H6          1.5308   -2.5306    0.2583 H         1 <0>         0.1446
     39 H7          1.8110   -4.9719    0.3949 H         1 <0>         0.1460
     40 H8          4.0672   -5.9561    0.3857 H         1 <0>         0.1385
     41 H9          5.7757   -2.0602    0.0913 H         1 <0>         0.1414
     42 H10         7.1433   -3.9762    0.6905 H         1 <0>         0.1429
     43 H11         6.4296   -5.6025    0.8091 H         1 <0>         0.1411
     44 H12         6.0892   -6.9127   -1.1765 H         1 <0>         0.1382
     45 H13         4.9238   -5.6467   -1.6326 H         1 <0>         0.1499
     46 H14         5.7247   -7.0119   -3.5957 H         1 <0>         0.1427
     47 H15         6.0956   -5.2745   -3.7542 H         1 <0>         0.1055
     48 H16         9.6898   -6.0640   -2.6204 H         1 <0>         0.1391
     49 H17         8.7236   -4.6463   -3.1077 H         1 <0>         0.1047
     50 H18         8.8739   -4.7024   -0.6609 H         1 <0>         0.1506
     51 H19         8.2947   -6.3855   -0.6340 H         1 <0>         0.1378
     52 H20        10.4284  -10.1499   -3.2675 H         1 <0>         0.1578
     53 H21        11.1435  -11.9839   -4.7453 H         1 <0>         0.1685
     54 H22        10.1495   -9.6295   -8.1601 H         1 <0>         0.1667
     55 H23         9.4226   -7.7949   -6.6888 H         1 <0>         0.1527
     56 H24         6.7773   -4.1082   -1.6919 H         1 <0>         0.4252
@<TRIPOS>BOND
     1    1    6 ar
     2    1    2 ar
     3    1   33 1
     4    2    3 ar
     5    2   34 1
     6    3    4 ar
     7    3   35 1
     8    4    5 ar
     9    4    7 1
    10    5    6 ar
    11    5   36 1
    12    6   37 1
    13    7    8 1
    14    8   13 ar
    15    8    9 ar
    16    9   10 ar
    17    9   38 1
    18   10   11 ar
    19   10   39 1
    20   11   12 ar
    21   11   40 1
    22   12   13 ar
    23   12   14 1
    24   13   41 1
    25   14   15 1
    26   14   42 1
    27   14   43 1
    28   15   20 1
    29   15   16 1
    30   15   56 1
    31   16   17 1
    32   16   44 1
    33   16   45 1
    34   17   18 1
    35   17   46 1
    36   17   47 1
    37   18   19 1
    38   18   21 am
    39   19   20 1
    40   19   48 1
    41   19   49 1
    42   20   50 1
    43   20   51 1
    44   21   22 2
    45   21   23 1
    46   23   24 1
    47   24   29 ar
    48   24   25 ar
    49   25   26 ar
    50   25   52 1
    51   26   27 ar
    52   26   53 1
    53   27   28 ar
    54   27   30 1
    55   28   29 ar
    56   28   54 1
    57   29   55 1
    58   30   31 2
    59   30   32 1
