@<TRIPOS>MOLECULE
ZINC24044436
   76    80     0     0     0
SMALL
USER_CHARGES
1-[5-tert-butyl-2-(p-tolyl)pyrazol-3-yl]-3-[4-(2-morpholinoethoxy)-1-naphthyl]urea
@<TRIPOS>ATOM
      1 C1          3.3307    9.5387   -0.3298 C.3       1 <0>        -0.1193
      2 C2          2.0898    8.6848   -0.2813 C.ar      1 <0>        -0.0892
      3 C3          0.9612    9.0673   -0.9828 C.ar      1 <0>        -0.0934
      4 C4         -0.1775    8.2868   -0.9403 C.ar      1 <0>        -0.1062
      5 C5         -0.1884    7.1174   -0.1919 C.ar      1 <0>         0.1564
      6 C6          0.9444    6.7392    0.5163 C.ar      1 <0>        -0.1500
      7 C7          2.0821    7.5207    0.4649 C.ar      1 <0>        -0.0924
      8 N1         -1.3424    6.3233   -0.1469 N.pl3     1 <0>        -0.3448
      9 C8         -1.3788    4.9645   -0.0790 C.2       1 <0>         0.3309
     10 C9         -2.6878    4.5925   -0.0483 C.2       1 <0>        -0.2629
     11 C10        -3.4651    5.7529   -0.1047 C.2       1 <0>         0.1115
     12 N2         -2.6643    6.7861   -0.1672 N.2       1 <0>        -0.2779
     13 C11        -4.9712    5.8052   -0.0954 C.3       1 <0>         0.0134
     14 C12        -5.4824    5.5257    1.3193 C.3       1 <0>        -0.1388
     15 C13        -5.4360    7.1933   -0.5406 C.3       1 <0>        -0.1390
     16 C14        -5.5242    4.7499   -1.0553 C.3       1 <0>        -0.1399
     17 N3         -0.2771    4.1104   -0.0417 N.am      1 <0>        -0.6731
     18 C15        -0.4603    2.7771    0.0314 C.2       1 <0>         0.7165
     19 O1         -1.5862    2.3190    0.0649 O.2       1 <0>        -0.5445
     20 N4          0.6045    1.9516    0.0675 N.am      1 <0>        -0.6819
     21 C16         0.4162    0.5655    0.0407 C.ar      1 <0>         0.1254
     22 C17        -0.6813    0.0024    0.6542 C.ar      1 <0>        -0.0743
     23 C18        -0.8835   -1.3742    0.6299 C.ar      1 <0>        -0.2061
     24 C19         0.0048   -2.2051    0.0082 C.ar      1 <0>         0.1395
     25 C20         1.1426   -1.6672   -0.6254 C.ar      1 <0>        -0.0565
     26 C21         1.3517   -0.2661   -0.6096 C.ar      1 <0>        -0.0251
     27 C22         2.4862    0.2686   -1.2409 C.ar      1 <0>        -0.1232
     28 C23         3.3687   -0.5639   -1.8588 C.ar      1 <0>        -0.0971
     29 C24         3.1636   -1.9422   -1.8742 C.ar      1 <0>        -0.1313
     30 C25         2.0750   -2.4951   -1.2724 C.ar      1 <0>        -0.0739
     31 O2         -0.2080   -3.5475    0.0012 O.3       1 <0>        -0.2916
     32 C26        -1.3823   -4.0216    0.6634 C.3       1 <0>         0.0605
     33 C27        -1.4510   -5.5459    0.5508 C.3       1 <0>         0.0539
     34 N5         -0.3065   -6.1409    1.2538 N.3       1 <0>        -0.5287
     35 C28        -0.1978   -7.5776    0.9617 C.3       1 <0>         0.0167
     36 C29         1.0390   -8.1436    1.6645 C.3       1 <0>         0.0615
     37 O3          0.9456   -7.8818    3.0674 O.3       1 <0>        -0.3849
     38 C30         0.8389   -6.4921    3.3879 C.3       1 <0>         0.0625
     39 C31        -0.3999   -5.9094    2.7026 C.3       1 <0>         0.0120
     40 H1          3.1476   10.4156   -0.9682 H         1 <0>         0.0687
     41 H2          4.1639    8.9515   -0.7434 H         1 <0>         0.0732
     42 H3          3.5863    9.8722    0.6868 H         1 <0>         0.0734
     43 H4          0.9703    9.9770   -1.5648 H         1 <0>         0.1335
     44 H5         -1.0587    8.5861   -1.4884 H         1 <0>         0.1355
     45 H6          0.9374    5.8324    1.1029 H         1 <0>         0.1262
     46 H7          2.9651    7.2245    1.0118 H         1 <0>         0.1343
     47 H8         -3.0598    3.5802    0.0092 H         1 <0>         0.1784
     48 H9         -6.5817    5.5639    1.3261 H         1 <0>         0.0656
     49 H10        -5.0849    6.2845    2.0094 H         1 <0>         0.0565
     50 H11        -5.1481    4.5278    1.6395 H         1 <0>         0.0614
     51 H12        -6.5353    7.2315   -0.5338 H         1 <0>         0.0604
     52 H13        -5.0684    7.3943   -1.5577 H         1 <0>         0.0568
     53 H14        -5.0385    7.9519    0.1496 H         1 <0>         0.0614
     54 H15        -6.6235    4.7882   -1.0484 H         1 <0>         0.0647
     55 H16        -5.1900    3.7520   -0.7351 H         1 <0>         0.0637
     56 H17        -5.1566    4.9509   -2.0724 H         1 <0>         0.0570
     57 H18         0.7414    4.5248   -0.0719 H         1 <0>         0.4294
     58 H19         1.6215    2.3677    0.1180 H         1 <0>         0.4280
     59 H20        -1.3959    0.6376    1.1566 H         1 <0>         0.1450
     60 H21        -1.7537   -1.7925    1.1139 H         1 <0>         0.1296
     61 H22         2.6580    1.3348   -1.2361 H         1 <0>         0.1222
     62 H23         4.2405   -0.1501   -2.3437 H         1 <0>         0.1243
     63 H24         3.8790   -2.5810   -2.3706 H         1 <0>         0.1250
     64 H25         1.9286   -3.5650   -1.2926 H         1 <0>         0.1353
     65 H26        -1.3465   -3.7335    1.7244 H         1 <0>         0.0659
     66 H27        -2.2726   -3.5787    0.1931 H         1 <0>         0.0716
     67 H28        -2.3868   -5.9052    1.0039 H         1 <0>         0.0605
     68 H29        -1.4216   -5.8370   -0.5096 H         1 <0>         0.0912
     69 H30        -1.0977   -8.0949    1.3258 H         1 <0>         0.0437
     70 H31        -0.1044   -7.7249   -0.1244 H         1 <0>         0.0891
     71 H32         1.0925   -9.2291    1.4949 H         1 <0>         0.1001
     72 H33         1.9424   -7.6643    1.2595 H         1 <0>         0.0618
     73 H34         0.7475   -6.3731    4.4776 H         1 <0>         0.0994
     74 H35         1.7375   -5.9645    3.0355 H         1 <0>         0.0616
     75 H36        -0.4553   -4.8284    2.8983 H         1 <0>         0.0869
     76 H37        -1.3031   -6.3997    3.0948 H         1 <0>         0.0443
@<TRIPOS>BOND
     1    1    2 1
     2    1   40 1
     3    1   41 1
     4    1   42 1
     5    2    7 ar
     6    2    3 ar
     7    3    4 ar
     8    3   43 1
     9    4    5 ar
    10    4   44 1
    11    5    6 ar
    12    5    8 1
    13    6    7 ar
    14    6   45 1
    15    7   46 1
    16    8   12 1
    17    8    9 1
    18    9   10 2
    19    9   17 1
    20   10   11 1
    21   10   47 1
    22   11   12 2
    23   11   13 1
    24   13   14 1
    25   13   15 1
    26   13   16 1
    27   14   48 1
    28   14   49 1
    29   14   50 1
    30   15   51 1
    31   15   52 1
    32   15   53 1
    33   16   54 1
    34   16   55 1
    35   16   56 1
    36   17   18 am
    37   17   57 1
    38   18   19 2
    39   18   20 am
    40   20   21 1
    41   20   58 1
    42   21   26 ar
    43   21   22 ar
    44   22   23 ar
    45   22   59 1
    46   23   24 ar
    47   23   60 1
    48   24   25 ar
    49   24   31 1
    50   25   30 ar
    51   25   26 ar
    52   26   27 ar
    53   27   28 ar
    54   27   61 1
    55   28   29 ar
    56   28   62 1
    57   29   30 ar
    58   29   63 1
    59   30   64 1
    60   31   32 1
    61   32   33 1
    62   32   65 1
    63   32   66 1
    64   33   34 1
    65   33   67 1
    66   33   68 1
    67   34   39 1
    68   34   35 1
    69   35   36 1
    70   35   69 1
    71   35   70 1
    72   36   37 1
    73   36   71 1
    74   36   72 1
    75   37   38 1
    76   38   39 1
    77   38   73 1
    78   38   74 1
    79   39   75 1
    80   39   76 1
@<TRIPOS>MOLECULE
ZINC20148984
   41    45     0     0     0
SMALL
USER_CHARGES
1-cyclopentyl-3-(1H-pyrrolo[3,2-e]pyridin-5-yl)pyrazolo[4,5-e]pyrimidin-4-amine
@<TRIPOS>ATOM
      1 C1          4.4845    4.9055    2.0125 C.2       1 <0>        -0.1900
      2 C2          5.5992    4.3307    1.5348 C.2       1 <0>         0.0669
      3 N1          5.2848    3.4893    0.5015 N.pl3     1 <0>        -0.5784
      4 H1          5.9256    2.9627   -0.0014 H         1 <0>         0.4233
      5 C3          3.9281    3.5001    0.2812 C.ar      1 <0>         0.2921
      6 C4          3.3669    4.3889    1.2195 C.ar      1 <0>        -0.1505
      7 C5          1.9890    4.6049    1.2249 C.ar      1 <0>         0.0123
      8 C6          1.2154    3.9130    0.2940 C.ar      1 <0>        -0.1086
      9 C7          1.8449    3.0477   -0.6050 C.ar      1 <0>         0.1517
     10 N2          3.1471    2.8701   -0.5872 N.ar      1 <0>        -0.4865
     11 C8         -0.2553    4.0974    0.2542 C.2       1 <0>         0.1769
     12 C9         -1.2579    3.0400    0.1283 C.ar      1 <0>        -0.3246
     13 C10        -1.2161    1.6416    0.0009 C.ar      1 <0>         0.5185
     14 N3         -2.3661    0.9828   -0.1017 N.ar      1 <0>        -0.6042
     15 C11        -3.5224    1.6223   -0.0898 C.ar      1 <0>         0.3863
     16 N4         -3.6100    2.9293    0.0228 N.ar      1 <0>        -0.5738
     17 C12        -2.5123    3.6779    0.1313 C.ar      1 <0>         0.3755
     18 N5         -2.2765    5.0144    0.2581 N.pl3     1 <0>        -0.3684
     19 N6         -0.8976    5.2388    0.3304 N.2       1 <0>        -0.2292
     20 C13        -3.3071    6.0542    0.3110 C.3       1 <0>         0.1632
     21 C14        -3.0862    7.0753   -0.8240 C.3       1 <0>        -0.1330
     22 C15        -3.4640    8.4369   -0.1879 C.3       1 <0>        -0.1220
     23 C16        -2.9184    8.3038    1.2556 C.3       1 <0>        -0.1210
     24 C17        -3.2009    6.8348    1.6328 C.3       1 <0>        -0.1322
     25 N7         -0.0104    0.9674   -0.0117 N.pl3     1 <0>        -0.8291
     26 H2          4.4234    5.6137    2.8256 H         1 <0>         0.1556
     27 H3          6.5967    4.5059    1.9100 H         1 <0>         0.1829
     28 H4          1.5348    5.2845    1.9308 H         1 <0>         0.1424
     29 H5          1.2485    2.5132   -1.3297 H         1 <0>         0.1671
     30 H6         -4.4328    1.0478   -0.1756 H         1 <0>         0.2050
     31 H7         -4.2959    5.6044    0.2215 H         1 <0>         0.1144
     32 H8         -2.0422    7.0775   -1.1374 H         1 <0>         0.0814
     33 H9         -3.7386    6.8539   -1.6687 H         1 <0>         0.0742
     34 H10        -4.5455    8.5726   -0.1810 H         1 <0>         0.0720
     35 H11        -2.9740    9.2575   -0.7119 H         1 <0>         0.0733
     36 H12        -3.4484    8.9788    1.9276 H         1 <0>         0.0704
     37 H13        -1.8473    8.5043    1.2786 H         1 <0>         0.0705
     38 H14        -4.1384    6.7646    2.1843 H         1 <0>         0.0772
     39 H15        -2.3825    6.4400    2.2349 H         1 <0>         0.0748
     40 H16         0.0305    0.0526   -0.3317 H         1 <0>         0.4120
     41 H17         0.7961    1.4102    0.2956 H         1 <0>         0.4116
@<TRIPOS>BOND
     1    1    6 1
     2    1    2 2
     3    1   26 1
     4    2    3 1
     5    2   27 1
     6    3    4 1
     7    3    5 1
     8    5   10 ar
     9    5    6 ar
    10    6    7 ar
    11    7    8 ar
    12    7   28 1
    13    8    9 ar
    14    8   11 1
    15    9   10 ar
    16    9   29 1
    17   11   19 2
    18   11   12 1
    19   12   17 ar
    20   12   13 ar
    21   13   14 ar
    22   13   25 1
    23   14   15 ar
    24   15   16 ar
    25   15   30 1
    26   16   17 ar
    27   17   18 1
    28   18   19 1
    29   18   20 1
    30   20   24 1
    31   20   21 1
    32   20   31 1
    33   21   22 1
    34   21   32 1
    35   21   33 1
    36   22   23 1
    37   22   34 1
    38   22   35 1
    39   23   24 1
    40   23   36 1
    41   23   37 1
    42   24   38 1
    43   24   39 1
    44   25   40 1
    45   25   41 1
@<TRIPOS>MOLECULE
ZINC49070412
   65    70     0     0     0
SMALL
USER_CHARGES

@<TRIPOS>ATOM
      1 C1         -0.0164    1.3580    0.0095 C.ar      1 <0>        -0.0960
      2 C2          1.1640    2.0929    0.0022 C.ar      1 <0>        -0.0689
      3 C3          2.3915    1.4552   -0.0134 C.ar      1 <0>        -0.0273
      4 C4          2.4388    0.0398   -0.0214 C.ar      1 <0>         0.1105
      5 C5          1.2265   -0.6935   -0.0132 C.ar      1 <0>         0.0712
      6 C6          0.0021   -0.0041    0.0020 C.ar      1 <0>        -0.0710
      7 N1          1.2607   -2.0323   -0.0202 N.ar      1 <0>        -0.4118
      8 C7          2.4141   -2.6562   -0.0345 C.ar      1 <0>         0.0816
      9 C8          3.6197   -1.9309   -0.0422 C.ar      1 <0>         0.1844
     10 N2          3.6054   -0.6081   -0.0359 N.ar      1 <0>        -0.4203
     11 C9          4.9135   -2.6532   -0.0579 C.2       1 <0>        -0.1805
     12 C10         6.1943   -2.0717    0.0383 C.2       1 <0>         0.1062
     13 N3          7.0792   -3.0310   -0.0117 N.2       1 <0>        -0.2826
     14 N4          6.4066   -4.2521   -0.1406 N.pl3     1 <0>        -0.3736
     15 C11         5.0832   -4.0049   -0.1622 C.2       1 <0>         0.0784
     16 C12         7.0348   -5.5725   -0.2312 C.3       1 <0>         0.1567
     17 C13         6.2116   -6.4684   -1.1613 C.3       1 <0>        -0.1646
     18 C14         6.8281   -7.8686   -1.1890 C.3       1 <0>        -0.0001
     19 N5          6.8269   -8.4346    0.1653 N.4       1 <0>        -0.5084
     20 C15         7.6728   -7.6203    1.0462 C.3       1 <0>        -0.0020
     21 C16         7.0888   -6.2105    1.1599 C.3       1 <0>        -0.1643
     22 C17         3.6445    2.2453   -0.0221 C.ar      1 <0>         0.0181
     23 C18         4.6614    1.9543    0.8866 C.ar      1 <0>        -0.1249
     24 C19         5.8286    2.6945    0.8745 C.ar      1 <0>         0.1315
     25 C20         5.9891    3.7243   -0.0380 C.ar      1 <0>        -0.1456
     26 C21         4.9817    4.0176   -0.9425 C.ar      1 <0>         0.1534
     27 C22         3.8134    3.2789   -0.9428 C.ar      1 <0>        -0.1497
     28 F1          5.1436    5.0237   -1.8294 F         1 <0>        -0.1211
     29 C23         7.2635    4.5284   -0.0465 C.3       1 <0>         0.0934
     30 N6          8.2325    3.9008   -0.9549 N.3       1 <0>        -0.5299
     31 C24         8.6580    2.5887   -0.4464 C.3       1 <0>         0.0164
     32 C25         9.6188    1.9455   -1.4500 C.3       1 <0>         0.0656
     33 O1         10.7248    2.8241   -1.6738 O.3       1 <0>        -0.3842
     34 C26        10.3466    4.1111   -2.1699 C.3       1 <0>         0.0639
     35 C27         9.3932    4.7761   -1.1736 C.3       1 <0>         0.0172
     36 F2          6.8145    2.4134    1.7544 F         1 <0>        -0.1282
     37 H1         -0.9640    1.8759    0.0259 H         1 <0>         0.1454
     38 H2          1.1220    3.1720    0.0083 H         1 <0>         0.1447
     39 H3         -0.9266   -0.5554    0.0082 H         1 <0>         0.1449
     40 H4          2.4387   -3.7360   -0.0401 H         1 <0>         0.1668
     41 H5          6.4065   -1.0173    0.1359 H         1 <0>         0.1951
     42 H6          4.2981   -4.7415   -0.2489 H         1 <0>         0.1815
     43 H7          8.0462   -5.4688   -0.6242 H         1 <0>         0.1234
     44 H8          5.1868   -6.5291   -0.7951 H         1 <0>         0.1001
     45 H9          6.2150   -6.0492   -2.1675 H         1 <0>         0.1262
     46 H10         6.2445   -8.5090   -1.8505 H         1 <0>         0.1448
     47 H11         7.8527   -7.8068   -1.5556 H         1 <0>         0.1383
     48 H12         5.8835   -8.4461    0.5231 H         1 <0>         0.4298
     49 H13         7.7128   -8.0773    2.0349 H         1 <0>         0.1429
     50 H14         8.6794   -7.5637    0.6319 H         1 <0>         0.1377
     51 H15         7.7192   -5.6069    1.8129 H         1 <0>         0.1241
     52 H16         6.0821   -6.2658    1.5743 H         1 <0>         0.0970
     53 H17         4.5369    1.1521    1.5989 H         1 <0>         0.1411
     54 H18         3.0306    3.5050   -1.6517 H         1 <0>         0.1463
     55 H19         7.0512    5.5422   -0.3859 H         1 <0>         0.0963
     56 H20         7.6787    4.5620    0.9608 H         1 <0>         0.0565
     57 H21         9.1633    2.7158    0.5111 H         1 <0>         0.0476
     58 H22         7.7856    1.9484   -0.3161 H         1 <0>         0.0819
     59 H23         9.9814    0.9982   -1.0510 H         1 <0>         0.0968
     60 H24         9.0978    1.7693   -2.3910 H         1 <0>         0.0583
     61 H25        11.2356    4.7299   -2.2916 H         1 <0>         0.1019
     62 H26         9.8468    3.9978   -3.1319 H         1 <0>         0.0613
     63 H27         9.0574    5.7326   -1.5741 H         1 <0>         0.0907
     64 H28         9.9102    4.9382   -0.2277 H         1 <0>         0.0471
     65 H29         7.1845   -9.3776    0.1349 H         1 <0>         0.4376
@<TRIPOS>BOND
     1    1    6 ar
     2    1    2 ar
     3    1   37 1
     4    2    3 ar
     5    2   38 1
     6    3    4 ar
     7    3   22 1
     8    4   10 ar
     9    4    5 ar
    10    5    6 ar
    11    5    7 ar
    12    6   39 1
    13    7    8 ar
    14    8    9 ar
    15    8   40 1
    16    9   10 ar
    17    9   11 1
    18   11   15 2
    19   11   12 1
    20   12   13 2
    21   12   41 1
    22   13   14 1
    23   14   15 1
    24   14   16 1
    25   15   42 1
    26   16   21 1
    27   16   17 1
    28   16   43 1
    29   17   18 1
    30   17   44 1
    31   17   45 1
    32   18   19 1
    33   18   46 1
    34   18   47 1
    35   19   20 1
    36   19   48 1
    37   19   65 1
    38   20   21 1
    39   20   49 1
    40   20   50 1
    41   21   51 1
    42   21   52 1
    43   22   27 ar
    44   22   23 ar
    45   23   24 ar
    46   23   53 1
    47   24   25 ar
    48   24   36 1
    49   25   26 ar
    50   25   29 1
    51   26   27 ar
    52   26   28 1
    53   27   54 1
    54   29   30 1
    55   29   55 1
    56   29   56 1
    57   30   35 1
    58   30   31 1
    59   31   32 1
    60   31   57 1
    61   31   58 1
    62   32   33 1
    63   32   59 1
    64   32   60 1
    65   33   34 1
    66   34   35 1
    67   34   61 1
    68   34   62 1
    69   35   63 1
    70   35   64 1
@<TRIPOS>MOLECULE
ZINC36701290
   67    71     0     0     0
SMALL
USER_CHARGES

@<TRIPOS>ATOM
      1 C1          0.1130    1.5923   -0.8479 C.3       1 <0>        -0.1287
      2 C2          0.1813    0.0901   -0.7489 C.ar      1 <0>        -0.0226
      3 C3         -0.2172   -0.6895   -1.8160 C.ar      1 <0>        -0.1229
      4 C4         -0.1576   -2.0667   -1.7341 C.ar      1 <0>        -0.0703
      5 C5          0.3069   -2.6821   -0.5688 C.ar      1 <0>        -0.1502
      6 C6          0.7111   -1.9036    0.5129 C.ar      1 <0>        -0.0236
      7 C7          0.6540   -0.5116    0.4223 C.ar      1 <0>         0.0116
      8 C8          1.0725    0.2978    1.5271 C.1       1 <0>        -0.0942
      9 C9          1.4156    0.9613    2.4328 C.1       1 <0>        -0.0690
     10 C10         1.8341    1.7706    3.5375 C.2       1 <0>         0.0869
     11 C11         1.8250    3.1542    3.6008 C.2       1 <0>         0.0742
     12 N1          2.2875    3.5183    4.7899 N.2       1 <0>        -0.4548
     13 C12         2.5954    2.4378    5.4990 C.2       1 <0>         0.1788
     14 N2          2.3178    1.3265    4.7445 N.pl3     1 <0>        -0.2622
     15 N3          2.5489    0.0499    5.2652 N.2       1 <0>        -0.2630
     16 C13         3.0271   -0.1004    6.4724 C.2       1 <0>         0.1383
     17 C14         3.3192    1.0106    7.2724 C.2       1 <0>        -0.1747
     18 C15         3.1138    2.2707    6.7959 C.2       1 <0>        -0.0018
     19 C16         0.3685   -4.1568   -0.4841 C.2       1 <0>         0.5698
     20 O1          0.7728   -4.6909    0.5303 O.2       1 <0>        -0.5100
     21 N4         -0.0234   -4.9089   -1.5315 N.am      1 <0>        -0.6728
     22 C17         0.1280   -6.2985   -1.4901 C.ar      1 <0>         0.1624
     23 C18        -0.0435   -6.9820   -0.2930 C.ar      1 <0>        -0.0887
     24 C19         0.1068   -8.3542   -0.2554 C.ar      1 <0>        -0.0950
     25 C20         0.4283   -9.0479   -1.4080 C.ar      1 <0>        -0.0656
     26 C21         0.6001   -8.3706   -2.6010 C.ar      1 <0>        -0.1380
     27 C22         0.4447   -6.9988   -2.6467 C.ar      1 <0>        -0.1002
     28 C23         0.9508   -9.1305   -3.8542 C.3       1 <0>         0.5099
     29 F1          1.0232   -8.2428   -4.9330 F         1 <0>        -0.1767
     30 F2          2.1878   -9.7619   -3.6860 F         1 <0>        -0.1763
     31 F3         -0.0331  -10.0924   -4.1070 F         1 <0>        -0.1621
     32 C24         0.5920  -10.5453   -1.3632 C.3       1 <0>         0.0824
     33 N5         -0.6214  -11.1865   -1.8872 N.3       1 <0>        -0.5292
     34 C25        -1.7868  -10.8732   -1.0483 C.3       1 <0>         0.0214
     35 C26        -3.0373  -11.5089   -1.6598 C.3       1 <0>        -0.0014
     36 N6         -2.8536  -12.9634   -1.7491 N.4       1 <0>        -0.3880
     37 C27        -1.7011  -13.2612   -2.6097 C.3       1 <0>        -0.0016
     38 C28        -0.4395  -12.6401   -2.0062 C.3       1 <0>         0.0270
     39 C29        -4.0613  -13.5752   -2.3194 C.3       1 <0>        -0.0454
     40 H1          1.0526    1.9732   -1.2481 H         1 <0>         0.0845
     41 H2         -0.7053    1.8759   -1.5098 H         1 <0>         0.0787
     42 H3         -0.0577    2.0144    0.1424 H         1 <0>         0.0754
     43 H4         -0.5779   -0.2200   -2.7193 H         1 <0>         0.1413
     44 H5         -0.4712   -2.6699   -2.5733 H         1 <0>         0.1300
     45 H6          1.0709   -2.3744    1.4159 H         1 <0>         0.1436
     46 H7          1.4980    3.8217    2.8172 H         1 <0>         0.2005
     47 H8          3.1987   -1.0946    6.8577 H         1 <0>         0.2036
     48 H9          3.7134    0.8687    8.2678 H         1 <0>         0.1627
     49 H10         3.3363    3.1304    7.4105 H         1 <0>         0.1685
     50 H11        -0.4106   -4.4863   -2.3141 H         1 <0>         0.4162
     51 H12        -0.2938   -6.4408    0.6075 H         1 <0>         0.1527
     52 H13        -0.0264   -8.8861    0.6749 H         1 <0>         0.1372
     53 H14         0.5743   -6.4709   -3.5799 H         1 <0>         0.1463
     54 H15         1.4482  -10.8355   -1.9721 H         1 <0>         0.1050
     55 H16         0.7546  -10.8624   -0.3331 H         1 <0>         0.0663
     56 H17        -1.6303  -11.2702   -0.0454 H         1 <0>         0.0623
     57 H18        -1.9170   -9.7922   -0.9957 H         1 <0>         0.1237
     58 H19        -3.9006  -11.2896   -1.0315 H         1 <0>         0.1352
     59 H20        -3.2012  -11.1014   -2.6574 H         1 <0>         0.1378
     60 H21        -1.5738  -14.3411   -2.6857 H         1 <0>         0.1364
     61 H22        -1.8719  -12.8448   -3.6025 H         1 <0>         0.1387
     62 H23         0.4132  -12.8482   -2.6523 H         1 <0>         0.1244
     63 H24        -0.2609  -13.0663   -1.0190 H         1 <0>         0.0626
     64 H25        -4.2384  -13.1694   -3.3154 H         1 <0>         0.1230
     65 H26        -3.9251  -14.6546   -2.3857 H         1 <0>         0.1241
     66 H27        -4.9164  -13.3554   -1.6802 H         1 <0>         0.1237
     67 H28        -2.6903  -13.3388   -0.8269 H         1 <0>         0.4222
@<TRIPOS>BOND
     1    1    2 1
     2    1   40 1
     3    1   41 1
     4    1   42 1
     5    2    7 ar
     6    2    3 ar
     7    3    4 ar
     8    3   43 1
     9    4    5 ar
    10    4   44 1
    11    5    6 ar
    12    5   19 1
    13    6    7 ar
    14    6   45 1
    15    7    8 1
    16    8    9 3
    17    9   10 1
    18   10   14 1
    19   10   11 2
    20   11   12 1
    21   11   46 1
    22   12   13 2
    23   13   18 1
    24   13   14 1
    25   14   15 1
    26   15   16 2
    27   16   17 1
    28   16   47 1
    29   17   18 2
    30   17   48 1
    31   18   49 1
    32   19   20 2
    33   19   21 am
    34   21   22 1
    35   21   50 1
    36   22   27 ar
    37   22   23 ar
    38   23   24 ar
    39   23   51 1
    40   24   25 ar
    41   24   52 1
    42   25   26 ar
    43   25   32 1
    44   26   27 ar
    45   26   28 1
    46   27   53 1
    47   28   29 1
    48   28   30 1
    49   28   31 1
    50   32   33 1
    51   32   54 1
    52   32   55 1
    53   33   38 1
    54   33   34 1
    55   34   35 1
    56   34   56 1
    57   34   57 1
    58   35   36 1
    59   35   58 1
    60   35   59 1
    61   36   37 1
    62   36   39 1
    63   36   67 1
    64   37   38 1
    65   37   60 1
    66   37   61 1
    67   38   62 1
    68   38   63 1
    69   39   64 1
    70   39   65 1
    71   39   66 1
@<TRIPOS>MOLECULE
ZINC36701290
   67    71     0     0     0
SMALL
USER_CHARGES

@<TRIPOS>ATOM
      1 C1         -0.5989    1.4461    0.1216 C.3       1 <0>        -0.1300
      2 C2         -0.4345   -0.0515    0.0860 C.ar      1 <0>        -0.0169
      3 C3         -0.9586   -0.7772   -0.9648 C.ar      1 <0>        -0.1229
      4 C4         -0.8123   -2.1497   -1.0058 C.ar      1 <0>        -0.0678
      5 C5         -0.1322   -2.8150    0.0176 C.ar      1 <0>        -0.1557
      6 C6          0.3999   -2.0911    1.0817 C.ar      1 <0>        -0.0205
      7 C7          0.2539   -0.7030    1.1149 C.ar      1 <0>         0.0119
      8 C8          0.8021    0.0509    2.2020 C.1       1 <0>        -0.0989
      9 C9          1.2515    0.6690    3.0932 C.1       1 <0>        -0.0650
     10 C10         1.7997    1.4230    4.1802 C.2       1 <0>         0.0842
     11 C11         1.7264    2.7948    4.3566 C.2       1 <0>         0.0752
     12 N1          2.3556    3.1025    5.4835 N.2       1 <0>        -0.4545
     13 C12         2.8324    1.9967    6.0448 C.2       1 <0>         0.1796
     14 N2          2.4962    0.9265    5.2555 N.pl3     1 <0>        -0.2619
     15 N3          2.8773   -0.3661    5.6275 N.2       1 <0>        -0.2643
     16 C13         3.5526   -0.5706    6.7278 C.2       1 <0>         0.1387
     17 C14         3.9105    0.4970    7.5595 C.2       1 <0>        -0.1747
     18 C15         3.5629    1.7717    7.2256 C.2       1 <0>        -0.0014
     19 C16         0.0218   -4.2847   -0.0289 C.2       1 <0>         0.5746
     20 O1          0.6136   -4.8623    0.8621 O.2       1 <0>        -0.5114
     21 N4         -0.4941   -4.9840   -1.0591 N.am      1 <0>        -0.6731
     22 C17        -0.2543   -6.3580   -1.1612 C.ar      1 <0>         0.1803
     23 C18        -0.1803   -7.1388   -0.0146 C.ar      1 <0>        -0.0743
     24 C19         0.0566   -8.4951   -0.1189 C.ar      1 <0>        -0.1100
     25 C20         0.2207   -9.0764   -1.3631 C.ar      1 <0>        -0.1091
     26 C21         0.1481   -8.3020   -2.5063 C.ar      1 <0>        -0.1325
     27 C22        -0.0952   -6.9458   -2.4093 C.ar      1 <0>        -0.0846
     28 C23         0.3280   -8.9395   -3.8599 C.3       1 <0>         0.5059
     29 F1          0.0937   -7.9880   -4.8583 F         1 <0>        -0.1626
     30 F2          1.6346   -9.4257   -3.9765 F         1 <0>        -0.1716
     31 F3         -0.5773   -9.9967   -4.0015 F         1 <0>        -0.1716
     32 C24         0.4796  -10.5569   -1.4731 C.3       1 <0>         0.0310
     33 N5          1.0340  -11.0525   -0.2062 N.4       1 <0>        -0.3854
     34 C25         2.3662  -10.4712    0.0057 C.3       1 <0>        -0.0108
     35 C26         2.9362  -10.9724    1.3344 C.3       1 <0>         0.0268
     36 N6          3.0219  -12.4394    1.3052 N.3       1 <0>        -0.5429
     37 C27         1.6992  -13.0349    1.0689 C.3       1 <0>         0.0250
     38 C28         1.1393  -12.5166   -0.2577 C.3       1 <0>        -0.0037
     39 C29         3.6185  -12.9566    2.5439 C.3       1 <0>         0.0196
     40 H1          0.2413    1.9161   -0.3895 H         1 <0>         0.0845
     41 H2         -1.5279    1.7216   -0.3775 H         1 <0>         0.0801
     42 H3         -0.6290    1.7838    1.1575 H         1 <0>         0.0765
     43 H4         -1.4859   -0.2691   -1.7585 H         1 <0>         0.1428
     44 H5         -1.2251   -2.7107   -1.8312 H         1 <0>         0.1305
     45 H6          0.9264   -2.6006    1.8752 H         1 <0>         0.1434
     46 H7          1.2410    3.4936    3.6914 H         1 <0>         0.2006
     47 H8          3.8379   -1.5764    6.9989 H         1 <0>         0.2036
     48 H9          4.4683    0.3106    8.4653 H         1 <0>         0.1630
     49 H10         3.8356    2.5979    7.8654 H         1 <0>         0.1688
     50 H11        -1.0316   -4.5344   -1.7297 H         1 <0>         0.4212
     51 H12        -0.3076   -6.6854    0.9573 H         1 <0>         0.1630
     52 H13         0.1143   -9.1027    0.7721 H         1 <0>         0.1310
     53 H14        -0.1566   -6.3423   -3.3028 H         1 <0>         0.1577
     54 H15        -0.4554  -11.0743   -1.6877 H         1 <0>         0.1535
     55 H16         1.1907  -10.7426   -2.2782 H         1 <0>         0.1430
     56 H17         3.0265  -10.7696   -0.8086 H         1 <0>         0.1419
     57 H18         2.2885   -9.3842    0.0306 H         1 <0>         0.1370
     58 H19         3.9309  -10.5529    1.4847 H         1 <0>         0.1256
     59 H20         2.2833  -10.6624    2.1503 H         1 <0>         0.0610
     60 H21         1.7914  -14.1201    1.0255 H         1 <0>         0.1265
     61 H22         1.0258  -12.7589    1.8804 H         1 <0>         0.0612
     62 H23         0.1521  -12.9461   -0.4279 H         1 <0>         0.1394
     63 H24         1.8059  -12.8046   -1.0706 H         1 <0>         0.1415
     64 H25         3.0050  -12.6593    3.3944 H         1 <0>         0.0397
     65 H26         3.6700  -14.0444    2.4957 H         1 <0>         0.0844
     66 H27         4.6230  -12.5501    2.6607 H         1 <0>         0.0846
     67 H28         0.4263  -10.7857    0.5538 H         1 <0>         0.4189
@<TRIPOS>BOND
     1    1    2 1
     2    1   40 1
     3    1   41 1
     4    1   42 1
     5    2    7 ar
     6    2    3 ar
     7    3    4 ar
     8    3   43 1
     9    4    5 ar
    10    4   44 1
    11    5    6 ar
    12    5   19 1
    13    6    7 ar
    14    6   45 1
    15    7    8 1
    16    8    9 3
    17    9   10 1
    18   10   14 1
    19   10   11 2
    20   11   12 1
    21   11   46 1
    22   12   13 2
    23   13   18 1
    24   13   14 1
    25   14   15 1
    26   15   16 2
    27   16   17 1
    28   16   47 1
    29   17   18 2
    30   17   48 1
    31   18   49 1
    32   19   20 2
    33   19   21 am
    34   21   22 1
    35   21   50 1
    36   22   27 ar
    37   22   23 ar
    38   23   24 ar
    39   23   51 1
    40   24   25 ar
    41   24   52 1
    42   25   26 ar
    43   25   32 1
    44   26   27 ar
    45   26   28 1
    46   27   53 1
    47   28   29 1
    48   28   30 1
    49   28   31 1
    50   32   33 1
    51   32   54 1
    52   32   55 1
    53   33   38 1
    54   33   34 1
    55   33   67 1
    56   34   35 1
    57   34   56 1
    58   34   57 1
    59   35   36 1
    60   35   58 1
    61   35   59 1
    62   36   37 1
    63   36   39 1
    64   37   38 1
    65   37   60 1
    66   37   61 1
    67   38   62 1
    68   38   63 1
    69   39   64 1
    70   39   65 1
    71   39   66 1
@<TRIPOS>MOLECULE
ZINC36701290
   66    70     0     0     0
SMALL
USER_CHARGES

@<TRIPOS>ATOM
      1 C1          0.1127    1.5927   -0.8521 C.3       1 <0>        -0.1265
      2 C2          0.1810    0.0906   -0.7526 C.ar      1 <0>        -0.0265
      3 C3         -0.2172   -0.6893   -1.8195 C.ar      1 <0>        -0.1237
      4 C4         -0.1576   -2.0665   -1.7373 C.ar      1 <0>        -0.0691
      5 C5          0.3064   -2.6816   -0.5715 C.ar      1 <0>        -0.1442
      6 C6          0.7104   -1.9028    0.5100 C.ar      1 <0>        -0.0237
      7 C7          0.6533   -0.5108    0.4190 C.ar      1 <0>         0.0067
      8 C8          1.0715    0.2989    1.5236 C.1       1 <0>        -0.0843
      9 C9          1.4143    0.9627    2.4292 C.1       1 <0>        -0.0795
     10 C10         1.8324    1.7724    3.5339 C.2       1 <0>         0.0929
     11 C11         1.8232    3.1560    3.5967 C.2       1 <0>         0.0709
     12 N1          2.2853    3.5204    4.7858 N.2       1 <0>        -0.4560
     13 C12         2.5930    2.4402    5.4954 C.2       1 <0>         0.1762
     14 N2          2.3157    1.3287    4.7411 N.pl3     1 <0>        -0.2624
     15 N3          2.5466    0.0522    5.2623 N.2       1 <0>        -0.2603
     16 C13         3.0244   -0.0977    6.4697 C.2       1 <0>         0.1373
     17 C14         3.3162    1.0135    7.2695 C.2       1 <0>        -0.1747
     18 C15         3.1110    2.2735    6.7925 C.2       1 <0>        -0.0030
     19 C16         0.3681   -4.1562   -0.4864 C.2       1 <0>         0.5659
     20 O1          0.7720   -4.6901    0.5283 O.2       1 <0>        -0.5113
     21 N4         -0.0236   -4.9087   -1.5337 N.am      1 <0>        -0.6691
     22 C17         0.1279   -6.2983   -1.4918 C.ar      1 <0>         0.1460
     23 C18        -0.0439   -6.9814   -0.2945 C.ar      1 <0>        -0.0871
     24 C19         0.1064   -8.3535   -0.2565 C.ar      1 <0>        -0.0958
     25 C20         0.4282   -9.0476   -1.4087 C.ar      1 <0>        -0.0428
     26 C21         0.6004   -8.3707   -2.6019 C.ar      1 <0>        -0.1424
     27 C22         0.4449   -6.9989   -2.6481 C.ar      1 <0>        -0.0999
     28 C23         0.9515   -9.1310   -3.8548 C.3       1 <0>         0.5084
     29 F1          1.0242   -8.2436   -4.9339 F         1 <0>        -0.1831
     30 F2          2.1885   -9.7623   -3.6860 F         1 <0>        -0.1789
     31 F3         -0.0323  -10.0929   -4.1076 F         1 <0>        -0.1515
     32 C24         0.5920  -10.5450   -1.3634 C.3       1 <0>         0.0767
     33 N5         -0.6211  -11.1864   -1.8878 N.3       1 <0>        -0.5270
     34 C25        -1.7872  -10.8714   -1.0508 C.3       1 <0>         0.0554
     35 C26        -3.0409  -11.4906   -1.6733 C.3       1 <0>         0.0576
     36 N6         -2.8588  -12.9440   -1.7923 N.3       1 <0>        -0.5461
     37 C27        -1.6927  -13.2590   -2.6293 C.3       1 <0>         0.0574
     38 C28        -0.4391  -12.6398   -2.0068 C.3       1 <0>         0.0591
     39 C29        -4.0719  -13.5853   -2.3166 C.3       1 <0>         0.0250
     40 H1          1.0525    1.9735   -1.2521 H         1 <0>         0.0826
     41 H2         -0.7054    1.8762   -1.5143 H         1 <0>         0.0774
     42 H3         -0.0583    2.0151    0.1381 H         1 <0>         0.0740
     43 H4         -0.5775   -0.2201   -2.7231 H         1 <0>         0.1402
     44 H5         -0.4710   -2.6700   -2.5763 H         1 <0>         0.1314
     45 H6          1.0698   -2.3732    1.4133 H         1 <0>         0.1437
     46 H7          1.4966    3.8232    2.8128 H         1 <0>         0.1999
     47 H8          3.1959   -1.0918    6.8554 H         1 <0>         0.2038
     48 H9          3.7101    0.8720    8.2651 H         1 <0>         0.1619
     49 H10         3.3333    3.1334    7.4070 H         1 <0>         0.1673
     50 H11        -0.4105   -4.4864   -2.3165 H         1 <0>         0.4134
     51 H12        -0.2945   -6.4399    0.6057 H         1 <0>         0.1491
     52 H13        -0.0271   -8.8853    0.6740 H         1 <0>         0.1372
     53 H14         0.5749   -6.4712   -3.5814 H         1 <0>         0.1422
     54 H15         1.4485  -10.8354   -1.9719 H         1 <0>         0.0935
     55 H16         0.7541  -10.8618   -0.3332 H         1 <0>         0.0553
     56 H17        -1.6381  -11.2794   -0.0511 H         1 <0>         0.0439
     57 H18        -1.9085   -9.7900   -0.9882 H         1 <0>         0.0805
     58 H19        -3.9025  -11.2828   -1.0388 H         1 <0>         0.0787
     59 H20        -3.2053  -11.0626   -2.6621 H         1 <0>         0.0433
     60 H21        -1.5714  -14.3404   -2.6919 H         1 <0>         0.0801
     61 H22        -1.8418  -12.8510   -3.6290 H         1 <0>         0.0446
     62 H23         0.4226  -12.8476   -2.6413 H         1 <0>         0.0811
     63 H24        -0.2746  -13.0678   -1.0180 H         1 <0>         0.0448
     64 H25        -4.3002  -13.1799   -3.3023 H         1 <0>         0.0267
     65 H26        -3.9098  -14.6604   -2.3947 H         1 <0>         0.0687
     66 H27        -4.9059  -13.3917   -1.6420 H         1 <0>         0.0686
@<TRIPOS>BOND
     1    1    2 1
     2    1   40 1
     3    1   41 1
     4    1   42 1
     5    2    7 ar
     6    2    3 ar
     7    3    4 ar
     8    3   43 1
     9    4    5 ar
    10    4   44 1
    11    5    6 ar
    12    5   19 1
    13    6    7 ar
    14    6   45 1
    15    7    8 1
    16    8    9 3
    17    9   10 1
    18   10   14 1
    19   10   11 2
    20   11   12 1
    21   11   46 1
    22   12   13 2
    23   13   18 1
    24   13   14 1
    25   14   15 1
    26   15   16 2
    27   16   17 1
    28   16   47 1
    29   17   18 2
    30   17   48 1
    31   18   49 1
    32   19   20 2
    33   19   21 am
    34   21   22 1
    35   21   50 1
    36   22   27 ar
    37   22   23 ar
    38   23   24 ar
    39   23   51 1
    40   24   25 ar
    41   24   52 1
    42   25   26 ar
    43   25   32 1
    44   26   27 ar
    45   26   28 1
    46   27   53 1
    47   28   29 1
    48   28   30 1
    49   28   31 1
    50   32   33 1
    51   32   54 1
    52   32   55 1
    53   33   38 1
    54   33   34 1
    55   34   35 1
    56   34   56 1
    57   34   57 1
    58   35   36 1
    59   35   58 1
    60   35   59 1
    61   36   37 1
    62   36   39 1
    63   37   38 1
    64   37   60 1
    65   37   61 1
    66   38   62 1
    67   38   63 1
    68   39   64 1
    69   39   65 1
    70   39   66 1
@<TRIPOS>MOLECULE
ZINC13493055
   37    40     0     0     0
SMALL
USER_CHARGES
5-(2,6-dichlorophenyl)-2-(2,4-difluorophenyl)sulfanyl-pyrimido[6,1-f]pyridazin-6-one
@<TRIPOS>ATOM
      1 C1          0.7819    4.3410    0.0524 C.ar      1 <0>        -0.0865
      2 C2         -0.4275    5.0027   -0.0644 C.ar      1 <0>        -0.1052
      3 C3         -1.6103    4.2903   -0.0692 C.ar      1 <0>        -0.0078
      4 C4         -1.5836    2.8981    0.0381 C.ar      1 <0>        -0.0051
      5 C5         -0.3594    2.2372    0.1611 C.ar      1 <0>        -0.0079
      6 C6          0.8156    2.9624    0.1649 C.ar      1 <0>        -0.1052
      7 Cl1        -0.3147    0.5075    0.3018 Cl        1 <0>        -0.0496
      8 C7         -2.8461    2.1276    0.0266 C.2       1 <0>        -0.1962
      9 C8         -3.3978    1.6608   -1.1750 C.2       1 <0>         0.1634
     10 C9         -2.7630    1.9018   -2.4066 C.2       1 <0>        -0.0494
     11 C10        -3.3310    1.4261   -3.5469 C.2       1 <0>        -0.1079
     12 C11        -4.5373    0.6985   -3.4809 C.2       1 <0>         0.1181
     13 N1         -5.1260    0.4712   -2.3297 N.2       1 <0>        -0.2574
     14 N2         -4.5673    0.9472   -1.1371 N.pl3     1 <0>        -0.3270
     15 C12        -5.1778    0.7109    0.0511 C.2       1 <0>         0.4228
     16 N3         -4.6823    1.1412    1.1775 N.2       1 <0>        -0.5427
     17 C13        -3.5381    1.8434    1.2263 C.2       1 <0>         0.5151
     18 O1         -3.0989    2.2338    2.2995 O.2       1 <0>        -0.4890
     19 S1         -5.2649    0.0865   -4.9643 S.3       1 <0>         0.1498
     20 C14        -6.6196   -0.8905   -4.4031 C.ar      1 <0>        -0.2138
     21 C15        -7.9169   -0.4067   -4.5085 C.ar      1 <0>         0.0058
     22 C16        -8.9776   -1.1741   -4.0680 C.ar      1 <0>        -0.1725
     23 C17        -8.7491   -2.4257   -3.5211 C.ar      1 <0>         0.1750
     24 C18        -7.4569   -2.9119   -3.4142 C.ar      1 <0>        -0.2011
     25 C19        -6.3919   -2.1502   -3.8590 C.ar      1 <0>         0.1941
     26 F1         -5.1316   -2.6265   -3.7599 F         1 <0>        -0.1130
     27 F2         -9.7887   -3.1735   -3.0908 F         1 <0>        -0.1191
     28 Cl2        -3.1267    5.1227   -0.2165 Cl        1 <0>        -0.0501
     29 H1          1.7040    4.9031    0.0556 H         1 <0>         0.1468
     30 H2         -0.4464    6.0789   -0.1525 H         1 <0>         0.1450
     31 H3          1.7632    2.4523    0.2554 H         1 <0>         0.1450
     32 H4         -1.8394    2.4601   -2.4465 H         1 <0>         0.1694
     33 H5         -2.8589    1.6049   -4.5017 H         1 <0>         0.1688
     34 H6         -6.1009    0.1504    0.0642 H         1 <0>         0.2171
     35 H7         -8.0965    0.5691   -4.9351 H         1 <0>         0.1572
     36 H8         -9.9865   -0.7976   -4.1504 H         1 <0>         0.1548
     37 H9         -7.2812   -3.8884   -2.9877 H         1 <0>         0.1586
@<TRIPOS>BOND
     1    1    6 ar
     2    1    2 ar
     3    1   29 1
     4    2    3 ar
     5    2   30 1
     6    3    4 ar
     7    3   28 1
     8    4    5 ar
     9    4    8 1
    10    5    6 ar
    11    5    7 1
    12    6   31 1
    13    8   17 1
    14    8    9 2
    15    9   14 1
    16    9   10 1
    17   10   11 2
    18   10   32 1
    19   11   12 1
    20   11   33 1
    21   12   13 2
    22   12   19 1
    23   13   14 1
    24   14   15 1
    25   15   16 2
    26   15   34 1
    27   16   17 1
    28   17   18 2
    29   19   20 1
    30   20   25 ar
    31   20   21 ar
    32   21   22 ar
    33   21   35 1
    34   22   23 ar
    35   22   36 1
    36   23   24 ar
    37   23   27 1
    38   24   25 ar
    39   24   37 1
    40   25   26 1
@<TRIPOS>MOLECULE
ZINC13677843
   40    43     0     0     0
SMALL
USER_CHARGES

@<TRIPOS>ATOM
      1 C1         -0.4972    1.2152   -0.2273 C.3       1 <0>         0.0236
      2 O1          0.2492    0.0508    0.1321 O.3       1 <0>        -0.3016
      3 C2          1.0792   -0.4664   -0.8127 C.ar      1 <0>         0.1188
      4 C3          1.1765    0.1382   -2.0569 C.ar      1 <0>        -0.1587
      5 C4          2.0179   -0.3853   -3.0165 C.ar      1 <0>        -0.0646
      6 C5          2.7744   -1.5219   -2.7446 C.ar      1 <0>        -0.0211
      7 C6          2.6764   -2.1301   -1.4915 C.ar      1 <0>        -0.1369
      8 C7          1.8363   -1.6002   -0.5298 C.ar      1 <0>         0.0987
      9 O2          1.7453   -2.1901    0.6922 O.3       1 <0>        -0.3036
     10 C8          2.5502   -3.3498    0.9142 C.3       1 <0>         0.0239
     11 C9          3.5874   -1.8732   -3.9364 C.2       1 <0>         0.1308
     12 C10         3.3328   -0.9438   -4.9607 C.2       1 <0>        -0.3055
     13 C11         4.0858   -1.2858   -6.0373 C.2       1 <0>         0.3755
     14 N1          4.7955   -2.3970   -5.7063 N.pl3     1 <0>        -0.4880
     15 H1          5.4199   -2.8666   -6.2811 H         1 <0>         0.4434
     16 N2          4.4675   -2.7446   -4.3901 N.2       1 <0>        -0.2659
     17 N3          4.1239   -0.6194   -7.2594 N.pl3     1 <0>        -0.6554
     18 C12         4.8518   -1.1551   -8.3248 C.ar      1 <0>         0.1980
     19 C13         4.9430   -2.5328   -8.4827 C.ar      1 <0>        -0.1958
     20 C14         5.6626   -3.0602   -9.5366 C.ar      1 <0>        -0.0481
     21 C15         6.2933   -2.2197  -10.4353 C.ar      1 <0>        -0.1801
     22 C16         6.2052   -0.8460  -10.2819 C.ar      1 <0>         0.1402
     23 C17         5.4809   -0.3118   -9.2312 C.ar      1 <0>        -0.1933
     24 F1          6.8226   -0.0273  -11.1616 F         1 <0>        -0.1319
     25 C18         2.3257    0.0459   -4.4300 C.3       1 <0>         0.0158
     26 H2          0.1893    2.0210   -0.4870 H         1 <0>         0.0572
     27 H3         -1.1328    0.9893   -1.0835 H         1 <0>         0.0572
     28 H4         -1.1174    1.5233    0.6144 H         1 <0>         0.1025
     29 H5          0.5923    1.0200   -2.2751 H         1 <0>         0.1425
     30 H6          3.2595   -3.0123   -1.2723 H         1 <0>         0.1407
     31 H7          2.2797   -4.1229    0.1950 H         1 <0>         0.0564
     32 H8          3.6019   -3.0912    0.7915 H         1 <0>         0.0565
     33 H9          2.3827   -3.7200    1.9257 H         1 <0>         0.1025
     34 H10         3.6450    0.2167   -7.3711 H         1 <0>         0.4302
     35 H11         4.4515   -3.1906   -7.7812 H         1 <0>         0.1322
     36 H12         5.7332   -4.1310   -9.6589 H         1 <0>         0.1413
     37 H13         6.8560   -2.6351  -11.2582 H         1 <0>         0.1408
     38 H14         5.4082    0.7593   -9.1138 H         1 <0>         0.1425
     39 H15         1.4198    0.0201   -5.0355 H         1 <0>         0.0899
     40 H16         2.7500    1.0499   -4.4317 H         1 <0>         0.0894
@<TRIPOS>BOND
     1    1    2 1
     2    1   26 1
     3    1   27 1
     4    1   28 1
     5    2    3 1
     6    3    8 ar
     7    3    4 ar
     8    4    5 ar
     9    4   29 1
    10    5   25 1
    11    5    6 ar
    12    6    7 ar
    13    6   11 1
    14    7    8 ar
    15    7   30 1
    16    8    9 1
    17    9   10 1
    18   10   31 1
    19   10   32 1
    20   10   33 1
    21   11   16 2
    22   11   12 1
    23   12   13 2
    24   12   25 1
    25   13   14 1
    26   13   17 1
    27   14   15 1
    28   14   16 1
    29   17   18 1
    30   17   34 1
    31   18   23 ar
    32   18   19 ar
    33   19   20 ar
    34   19   35 1
    35   20   21 ar
    36   20   36 1
    37   21   22 ar
    38   21   37 1
    39   22   23 ar
    40   22   24 1
    41   23   38 1
    42   25   39 1
    43   25   40 1
@<TRIPOS>MOLECULE
ZINC20148983
   39    42     0     0     0
SMALL
USER_CHARGES
1-isopropyl-3-(6-quinolyl)pyrazolo[4,5-e]pyrimidin-4-amine
@<TRIPOS>ATOM
      1 C1          1.0254    8.7978   -2.0248 C.3       1 <0>        -0.1621
      2 C2          1.2018    8.9153   -0.5095 C.3       1 <0>         0.1606
      3 C3         -0.1710    9.0289    0.1564 C.3       1 <0>        -0.1621
      4 N1          1.8926    7.7262   -0.0046 N.pl3     1 <0>        -0.3691
      5 C4          3.0880    7.7288    0.6508 C.ar      1 <0>         0.3756
      6 C5          3.3891    6.3885    0.9574 C.ar      1 <0>        -0.3235
      7 C6          2.2832    5.5859    0.4354 C.2       1 <0>         0.1611
      8 N2          1.4309    6.4112   -0.1252 N.2       1 <0>        -0.2249
      9 C7          2.1525    4.1119    0.5188 C.ar      1 <0>        -0.0128
     10 C8          1.7465    3.3824   -0.6110 C.ar      1 <0>        -0.0754
     11 C9          1.6190    2.0318   -0.5611 C.ar      1 <0>        -0.0829
     12 C10         1.8956    1.3409    0.6333 C.ar      1 <0>         0.1347
     13 C11         2.3061    2.0687    1.7786 C.ar      1 <0>        -0.1018
     14 C12         2.4317    3.4637    1.7084 C.ar      1 <0>        -0.0831
     15 C13         2.5804    1.3697    2.9700 C.ar      1 <0>        -0.0542
     16 C14         2.4374    0.0111    2.9678 C.ar      1 <0>        -0.1718
     17 C15         2.0303   -0.6425    1.8073 C.ar      1 <0>         0.1391
     18 N3          1.7757    0.0115    0.6997 N.ar      1 <0>        -0.4734
     19 C16         4.5832    6.1084    1.6415 C.ar      1 <0>         0.5181
     20 N4          5.3762    7.1241    1.9688 N.ar      1 <0>        -0.6038
     21 C17         5.0541    8.3678    1.6609 C.ar      1 <0>         0.3865
     22 N5          3.9473    8.6775    1.0220 N.ar      1 <0>        -0.5731
     23 N6          4.9255    4.8098    1.9657 N.pl3     1 <0>        -0.8303
     24 H1          2.0034    8.7169   -2.4992 H         1 <0>         0.0603
     25 H2          0.4358    7.9102   -2.2542 H         1 <0>         0.0702
     26 H3          0.5114    9.6825   -2.4004 H         1 <0>         0.0791
     27 H4          1.7914    9.8029   -0.2801 H         1 <0>         0.1120
     28 H5         -0.0453    9.1126    1.2359 H         1 <0>         0.0600
     29 H6         -0.6850    9.9136   -0.2192 H         1 <0>         0.0791
     30 H7         -0.7606    8.1413   -0.0730 H         1 <0>         0.0701
     31 H8          1.5326    3.9036   -1.5325 H         1 <0>         0.1376
     32 H9          1.3057    1.4868   -1.4393 H         1 <0>         0.1440
     33 H10         2.7434    4.0269    2.5755 H         1 <0>         0.1398
     34 H11         2.8910    1.8936    3.8619 H         1 <0>         0.1419
     35 H12         2.6394   -0.5553    3.8649 H         1 <0>         0.1418
     36 H13         1.9210   -1.7169    1.8201 H         1 <0>         0.1629
     37 H14         5.7273    9.1628    1.9460 H         1 <0>         0.2058
     38 H15         4.4796    4.0672    1.5292 H         1 <0>         0.4125
     39 H16         5.6119    4.6406    2.6300 H         1 <0>         0.4110
@<TRIPOS>BOND
     1    1    2 1
     2    1   24 1
     3    1   25 1
     4    1   26 1
     5    2    3 1
     6    2    4 1
     7    2   27 1
     8    3   28 1
     9    3   29 1
    10    3   30 1
    11    4    8 1
    12    4    5 1
    13    5   22 ar
    14    5    6 ar
    15    6    7 1
    16    6   19 ar
    17    7    8 2
    18    7    9 1
    19    9   14 ar
    20    9   10 ar
    21   10   11 ar
    22   10   31 1
    23   11   12 ar
    24   11   32 1
    25   12   18 ar
    26   12   13 ar
    27   13   14 ar
    28   13   15 ar
    29   14   33 1
    30   15   16 ar
    31   15   34 1
    32   16   17 ar
    33   16   35 1
    34   17   18 ar
    35   17   36 1
    36   19   20 ar
    37   19   23 1
    38   20   21 ar
    39   21   22 ar
    40   21   37 1
    41   23   38 1
    42   23   39 1
@<TRIPOS>MOLECULE
ZINC08581906
   35    37     0     0     0
SMALL
USER_CHARGES

@<TRIPOS>ATOM
      1 C1          0.4062    0.7134    0.7743 C.3       1 <0>        -0.1622
      2 C2          0.2062   -0.7227    0.2861 C.3       1 <0>         0.1603
      3 C3          0.8807   -1.6910    1.2599 C.3       1 <0>        -0.1622
      4 N1         -1.2267   -1.0197    0.2161 N.pl3     1 <0>        -0.3682
      5 C4         -1.9008   -1.3860   -0.9107 C.ar      1 <0>         0.3764
      6 C5         -3.2452   -1.5750   -0.5394 C.ar      1 <0>        -0.3225
      7 C6         -3.3224   -1.2938    0.8939 C.2       1 <0>         0.1576
      8 N2         -2.1144   -0.9772    1.2964 N.2       1 <0>        -0.2230
      9 C7         -4.5398   -1.3596    1.7373 C.ar      1 <0>         0.0119
     10 C8         -5.4110   -2.4425    1.6242 C.ar      1 <0>        -0.1154
     11 C9         -6.5434   -2.5019    2.4107 C.ar      1 <0>        -0.0699
     12 C10        -6.8177   -1.4892    3.3123 C.ar      1 <0>        -0.1122
     13 C11        -5.9551   -0.4073    3.4309 C.ar      1 <0>         0.1435
     14 C12        -4.8137   -0.3425    2.6492 C.ar      1 <0>        -0.1062
     15 O1         -6.2283    0.5856    4.3181 O.3       1 <0>        -0.4823
     16 Br1        -8.3720   -1.5780    4.3858 Br        1 <0>        -0.0262
     17 C13        -4.1663   -1.9613   -1.5268 C.ar      1 <0>         0.5186
     18 N3         -3.7252   -2.1311   -2.7695 N.ar      1 <0>        -0.6031
     19 C14        -2.4536   -1.9426   -3.0738 C.ar      1 <0>         0.3877
     20 N4         -1.5560   -1.5814   -2.1832 N.ar      1 <0>        -0.5731
     21 N5         -5.4973   -2.1603   -1.2145 N.pl3     1 <0>        -0.8288
     22 H1          1.4723    0.9344    0.8264 H         1 <0>         0.0796
     23 H2         -0.0744    1.4033    0.0805 H         1 <0>         0.0606
     24 H3         -0.0369    0.8258    1.7638 H         1 <0>         0.0698
     25 H4          0.6493   -0.8351   -0.7034 H         1 <0>         0.1127
     26 H5          0.4376   -1.5786    2.2494 H         1 <0>         0.0699
     27 H6          0.7383   -2.7142    0.9121 H         1 <0>         0.0604
     28 H7          1.9468   -1.4701    1.3120 H         1 <0>         0.0794
     29 H8         -5.1997   -3.2345    0.9210 H         1 <0>         0.1438
     30 H9         -7.2175   -3.3410    2.3219 H         1 <0>         0.1472
     31 H10        -4.1397    0.4960    2.7436 H         1 <0>         0.1455
     32 H11        -5.8524    0.4419    5.1973 H         1 <0>         0.3991
     33 H12        -2.1380   -2.0919   -4.0958 H         1 <0>         0.2063
     34 H13        -5.8559   -1.8196   -0.3801 H         1 <0>         0.4127
     35 H14        -6.0732   -2.6406   -1.8297 H         1 <0>         0.4121
@<TRIPOS>BOND
     1    1    2 1
     2    1   22 1
     3    1   23 1
     4    1   24 1
     5    2    3 1
     6    2    4 1
     7    2   25 1
     8    3   26 1
     9    3   27 1
    10    3   28 1
    11    4    8 1
    12    4    5 1
    13    5   20 ar
    14    5    6 ar
    15    6    7 1
    16    6   17 ar
    17    7    8 2
    18    7    9 1
    19    9   14 ar
    20    9   10 ar
    21   10   11 ar
    22   10   29 1
    23   11   12 ar
    24   11   30 1
    25   12   13 ar
    26   12   16 1
    27   13   14 ar
    28   13   15 1
    29   14   31 1
    30   15   32 1
    31   17   18 ar
    32   17   21 1
    33   18   19 ar
    34   19   20 ar
    35   19   33 1
    36   21   34 1
    37   21   35 1
@<TRIPOS>MOLECULE
ZINC36056301
   39    42     0     0     0
SMALL
USER_CHARGES

@<TRIPOS>ATOM
      1 C1          0.9254    1.9991    0.1115 C.3       1 <0>        -0.1625
      2 C2          0.5644    0.5164    0.0017 C.3       1 <0>         0.1602
      3 C3         -0.9547    0.3678   -0.1037 C.3       1 <0>        -0.1630
      4 N1          1.1948   -0.0526   -1.1921 N.pl3     1 <0>        -0.3660
      5 C4          2.0845   -1.0857   -1.1960 C.ar      1 <0>         0.3791
      6 C5          2.4399   -1.3150   -2.5382 C.ar      1 <0>        -0.3289
      7 C6          1.6949   -0.3401   -3.3365 C.2       1 <0>         0.1761
      8 N2          0.9724    0.3761   -2.5050 N.2       1 <0>        -0.2098
      9 C7          1.7418   -0.1929   -4.8056 C.2       1 <0>         0.1339
     10 C8          0.6708    0.0518   -5.6025 C.2       1 <0>        -0.1346
     11 C9          1.1678    0.1218   -6.9754 C.ar      1 <0>        -0.0943
     12 C10         0.5575    0.3431   -8.2141 C.ar      1 <0>        -0.0897
     13 C11         1.3249    0.3481   -9.3611 C.ar      1 <0>         0.0805
     14 C12         2.6992    0.1341   -9.2873 C.ar      1 <0>        -0.1109
     15 C13         3.3112   -0.0854   -8.0732 C.ar      1 <0>        -0.1139
     16 C14         2.5568   -0.0941   -6.9049 C.ar      1 <0>         0.1038
     17 N3          2.8789   -0.2768   -5.5757 N.pl3     1 <0>        -0.5932
     18 H1          3.7722   -0.4418   -5.2356 H         1 <0>         0.4168
     19 O1          0.7369    0.5623  -10.5684 O.3       1 <0>        -0.4967
     20 C15         3.3555   -2.3402   -2.8244 C.ar      1 <0>         0.5168
     21 N4          3.8460   -3.0492   -1.8121 N.ar      1 <0>        -0.6021
     22 C16         3.4845   -2.7997   -0.5663 C.ar      1 <0>         0.3889
     23 N5          2.6311   -1.8502   -0.2510 N.ar      1 <0>        -0.5714
     24 N6          3.7369   -2.6060   -4.1255 N.pl3     1 <0>        -0.8317
     25 H2          2.0076    2.1050    0.1866 H         1 <0>         0.0602
     26 H3          0.5693    2.5263   -0.7736 H         1 <0>         0.0709
     27 H4          0.4564    2.4224    0.9997 H         1 <0>         0.0802
     28 H5          0.9205   -0.0108    0.8868 H         1 <0>         0.1134
     29 H6         -1.3108    0.8949   -0.9888 H         1 <0>         0.0712
     30 H7         -1.2119   -0.6886   -0.1820 H         1 <0>         0.0610
     31 H8         -1.4237    0.7911    0.7845 H         1 <0>         0.0801
     32 H9         -0.3538    0.1719   -5.2829 H         1 <0>         0.1573
     33 H10        -0.5081    0.5089   -8.2728 H         1 <0>         0.1338
     34 H11         3.2906    0.1399  -10.1910 H         1 <0>         0.1358
     35 H12         4.3776   -0.2505   -8.0283 H         1 <0>         0.1290
     36 H13         0.6969    1.4933  -10.8268 H         1 <0>         0.3892
     37 H14         3.9074   -3.3999    0.2258 H         1 <0>         0.2077
     38 H15         3.2729   -2.1806   -4.8634 H         1 <0>         0.4091
     39 H16         4.4688   -3.2179   -4.3009 H         1 <0>         0.4134
@<TRIPOS>BOND
     1    1    2 1
     2    1   25 1
     3    1   26 1
     4    1   27 1
     5    2    3 1
     6    2    4 1
     7    2   28 1
     8    3   29 1
     9    3   30 1
    10    3   31 1
    11    4    8 1
    12    4    5 1
    13    5   23 ar
    14    5    6 ar
    15    6    7 1
    16    6   20 ar
    17    7    8 2
    18    7    9 1
    19    9   17 1
    20    9   10 2
    21   10   11 1
    22   10   32 1
    23   11   16 ar
    24   11   12 ar
    25   12   13 ar
    26   12   33 1
    27   13   14 ar
    28   13   19 1
    29   14   15 ar
    30   14   34 1
    31   15   16 ar
    32   15   35 1
    33   16   17 1
    34   17   18 1
    35   19   36 1
    36   20   21 ar
    37   20   24 1
    38   21   22 ar
    39   22   23 ar
    40   22   37 1
    41   24   38 1
    42   24   39 1
@<TRIPOS>MOLECULE
ZINC36056301
   40    43     0     0     0
SMALL
NO_CHARGES

@<TRIPOS>ATOM
      1 C1          0.4668   -0.4939    1.1218 C.3       1 <0>        -0.1699
      2 C2          0.3340   -1.7615    0.2754 C.3       1 <0>         0.1613
      3 C3          1.1061   -2.9024    0.9410 C.3       1 <0>        -0.1701
      4 N1         -1.0799   -2.1284    0.1641 N.pl3     1 <0>        -0.3634
      5 C4         -1.7908   -2.2350   -1.0057 C.ar      1 <0>         0.4043
      6 C5         -3.1109   -2.6092   -0.6652 C.ar      1 <0>        -0.2157
      7 C6         -4.0447   -2.7836   -1.7054 C.ar      1 <0>         0.3985
      8 N2         -3.6387   -2.5876   -2.9589 N.ar      1 <0>        -0.5485
      9 C7         -2.3961   -2.2391   -3.2258 C.ar      1 <0>         0.3110
     10 N3         -1.4867   -2.0641   -2.2858 N.ar      1 <0>        -0.5580
     11 N4         -5.3440   -3.1479   -1.4334 N.pl3     1 <0>        -0.8571
     12 C8         -3.1685   -2.7231    0.7407 C.2       1 <0>         0.1060
     13 C9         -4.3454   -3.0906    1.5281 C.2       1 <0>         0.1145
     14 C10        -4.5167   -2.8192    2.8889 C.2       1 <0>        -0.1932
     15 C11        -5.7650   -3.3339    3.2429 C.ar      1 <0>        -0.0803
     16 C12        -6.5191   -3.3917    4.4278 C.ar      1 <0>        -0.1106
     17 C13        -7.7442   -3.9909    4.4147 C.ar      1 <0>         0.0839
     18 C14        -8.2689   -4.5512    3.2463 C.ar      1 <0>        -0.1283
     19 C15        -7.5862   -4.5260    2.0714 C.ar      1 <0>        -0.1066
     20 C16        -6.3164   -3.9222    2.0150 C.ar      1 <0>         0.0610
     21 N5         -5.4208   -3.7321    1.0501 N.pl3     1 <0>        -0.5313
     22 O1         -8.4709   -4.0448    5.5631 O.3       1 <0>        -0.5017
     23 N6         -1.9318   -2.4352    1.2329 N.pl3     1 <0>        -0.4440
     24 H1          1.5188   -0.2209    1.2046 H         1 <0>         0.0835
     25 H2         -0.0832    0.3190    0.6476 H         1 <0>         0.0676
     26 H3          0.0595   -0.6766    2.1162 H         1 <0>         0.0606
     27 H4          0.7413   -1.5787   -0.7190 H         1 <0>         0.1243
     28 H5          1.0115   -3.8055    0.3380 H         1 <0>         0.0673
     29 H6          2.1581   -2.6294    1.0238 H         1 <0>         0.0835
     30 H7          0.6988   -3.0851    1.9354 H         1 <0>         0.0606
     31 H8         -2.1102   -2.0906   -4.2566 H         1 <0>         0.1998
     32 H9         -5.8197   -2.7336   -0.6966 H         1 <0>         0.4069
     33 H10        -5.7838   -3.8189   -1.9786 H         1 <0>         0.4071
     34 H11        -3.8197   -2.3112    3.5389 H         1 <0>         0.1445
     35 H12        -6.1313   -2.9654    5.3413 H         1 <0>         0.1279
     36 H13        -9.2428   -5.0169    3.2782 H         1 <0>         0.1286
     37 H14        -8.0164   -4.9676    1.1847 H         1 <0>         0.1247
     38 H15        -9.0572   -3.2870    5.6936 H         1 <0>         0.3860
     39 H16        -1.6823   -2.4395    2.1702 H         1 <0>         0.4490
     40 H17        -5.5296   -4.0197    0.1301 H         1 <0>         0.4163
@<TRIPOS>BOND
     1    1    2 1
     2    1   24 1
     3    1   25 1
     4    1   26 1
     5    2    3 1
     6    2    4 1
     7    2   27 1
     8    3   28 1
     9    3   29 1
    10    3   30 1
    11    4   23 1
    12    4    5 1
    13    5   10 ar
    14    5    6 ar
    15    6    7 ar
    16    6   12 1
    17    7    8 ar
    18    7   11 1
    19    8    9 ar
    20    9   10 ar
    21    9   31 1
    22   11   32 1
    23   11   33 1
    24   12   13 2
    25   12   23 1
    26   13   21 1
    27   13   14 1
    28   14   15 2
    29   14   34 1
    30   15   20 ar
    31   15   16 ar
    32   16   17 ar
    33   16   35 1
    34   17   18 ar
    35   17   22 1
    36   18   19 ar
    37   18   36 1
    38   19   20 ar
    39   19   37 1
    40   20   21 2
    41   21   40 1
    42   22   38 1
    43   23   39 1
@<TRIPOS>MOLECULE
ZINC43465534
   35    37     0     0     0
SMALL
USER_CHARGES

@<TRIPOS>ATOM
      1 C1          0.4068    0.7074    0.7781 C.3       1 <0>        -0.1627
      2 C2          0.2063   -0.7277    0.2871 C.3       1 <0>         0.1599
      3 C3          0.8804   -1.6981    1.2590 C.3       1 <0>        -0.1628
      4 N1         -1.2267   -1.0239    0.2164 N.pl3     1 <0>        -0.3665
      5 C4         -1.9011   -1.3879   -0.9114 C.ar      1 <0>         0.3770
      6 C5         -3.2456   -1.5763   -0.5412 C.ar      1 <0>        -0.3202
      7 C6         -3.3233   -1.2974    0.8930 C.2       1 <0>         0.1500
      8 N2         -2.1144   -0.9832    1.2968 N.2       1 <0>        -0.2166
      9 C7         -4.5400   -1.3639    1.7350 C.ar      1 <0>         0.0405
     10 C8         -5.4108   -2.4492    1.6175 C.ar      1 <0>        -0.1236
     11 C9         -6.5343   -2.5157    2.3909 C.ar      1 <0>        -0.0350
     12 C10        -6.8185   -1.4966    3.3050 C.ar      1 <0>        -0.0471
     13 C11        -5.9488   -0.4059    3.4275 C.ar      1 <0>         0.1574
     14 C12        -4.8115   -0.3452    2.6483 C.ar      1 <0>        -0.1216
     15 F1         -6.2198    0.5812    4.3092 F         1 <0>        -0.1185
     16 C13        -7.9977   -1.5677    4.1144 C.1       1 <0>         0.2436
     17 N3         -8.9331   -1.6242    4.7564 N.1       1 <0>        -0.3868
     18 C14        -4.1666   -1.9604   -1.5294 C.ar      1 <0>         0.5185
     19 N4         -3.7251   -2.1289   -2.7722 N.ar      1 <0>        -0.6017
     20 C15        -2.4531   -1.9410   -3.0755 C.ar      1 <0>         0.3888
     21 N5         -1.5559   -1.5814   -2.1840 N.ar      1 <0>        -0.5722
     22 N6         -5.4979   -2.1588   -1.2179 N.pl3     1 <0>        -0.8291
     23 H1          1.4730    0.9278    0.8306 H         1 <0>         0.0799
     24 H2         -0.0734    1.3988    0.0856 H         1 <0>         0.0609
     25 H3         -0.0363    0.8181    1.7678 H         1 <0>         0.0705
     26 H4          0.6494   -0.8384   -0.7026 H         1 <0>         0.1133
     27 H5          0.4373   -1.5875    2.2488 H         1 <0>         0.0706
     28 H6          0.7375   -2.7206    0.9093 H         1 <0>         0.0608
     29 H7          1.9466   -1.4777    1.3116 H         1 <0>         0.0797
     30 H8         -5.1952   -3.2384    0.9125 H         1 <0>         0.1508
     31 H9         -7.2048   -3.3571    2.2960 H         1 <0>         0.1545
     32 H10        -4.1355    0.4918    2.7420 H         1 <0>         0.1555
     33 H11        -2.1372   -2.0892   -4.0976 H         1 <0>         0.2066
     34 H12        -5.8568   -1.8178   -0.3838 H         1 <0>         0.4121
     35 H13        -6.0736   -2.6390   -1.8334 H         1 <0>         0.4130
@<TRIPOS>BOND
     1    1    2 1
     2    1   23 1
     3    1   24 1
     4    1   25 1
     5    2    3 1
     6    2    4 1
     7    2   26 1
     8    3   27 1
     9    3   28 1
    10    3   29 1
    11    4    8 1
    12    4    5 1
    13    5   21 ar
    14    5    6 ar
    15    6    7 1
    16    6   18 ar
    17    7    8 2
    18    7    9 1
    19    9   14 ar
    20    9   10 ar
    21   10   11 ar
    22   10   30 1
    23   11   12 ar
    24   11   31 1
    25   12   13 ar
    26   12   16 1
    27   13   14 ar
    28   13   15 1
    29   14   32 1
    30   16   17 3
    31   18   19 ar
    32   18   22 1
    33   19   20 ar
    34   20   21 ar
    35   20   33 1
    36   22   34 1
    37   22   35 1
@<TRIPOS>MOLECULE
ZINC64521265
   46    49     0     0     0
SMALL
USER_CHARGES

@<TRIPOS>ATOM
      1 C1          0.3476   -2.5642    0.7938 C.3       1 <0>        -0.1628
      2 C2         -0.3724   -2.4367   -0.5502 C.3       1 <0>         0.1606
      3 C3         -0.6891   -3.8315   -1.0934 C.3       1 <0>        -0.1622
      4 N1         -1.6190   -1.6892   -0.3674 N.pl3     1 <0>        -0.3682
      5 C4         -1.9328   -0.5173   -0.9891 C.ar      1 <0>         0.3758
      6 C5         -3.2117   -0.1436   -0.5353 C.ar      1 <0>        -0.3225
      7 C6         -3.6371   -1.1809    0.4040 C.2       1 <0>         0.1593
      8 N2         -2.6746   -2.0702    0.4677 N.2       1 <0>        -0.2224
      9 C7         -4.9218   -1.2229    1.1432 C.ar      1 <0>        -0.0245
     10 C8         -6.1183   -0.9455    0.4812 C.ar      1 <0>        -0.0801
     11 C9         -7.3162   -0.9844    1.1672 C.ar      1 <0>        -0.1161
     12 C10        -7.3388   -1.2973    2.5117 C.ar      1 <0>        -0.0731
     13 C11        -6.1481   -1.5766    3.1861 C.ar      1 <0>        -0.1285
     14 C12        -4.9368   -1.5447    2.4966 C.ar      1 <0>        -0.0211
     15 C13        -6.1728   -1.9106    4.6256 C.2       1 <0>         0.5570
     16 O1         -5.1357   -2.1534    5.2109 O.2       1 <0>        -0.4587
     17 N3         -7.3453   -1.9460    5.2893 N.am      1 <0>        -0.6240
     18 C14        -7.3683   -2.2582    6.6345 C.2       1 <0>         0.4093
     19 N4         -6.3504   -2.5344    7.3965 N.2       1 <0>        -0.5323
     20 C15        -6.5264   -2.8706    8.7976 C.3       1 <0>         0.0491
     21 C16        -7.9176   -2.4104    9.3123 C.3       1 <0>        -0.0885
     22 S1         -8.8003   -2.3601    7.6961 S.3       1 <0>        -0.2223
     23 C17        -3.7785    1.0433   -1.0279 C.ar      1 <0>         0.5179
     24 N5         -3.0796    1.7609   -1.9021 N.ar      1 <0>        -0.6035
     25 C18        -1.8816    1.3723   -2.3010 C.ar      1 <0>         0.3866
     26 N6         -1.3117    0.2693   -1.8675 N.ar      1 <0>        -0.5726
     27 N7         -5.0310    1.4545   -0.6148 N.pl3     1 <0>        -0.8297
     28 H1          1.2751   -3.1204    0.6578 H         1 <0>         0.0793
     29 H2          0.5732   -1.5705    1.1808 H         1 <0>         0.0605
     30 H3         -0.2926   -3.0925    1.5003 H         1 <0>         0.0708
     31 H4          0.2678   -1.9084   -1.2566 H         1 <0>         0.1123
     32 H5         -1.2020   -3.7407   -2.0509 H         1 <0>         0.0601
     33 H6          0.2384   -4.3877   -1.2294 H         1 <0>         0.0792
     34 H7         -1.3293   -4.3598   -0.3870 H         1 <0>         0.0703
     35 H8         -6.1075   -0.6993   -0.5703 H         1 <0>         0.1397
     36 H9         -8.2394   -0.7687    0.6498 H         1 <0>         0.1436
     37 H10        -8.2787   -1.3258    3.0429 H         1 <0>         0.1334
     38 H11        -4.0135   -1.7645    3.0120 H         1 <0>         0.1460
     39 H12        -8.1730   -1.7523    4.8221 H         1 <0>         0.4258
     40 H13        -6.4387   -3.9501    8.9203 H         1 <0>         0.1010
     41 H14        -5.7483   -2.3813    9.3834 H         1 <0>         0.1095
     42 H15        -8.3569   -3.1421    9.9903 H         1 <0>         0.1289
     43 H16        -7.8696   -1.4222    9.7696 H         1 <0>         0.1075
     44 H17        -1.3485    1.9855   -3.0124 H         1 <0>         0.2059
     45 H18        -5.4326    1.0649    0.1775 H         1 <0>         0.4118
     46 H19        -5.5089    2.1329   -1.1171 H         1 <0>         0.4117
@<TRIPOS>BOND
     1    1    2 1
     2    1   28 1
     3    1   29 1
     4    1   30 1
     5    2    3 1
     6    2    4 1
     7    2   31 1
     8    3   32 1
     9    3   33 1
    10    3   34 1
    11    4    8 1
    12    4    5 1
    13    5   26 ar
    14    5    6 ar
    15    6    7 1
    16    6   23 ar
    17    7    8 2
    18    7    9 1
    19    9   14 ar
    20    9   10 ar
    21   10   11 ar
    22   10   35 1
    23   11   12 ar
    24   11   36 1
    25   12   13 ar
    26   12   37 1
    27   13   14 ar
    28   13   15 1
    29   14   38 1
    30   15   16 2
    31   15   17 am
    32   17   18 1
    33   17   39 1
    34   18   22 1
    35   18   19 2
    36   19   20 1
    37   20   21 1
    38   20   40 1
    39   20   41 1
    40   21   22 1
    41   21   42 1
    42   21   43 1
    43   23   24 ar
    44   23   27 1
    45   24   25 ar
    46   25   26 ar
    47   25   44 1
    48   27   45 1
    49   27   46 1
@<TRIPOS>MOLECULE
ZINC36056300
   40    43     0     0     0
SMALL
USER_CHARGES

@<TRIPOS>ATOM
      1 C1          0.4126    0.6880    0.7885 C.3       1 <0>        -0.1627
      2 C2          0.2093   -0.7440    0.2895 C.3       1 <0>         0.1569
      3 C3          0.8826   -1.7211    1.2552 C.3       1 <0>        -0.1634
      4 N1         -1.2243   -1.0374    0.2184 N.pl3     1 <0>        -0.3592
      5 C4         -1.9000   -1.3937   -0.9107 C.ar      1 <0>         0.3794
      6 C5         -3.2446   -1.5828   -0.5400 C.ar      1 <0>        -0.3179
      7 C6         -3.3202   -1.3125    0.8956 C.2       1 <0>         0.1232
      8 N2         -2.1110   -1.0014    1.2998 N.2       1 <0>        -0.2051
      9 C7         -4.5366   -1.3827    1.7391 C.ar      1 <0>         0.1178
     10 C8         -5.4061   -2.4812    1.6050 C.ar      1 <0>        -0.1519
     11 C9         -6.5306   -2.5915    2.3528 C.ar      1 <0>         0.0142
     12 C10        -6.8501   -1.5908    3.2916 C.ar      1 <0>        -0.2346
     13 C11        -5.9500   -0.4370    3.4429 C.ar      1 <0>         0.2401
     14 C12        -4.7906   -0.3737    2.6433 C.ar      1 <0>        -0.1296
     15 N3         -6.4749    0.3393    4.3746 N.pl3     1 <0>        -0.4206
     16 H1         -8.2337    0.1398    5.5248 H         1 <0>         0.4708
     17 N4         -7.6615   -0.2385    4.8390 N.pl3     1 <0>        -0.4328
     18 C13        -7.8916   -1.3947    4.1942 C.2       1 <0>         0.5311
     19 N5         -8.9722   -2.2404    4.3922 N.pl3     1 <0>        -0.7811
     20 C14        -4.1671   -1.9596   -1.5297 C.ar      1 <0>         0.5166
     21 N6         -3.7272   -2.1207   -2.7740 N.ar      1 <0>        -0.5953
     22 C15        -2.4554   -1.9324   -3.0777 C.ar      1 <0>         0.3950
     23 N7         -1.5565   -1.5799   -2.1849 N.ar      1 <0>        -0.5665
     24 N8         -5.4983   -2.1583   -1.2179 N.pl3     1 <0>        -0.8311
     25 H2          1.4792    0.9063    0.8414 H         1 <0>         0.0837
     26 H3         -0.0671    1.3841    0.1005 H         1 <0>         0.0618
     27 H4         -0.0295    0.7936    1.7793 H         1 <0>         0.0688
     28 H5          0.6513   -0.8497   -0.7013 H         1 <0>         0.1176
     29 H6          0.7377   -2.7413    0.8997 H         1 <0>         0.0624
     30 H7          1.9492   -1.5028    1.3081 H         1 <0>         0.0836
     31 H8          0.4405   -1.6155    2.2459 H         1 <0>         0.0694
     32 H9         -5.1717   -3.2546    0.8885 H         1 <0>         0.1568
     33 H10        -7.1810   -3.4447    2.2292 H         1 <0>         0.1566
     34 H11        -4.1097    0.4595    2.7357 H         1 <0>         0.1611
     35 H12        -9.0501   -3.0570    3.8746 H         1 <0>         0.4467
     36 H13        -9.6503   -2.0154    5.0483 H         1 <0>         0.4297
     37 H14        -2.1408   -2.0745   -4.1010 H         1 <0>         0.2111
     38 H15        -5.8569   -1.8183   -0.3832 H         1 <0>         0.4073
     39 H16        -6.0742   -2.6377   -1.8338 H         1 <0>         0.4151
     40 H17        -6.0974    1.1764    4.6871 H         1 <0>         0.4749
@<TRIPOS>BOND
     1    1    2 1
     2    1   25 1
     3    1   26 1
     4    1   27 1
     5    2    3 1
     6    2    4 1
     7    2   28 1
     8    3   29 1
     9    3   30 1
    10    3   31 1
    11    4    8 1
    12    4    5 1
    13    5   23 ar
    14    5    6 ar
    15    6    7 1
    16    6   20 ar
    17    7    8 2
    18    7    9 1
    19    9   14 ar
    20    9   10 ar
    21   10   11 ar
    22   10   32 1
    23   11   12 ar
    24   11   33 1
    25   12   13 ar
    26   12   18 2
    27   13   14 ar
    28   13   15 2
    29   14   34 1
    30   15   17 1
    31   15   40 1
    32   16   17 1
    33   17   18 1
    34   18   19 1
    35   19   35 1
    36   19   36 1
    37   20   21 ar
    38   20   24 1
    39   21   22 ar
    40   22   23 ar
    41   22   37 1
    42   24   38 1
    43   24   39 1
@<TRIPOS>MOLECULE
ZINC36056300
   39    42     0     0     0
SMALL
USER_CHARGES

@<TRIPOS>ATOM
      1 C1          0.4081    0.7032    0.7800 C.3       1 <0>        -0.1618
      2 C2          0.2069   -0.7312    0.2873 C.3       1 <0>         0.1609
      3 C3          0.8807   -1.7032    1.2580 C.3       1 <0>        -0.1621
      4 N1         -1.2263   -1.0267    0.2166 N.pl3     1 <0>        -0.3701
      5 C4         -1.9009   -1.3889   -0.9113 C.ar      1 <0>         0.3750
      6 C5         -3.2455   -1.5776   -0.5407 C.ar      1 <0>        -0.3215
      7 C6         -3.3224   -1.3007    0.8936 C.2       1 <0>         0.1630
      8 N2         -2.1138   -0.9869    1.2972 N.2       1 <0>        -0.2264
      9 C7         -4.5394   -1.3682    1.7366 C.ar      1 <0>         0.0337
     10 C8         -5.4112   -2.4583    1.6155 C.ar      1 <0>        -0.1607
     11 C9         -6.5335   -2.5344    2.3833 C.ar      1 <0>        -0.0251
     12 C10        -6.8222   -1.5187    3.3018 C.ar      1 <0>        -0.1880
     13 C11        -5.9521   -0.4186    3.4315 C.ar      1 <0>         0.1561
     14 C12        -4.8063   -0.3538    2.6457 C.ar      1 <0>        -0.1126
     15 N3         -6.4874    0.3998    4.3930 N.pl3     1 <0>        -0.5024
     16 N4         -7.6751   -0.1655    4.8679 N.2       1 <0>        -0.3148
     17 C13        -7.9109   -1.2946    4.2539 C.2       1 <0>         0.3617
     18 N5         -9.0056   -2.1367    4.4680 N.pl3     1 <0>        -0.8327
     19 C14        -4.1668   -1.9602   -1.5291 C.ar      1 <0>         0.5189
     20 N6         -3.7258   -2.1271   -2.7723 N.ar      1 <0>        -0.6051
     21 C15        -2.4540   -1.9390   -3.0760 C.ar      1 <0>         0.3863
     22 N7         -1.5563   -1.5804   -2.1845 N.ar      1 <0>        -0.5746
     23 N8         -5.4980   -2.1588   -1.2175 N.pl3     1 <0>        -0.8276
     24 H1          1.4744    0.9231    0.8327 H         1 <0>         0.0786
     25 H2         -0.0719    1.3956    0.0885 H         1 <0>         0.0601
     26 H3         -0.0347    0.8128    1.7700 H         1 <0>         0.0697
     27 H4          0.6497   -0.8409   -0.7026 H         1 <0>         0.1118
     28 H5          0.4378   -1.5935    2.2479 H         1 <0>         0.0700
     29 H6          0.7373   -2.7251    0.9069 H         1 <0>         0.0603
     30 H7          1.9470   -1.4833    1.3106 H         1 <0>         0.0785
     31 H8         -5.1917   -3.2441    0.9078 H         1 <0>         0.1359
     32 H9         -7.2005   -3.3779    2.2831 H         1 <0>         0.1334
     33 H10        -4.1302    0.4831    2.7395 H         1 <0>         0.1348
     34 H11        -9.0923   -2.9581    3.9594 H         1 <0>         0.4132
     35 H12        -9.6785   -1.8997    5.1251 H         1 <0>         0.4096
     36 H13        -2.1385   -2.0855   -4.0984 H         1 <0>         0.2050
     37 H14        -5.8568   -1.8182   -0.3831 H         1 <0>         0.4149
     38 H15        -6.0739   -2.6388   -1.8330 H         1 <0>         0.4105
     39 H16        -6.1031    1.2373    4.6959 H         1 <0>         0.4433
@<TRIPOS>BOND
     1    1    2 1
     2    1   24 1
     3    1   25 1
     4    1   26 1
     5    2    3 1
     6    2    4 1
     7    2   27 1
     8    3   28 1
     9    3   29 1
    10    3   30 1
    11    4    8 1
    12    4    5 1
    13    5   22 ar
    14    5    6 ar
    15    6    7 1
    16    6   19 ar
    17    7    8 2
    18    7    9 1
    19    9   14 ar
    20    9   10 ar
    21   10   11 ar
    22   10   31 1
    23   11   12 ar
    24   11   32 1
    25   12   13 ar
    26   12   17 1
    27   13   14 ar
    28   13   15 1
    29   14   33 1
    30   15   16 1
    31   15   39 1
    32   16   17 2
    33   17   18 1
    34   18   34 1
    35   18   35 1
    36   19   20 ar
    37   19   23 1
    38   20   21 ar
    39   21   22 ar
    40   21   36 1
    41   23   37 1
    42   23   38 1
@<TRIPOS>MOLECULE
ZINC64539753
   47    49     0     0     0
SMALL
USER_CHARGES

@<TRIPOS>ATOM
      1 C1          0.0411    1.4484   -0.9047 C.ar      1 <0>        -0.1294
      2 C2          1.2157    2.1433   -0.6898 C.ar      1 <0>        -0.0651
      3 C3          2.4071    1.4537   -0.4670 C.ar      1 <0>        -0.0684
      4 C4          2.4125    0.0624   -0.4614 C.ar      1 <0>        -0.0093
      5 C5          1.2253   -0.6340   -0.6787 C.ar      1 <0>        -0.1413
      6 C6          0.0385    0.0681   -0.9006 C.ar      1 <0>        -0.0672
      7 C7          1.2220   -2.1126   -0.6749 C.2       1 <0>         0.5582
      8 O1          2.2558   -2.7222   -0.4820 O.2       1 <0>        -0.5305
      9 N1          0.0727   -2.7845   -0.8852 N.am      1 <0>        -0.7213
     10 C8          0.0695   -4.2495   -0.8814 C.3       1 <0>         0.1187
     11 C9         -1.3501   -4.7571   -1.1422 C.3       1 <0>         0.0622
     12 O2         -1.7556   -4.3816   -2.4600 O.3       1 <0>        -0.5722
     13 C10         3.6669    2.2024   -0.2370 C.ar      1 <0>         0.2499
     14 C11         3.6550    3.5912   -0.1321 C.ar      1 <0>        -0.2722
     15 C12         4.8664    4.2464    0.0841 C.ar      1 <0>         0.4329
     16 N2          5.9813    3.5264    0.1816 N.ar      1 <0>        -0.5679
     17 C13         5.9508    2.2132    0.0767 C.ar      1 <0>         0.3473
     18 N3          4.8275    1.5557   -0.1220 N.ar      1 <0>        -0.5458
     19 N4          4.9090    5.6278    0.1954 N.pl3     1 <0>        -0.6508
     20 C14         6.1419    6.2851    0.2859 C.ar      1 <0>         0.1436
     21 C15         7.2388    5.8043   -0.4169 C.ar      1 <0>        -0.0763
     22 C16         8.4544    6.4532   -0.3271 C.ar      1 <0>        -0.1003
     23 C17         8.5800    7.5850    0.4649 C.ar      1 <0>         0.0869
     24 C18         7.4848    8.0660    1.1673 C.ar      1 <0>        -0.1678
     25 C19         6.2670    7.4216    1.0741 C.ar      1 <0>        -0.1073
     26 O3          9.7776    8.2232    0.5532 O.3       1 <0>        -0.3095
     27 C20         9.8352    9.3823    1.3869 C.3       1 <0>         0.6037
     28 F1          9.4991    9.0305    2.6986 F         1 <0>        -0.1650
     29 F2         11.1306    9.9102    1.3630 F         1 <0>        -0.1305
     30 F3          8.9321   10.3412    0.9154 F         1 <0>        -0.1655
     31 H1         -0.8796    1.9874   -1.0722 H         1 <0>         0.1372
     32 H2          1.2111    3.2232   -0.6946 H         1 <0>         0.1336
     33 H3          3.3331   -0.4755   -0.2897 H         1 <0>         0.1528
     34 H4         -0.8827   -0.4698   -1.0693 H         1 <0>         0.1299
     35 H5         -0.7522   -2.2981   -1.0391 H         1 <0>         0.4026
     36 H6          0.7357   -4.6164   -1.6623 H         1 <0>         0.0786
     37 H7          0.4123   -4.6111    0.0881 H         1 <0>         0.0857
     38 H8         -1.3700   -5.8431   -1.0515 H         1 <0>         0.0667
     39 H9         -2.0322   -4.3191   -0.4135 H         1 <0>         0.0545
     40 H10        -2.6480   -4.6711   -2.6944 H         1 <0>         0.3844
     41 H11         2.7321    4.1457   -0.2164 H         1 <0>         0.1468
     42 H12         6.8742    1.6594    0.1607 H         1 <0>         0.2025
     43 H13         4.0846    6.1388    0.2106 H         1 <0>         0.4229
     44 H14         7.1412    4.9228   -1.0333 H         1 <0>         0.1466
     45 H15         9.3077    6.0791   -0.8733 H         1 <0>         0.1431
     46 H16         7.5835    8.9473    1.7837 H         1 <0>         0.1370
     47 H17         5.4133    7.7988    1.6174 H         1 <0>         0.1354
@<TRIPOS>BOND
     1    1    6 ar
     2    1    2 ar
     3    1   31 1
     4    2    3 ar
     5    2   32 1
     6    3    4 ar
     7    3   13 1
     8    4    5 ar
     9    4   33 1
    10    5    6 ar
    11    5    7 1
    12    6   34 1
    13    7    8 2
    14    7    9 am
    15    9   10 1
    16    9   35 1
    17   10   11 1
    18   10   36 1
    19   10   37 1
    20   11   12 1
    21   11   38 1
    22   11   39 1
    23   12   40 1
    24   13   18 ar
    25   13   14 ar
    26   14   15 ar
    27   14   41 1
    28   15   16 ar
    29   15   19 1
    30   16   17 ar
    31   17   18 ar
    32   17   42 1
    33   19   20 1
    34   19   43 1
    35   20   25 ar
    36   20   21 ar
    37   21   22 ar
    38   21   44 1
    39   22   23 ar
    40   22   45 1
    41   23   24 ar
    42   23   26 1
    43   24   25 ar
    44   24   46 1
    45   25   47 1
    46   26   27 1
    47   27   28 1
    48   27   29 1
    49   27   30 1
@<TRIPOS>MOLECULE
ZINC06315584
   29    31     0     0     0
SMALL
USER_CHARGES
N-[4-(trifluoromethoxy)phenyl]-1H-pyrazolo[4,3-e]pyrimidin-4-amine
@<TRIPOS>ATOM
      1 C1          0.1574   -2.7394   -0.1048 C.ar      1 <0>        -0.0691
      2 C2          0.2438   -4.1144   -0.1992 C.ar      1 <0>        -0.1683
      3 C3         -0.9108   -4.8776   -0.2914 C.ar      1 <0>         0.0892
      4 C4         -2.1533   -4.2608   -0.2831 C.ar      1 <0>        -0.1015
      5 C5         -2.2416   -2.8864   -0.1835 C.ar      1 <0>        -0.1089
      6 C6         -1.0862   -2.1216   -0.0912 C.ar      1 <0>         0.1361
      7 N1         -1.1749   -0.7280    0.0098 N.pl3     1 <0>        -0.6362
      8 C7         -0.2341   -0.0269    0.7398 C.ar      1 <0>         0.5109
      9 C8         -0.2382    1.3815    0.7583 C.ar      1 <0>        -0.3267
     10 C9         -1.0346    2.3799    0.1572 C.2       1 <0>         0.1062
     11 N2         -0.5838    3.5450    0.5261 N.2       1 <0>        -0.2416
     12 N3          0.5216    3.3777    1.3698 N.pl3     1 <0>        -0.4796
     13 H1          1.0551    4.1121    1.7892 H         1 <0>         0.4568
     14 C10         0.7450    2.0415    1.5208 C.ar      1 <0>         0.3736
     15 N4          1.6353    1.3116    2.1912 N.ar      1 <0>        -0.5695
     16 C11         1.5990   -0.0019    2.1428 C.ar      1 <0>         0.3890
     17 N5          0.6962   -0.6649    1.4418 N.ar      1 <0>        -0.5953
     18 O1         -0.8247   -6.2312   -0.3895 O.3       1 <0>        -0.3103
     19 C12         0.4865   -6.7993   -0.3920 C.3       1 <0>         0.6040
     20 F1          1.1413   -6.4663    0.7986 F         1 <0>        -0.1637
     21 F2          0.3915   -8.1910   -0.4984 F         1 <0>        -0.1307
     22 F3          1.2103   -6.2969   -1.4787 F         1 <0>        -0.1649
     23 H2          1.0566   -2.1450   -0.0379 H         1 <0>         0.1480
     24 H3          1.2108   -4.5954   -0.2057 H         1 <0>         0.1373
     25 H4         -3.0518   -4.8558   -0.3550 H         1 <0>         0.1442
     26 H5         -3.2091   -2.4063   -0.1771 H         1 <0>         0.1412
     27 H6         -1.8967   -0.2546   -0.4326 H         1 <0>         0.4245
     28 H7         -1.8763    2.2070   -0.4971 H         1 <0>         0.1973
     29 H8          2.3368   -0.5615    2.6987 H         1 <0>         0.2081
@<TRIPOS>BOND
     1    1    6 ar
     2    1    2 ar
     3    1   23 1
     4    2    3 ar
     5    2   24 1
     6    3    4 ar
     7    3   18 1
     8    4    5 ar
     9    4   25 1
    10    5    6 ar
    11    5   26 1
    12    6    7 1
    13    7    8 1
    14    7   27 1
    15    8   17 ar
    16    8    9 ar
    17    9   14 ar
    18    9   10 1
    19   10   11 2
    20   10   28 1
    21   11   12 1
    22   12   13 1
    23   12   14 1
    24   14   15 ar
    25   15   16 ar
    26   16   17 ar
    27   16   29 1
    28   18   19 1
    29   19   20 1
    30   19   21 1
    31   19   22 1
@<TRIPOS>MOLECULE
ZINC01493878
   48    50     0     0     0
SMALL
USER_CHARGES

@<TRIPOS>ATOM
      1 C1         -1.0955   -5.0083   -6.9234 C.3       1 <0>         0.0847
      2 N1         -1.5520   -4.3038   -5.7228 N.am      1 <0>        -0.7137
      3 C2         -1.8827   -5.0004   -4.6175 C.2       1 <0>         0.5696
      4 O1         -1.8023   -6.2129   -4.6168 O.2       1 <0>        -0.5284
      5 C3         -2.3445   -4.2878   -3.4031 C.ar      1 <0>         0.1129
      6 C4         -2.6788   -5.0128   -2.2640 C.ar      1 <0>        -0.1883
      7 C5         -3.1110   -4.3279   -1.1310 C.ar      1 <0>         0.1595
      8 C6         -3.1903   -2.9389   -1.1877 C.ar      1 <0>        -0.1766
      9 C7         -2.8404   -2.2885   -2.3571 C.ar      1 <0>         0.1349
     10 N2         -2.4302   -2.9626   -3.4105 N.ar      1 <0>        -0.4815
     11 O2         -3.4471   -4.9979    0.0005 O.3       1 <0>        -0.2437
     12 C8         -3.4462   -6.3570   -0.0383 C.ar      1 <0>         0.0568
     13 C9         -2.2447   -7.0505   -0.0178 C.ar      1 <0>        -0.1074
     14 C10        -2.2431   -8.4307   -0.0577 C.ar      1 <0>        -0.1009
     15 C11        -3.4442   -9.1246   -0.1179 C.ar      1 <0>         0.1671
     16 C12        -4.6464   -8.4301   -0.1379 C.ar      1 <0>        -0.1272
     17 C13        -4.6469   -7.0500   -0.0928 C.ar      1 <0>        -0.0940
     18 N3         -3.4432  -10.5252   -0.1588 N.am      1 <0>        -0.6776
     19 C14        -2.5108  -11.2187    0.5239 C.2       1 <0>         0.7077
     20 O3         -1.6217  -10.6297    1.1080 O.2       1 <0>        -0.5493
     21 N4         -2.5639  -12.5649    0.5593 N.am      1 <0>        -0.6795
     22 C15        -1.6655  -13.2800    1.3600 C.ar      1 <0>         0.1700
     23 C16        -1.2529  -12.7583    2.5792 C.ar      1 <0>        -0.0742
     24 C17        -0.3670  -13.4659    3.3674 C.ar      1 <0>        -0.0871
     25 C18         0.1097  -14.6941    2.9434 C.ar      1 <0>        -0.0077
     26 C19        -0.2993  -15.2159    1.7290 C.ar      1 <0>        -0.1564
     27 C20        -1.1898  -14.5147    0.9394 C.ar      1 <0>        -0.0879
     28 C21         0.2222  -16.5533    1.2702 C.3       1 <0>         0.5112
     29 F1         -0.3299  -16.8663    0.0234 F         1 <0>        -0.1743
     30 F2          1.6160  -16.4983    1.1626 F         1 <0>        -0.1671
     31 F3         -0.1354  -17.5367    2.1987 F         1 <0>        -0.1677
     32 Cl1         1.2234  -15.5812    3.9366 Cl        1 <0>        -0.0394
     33 H1         -0.8760   -4.2843   -7.7081 H         1 <0>         0.0803
     34 H2         -0.1948   -5.5764   -6.6909 H         1 <0>         0.0631
     35 H3         -1.8761   -5.6883   -7.2645 H         1 <0>         0.0629
     36 H4         -1.6162   -3.3359   -5.7233 H         1 <0>         0.4141
     37 H5         -2.6047   -6.0902   -2.2584 H         1 <0>         0.1546
     38 H6         -3.5217   -2.3755   -0.3280 H         1 <0>         0.1523
     39 H7         -2.9005   -1.2112   -2.4052 H         1 <0>         0.1747
     40 H8         -1.3104   -6.5106    0.0290 H         1 <0>         0.1364
     41 H9         -1.3078   -8.9704   -0.0424 H         1 <0>         0.1514
     42 H10        -5.5809   -8.9693   -0.1851 H         1 <0>         0.1386
     43 H11        -5.5820   -6.5098   -0.1039 H         1 <0>         0.1400
     44 H12        -4.1137  -10.9957   -0.6785 H         1 <0>         0.4131
     45 H13        -3.2246  -13.0383    0.0299 H         1 <0>         0.4146
     46 H14        -1.6244  -11.7997    2.9103 H         1 <0>         0.1546
     47 H15        -0.0456  -13.0604    4.3154 H         1 <0>         0.1524
     48 H16        -1.5123  -14.9245   -0.0064 H         1 <0>         0.1525
@<TRIPOS>BOND
     1    1    2 1
     2    1   33 1
     3    1   34 1
     4    1   35 1
     5    2    3 am
     6    2   36 1
     7    3    4 2
     8    3    5 1
     9    5   10 ar
    10    5    6 ar
    11    6    7 ar
    12    6   37 1
    13    7    8 ar
    14    7   11 1
    15    8    9 ar
    16    8   38 1
    17    9   10 ar
    18    9   39 1
    19   11   12 1
    20   12   17 ar
    21   12   13 ar
    22   13   14 ar
    23   13   40 1
    24   14   15 ar
    25   14   41 1
    26   15   16 ar
    27   15   18 1
    28   16   17 ar
    29   16   42 1
    30   17   43 1
    31   18   19 am
    32   18   44 1
    33   19   20 2
    34   19   21 am
    35   21   22 1
    36   21   45 1
    37   22   27 ar
    38   22   23 ar
    39   23   24 ar
    40   23   46 1
    41   24   25 ar
    42   24   47 1
    43   25   26 ar
    44   25   32 1
    45   26   27 ar
    46   26   28 1
    47   27   48 1
    48   28   29 1
    49   28   30 1
    50   28   31 1
@<TRIPOS>MOLECULE
ZINC21982951
   60    63     0     0     0
SMALL
USER_CHARGES

@<TRIPOS>ATOM
      1 C1         -2.0700    1.6928    0.2333 C.3       1 <0>        -0.1170
      2 C2         -1.6482    0.2604    0.0301 C.ar      1 <0>        -0.0813
      3 C3         -1.8479   -0.3525   -1.1919 C.ar      1 <0>        -0.1034
      4 C4         -1.4615   -1.6665   -1.3798 C.ar      1 <0>        -0.0990
      5 C5         -0.8738   -2.3725   -0.3459 C.ar      1 <0>        -0.1046
      6 C6         -0.6714   -1.7660    0.8791 C.ar      1 <0>        -0.0220
      7 C7         -1.0534   -0.4428    1.0688 C.ar      1 <0>         0.1347
      8 N1         -0.8441    0.1769    2.3055 N.am      1 <0>        -0.6659
      9 C8         -1.2819   -0.4110    3.4365 C.2       1 <0>         0.6018
     10 O1         -1.7689   -1.5261    3.3939 O.2       1 <0>        -0.4722
     11 C9         -1.1720    0.2905    4.7149 C.2       1 <0>        -0.2635
     12 C10        -1.5472   -0.1201    5.9866 C.2       1 <0>         0.1512
     13 N2         -1.3262    0.7270    6.9599 N.2       1 <0>        -0.5510
     14 C11        -0.7756    1.9070    6.7361 C.2       1 <0>         0.2513
     15 S1         -0.5107    1.9100    5.0742 S.3       1 <0>         0.2445
     16 N3         -0.4817    2.8997    7.6498 N.pl3     1 <0>        -0.5870
     17 C12        -0.6908    2.6801    9.0050 C.ar      1 <0>         0.4543
     18 C13        -1.0534    1.4192    9.4679 C.ar      1 <0>        -0.2926
     19 C14        -1.2512    1.2508   10.8352 C.ar      1 <0>         0.4935
     20 N4         -1.0875    2.2952   11.6453 N.ar      1 <0>        -0.5328
     21 C15        -0.7435    3.4737   11.1677 C.ar      1 <0>         0.4541
     22 N5         -0.5417    3.6719    9.8809 N.ar      1 <0>        -0.5672
     23 C16        -0.5694    4.6273   12.1217 C.3       1 <0>        -0.1251
     24 N6         -1.6138    0.0143   11.3464 N.pl3     1 <0>        -0.5370
     25 C17        -2.0559   -0.1253   12.7422 C.3       1 <0>         0.1090
     26 C18        -3.3866   -0.8852   12.7576 C.3       1 <0>         0.0383
     27 N7         -3.2335   -2.1493   12.0251 N.3       1 <0>        -0.5289
     28 C19        -2.9165   -1.9105   10.6107 C.3       1 <0>         0.0343
     29 C20        -1.5725   -1.1917   10.5056 C.3       1 <0>         0.1057
     30 C21        -4.4334   -2.9856   12.1619 C.3       1 <0>         0.0545
     31 C22        -4.1483   -4.3816   11.6043 C.3       1 <0>         0.0776
     32 O2         -3.1500   -5.0191   12.4038 O.3       1 <0>        -0.5606
     33 Cl1         0.0658   -2.6526    2.1768 Cl        1 <0>        -0.0453
     34 H1         -1.2464    2.3553   -0.0328 H         1 <0>         0.0773
     35 H2         -2.9308    1.9112   -0.3987 H         1 <0>         0.0785
     36 H3         -2.3379    1.8478    1.2784 H         1 <0>         0.0640
     37 H4         -2.3069    0.1956   -2.0014 H         1 <0>         0.1372
     38 H5         -1.6193   -2.1430   -2.3361 H         1 <0>         0.1391
     39 H6         -0.5731   -3.3989   -0.4959 H         1 <0>         0.1403
     40 H7         -0.3838    1.0296    2.3489 H         1 <0>         0.4083
     41 H8         -1.9972   -1.0858    6.1634 H         1 <0>         0.2027
     42 H9         -0.1293    3.7505    7.3451 H         1 <0>         0.4460
     43 H10        -1.1784    0.5927    8.7841 H         1 <0>         0.2218
     44 H11         0.4644    4.6619   12.4652 H         1 <0>         0.1245
     45 H12        -0.8146    5.5596   11.6130 H         1 <0>         0.1071
     46 H13        -1.2322    4.4948   12.9768 H         1 <0>         0.1273
     47 H14        -1.3096   -0.6823   13.3087 H         1 <0>         0.0989
     48 H15        -2.1929    0.8619   13.1834 H         1 <0>         0.1094
     49 H16        -3.6740   -1.0944   13.7880 H         1 <0>         0.1036
     50 H17        -4.1569   -0.2794   12.2806 H         1 <0>         0.0428
     51 H18        -2.8631   -2.8634   10.0841 H         1 <0>         0.1043
     52 H19        -3.6935   -1.2904   10.1636 H         1 <0>         0.0450
     53 H20        -1.3900   -0.9091    9.4688 H         1 <0>         0.1029
     54 H21        -0.7788   -1.8532   10.8529 H         1 <0>         0.1042
     55 H22        -4.7041   -3.0633   13.2149 H         1 <0>         0.0912
     56 H23        -5.2561   -2.5340   11.6075 H         1 <0>         0.0533
     57 H24        -5.0627   -4.9745   11.6240 H         1 <0>         0.0547
     58 H25        -3.7921   -4.2970   10.5776 H         1 <0>         0.0454
     59 H26        -2.9188   -5.9101   12.1076 H         1 <0>         0.3805
     60 H27        -0.2852    4.5531    9.5669 H         1 <0>         0.4414
@<TRIPOS>BOND
     1    1    2 1
     2    1   34 1
     3    1   35 1
     4    1   36 1
     5    2    7 ar
     6    2    3 ar
     7    3    4 ar
     8    3   37 1
     9    4    5 ar
    10    4   38 1
    11    5    6 ar
    12    5   39 1
    13    6    7 ar
    14    6   33 1
    15    7    8 1
    16    8    9 am
    17    8   40 1
    18    9   10 2
    19    9   11 1
    20   11   15 1
    21   11   12 2
    22   12   13 1
    23   12   41 1
    24   13   14 2
    25   14   15 1
    26   14   16 1
    27   16   17 1
    28   16   42 1
    29   17   22 ar
    30   17   18 ar
    31   18   19 ar
    32   18   43 1
    33   19   20 ar
    34   19   24 1
    35   20   21 ar
    36   21   22 ar
    37   21   23 1
    38   22   60 1
    39   23   44 1
    40   23   45 1
    41   23   46 1
    42   24   29 1
    43   24   25 1
    44   25   26 1
    45   25   47 1
    46   25   48 1
    47   26   27 1
    48   26   49 1
    49   26   50 1
    50   27   28 1
    51   27   30 1
    52   28   29 1
    53   28   51 1
    54   28   52 1
    55   29   53 1
    56   29   54 1
    57   30   31 1
    58   30   55 1
    59   30   56 1
    60   31   32 1
    61   31   57 1
    62   31   58 1
    63   32   59 1
@<TRIPOS>MOLECULE
ZINC21982951
   60    63     0     0     0
SMALL
USER_CHARGES

@<TRIPOS>ATOM
      1 C1          3.2739    6.6585    1.8418 C.3       1 <0>        -0.1168
      2 C2          2.5810    7.9910    1.9663 C.ar      1 <0>        -0.0823
      3 C3          2.8983    9.0189    1.0995 C.ar      1 <0>        -0.1038
      4 C4          2.2635   10.2419    1.2126 C.ar      1 <0>        -0.1008
      5 C5          1.3088   10.4411    2.1933 C.ar      1 <0>        -0.1049
      6 C6          0.9869    9.4175    3.0639 C.ar      1 <0>        -0.0226
      7 C7          1.6192    8.1849    2.9486 C.ar      1 <0>         0.1373
      8 N1          1.2913    7.1440    3.8238 N.am      1 <0>        -0.6678
      9 C8          1.3128    7.3511    5.1554 C.2       1 <0>         0.6036
     10 O1          1.5184    8.4680    5.5945 O.2       1 <0>        -0.4759
     11 C9          1.0891    6.2346    6.0728 C.2       1 <0>        -0.2694
     12 C10         1.0619    6.2190    7.4604 C.2       1 <0>         0.1522
     13 N2          0.8357    5.0596    8.0247 N.2       1 <0>        -0.5060
     14 C11         0.6446    3.9678    7.3056 C.2       1 <0>         0.2464
     15 S1          0.7674    4.5141    5.7185 S.3       1 <0>         0.2029
     16 N3          0.3973    2.6842    7.7505 N.pl3     1 <0>        -0.5650
     17 C12         0.2197    2.4414    9.1063 C.ar      1 <0>         0.4999
     18 C13        -0.1342    1.1736    9.5555 C.ar      1 <0>        -0.3181
     19 C14        -0.3003    0.9817   10.9244 C.ar      1 <0>         0.4940
     20 N4         -0.1157    2.0114   11.7481 N.ar      1 <0>        -0.5712
     21 C15         0.2193    3.1978   11.2829 C.ar      1 <0>         0.4509
     22 N5          0.3911    3.4178    9.9956 N.ar      1 <0>        -0.4879
     23 C16         0.4179    4.3344   12.2523 C.3       1 <0>        -0.1253
     24 N6         -0.6531   -0.2629   11.4224 N.pl3     1 <0>        -0.5744
     25 C17        -0.9639   -0.4449   12.8484 C.3       1 <0>         0.1013
     26 C18        -2.3114   -1.1652   12.9649 C.3       1 <0>         0.0387
     27 N7         -2.2712   -2.4031   12.1749 N.3       1 <0>        -0.5277
     28 C19        -2.0835   -2.1176   10.7462 C.3       1 <0>         0.0305
     29 C20        -0.7325   -1.4351   10.5377 C.3       1 <0>         0.1149
     30 C21        -3.4796   -3.2085   12.3965 C.3       1 <0>         0.0543
     31 C22        -3.2958   -4.5889   11.7629 C.3       1 <0>         0.0774
     32 O2         -2.2472   -5.2869   12.4378 O.3       1 <0>        -0.5615
     33 Cl1        -0.2110    9.6681    4.2952 Cl        1 <0>        -0.0453
     34 H1          2.7121    6.0191    1.1609 H         1 <0>         0.0767
     35 H2          4.2810    6.8077    1.4524 H         1 <0>         0.0779
     36 H3          3.3298    6.1850    2.8220 H         1 <0>         0.0648
     37 H4          3.6435    8.8670    0.3327 H         1 <0>         0.1365
     38 H5          2.5139   11.0437    0.5337 H         1 <0>         0.1383
     39 H6          0.8148   11.3976    2.2790 H         1 <0>         0.1396
     40 H7          1.0484    6.2731    3.4723 H         1 <0>         0.4083
     41 H8          1.2191    7.1147    8.0430 H         1 <0>         0.1979
     42 H9          0.3477    1.9521    7.1161 H         1 <0>         0.4525
     43 H10        -0.2767    0.3593    8.8606 H         1 <0>         0.1835
     44 H11         1.4596    4.3615   12.5720 H         1 <0>         0.1250
     45 H12         0.1626    5.2758   11.7656 H         1 <0>         0.1301
     46 H13        -0.2249    4.1881   13.1203 H         1 <0>         0.1049
     47 H14        -0.1857   -1.0458   13.3190 H         1 <0>         0.1119
     48 H15        -1.0251    0.5276   13.3369 H         1 <0>         0.0843
     49 H16        -2.5057   -1.4068   14.0099 H         1 <0>         0.1076
     50 H17        -3.1034   -0.5184   12.5874 H         1 <0>         0.0465
     51 H18        -2.1124   -3.0499   10.1822 H         1 <0>         0.1076
     52 H19        -2.8786   -1.4576   10.3996 H         1 <0>         0.0467
     53 H20        -0.6409   -1.1170    9.4992 H         1 <0>         0.1034
     54 H21         0.0684   -2.1330   10.7819 H         1 <0>         0.1075
     55 H22        -3.6507   -3.3200   13.4672 H         1 <0>         0.0925
     56 H23        -4.3362   -2.7111   11.9416 H         1 <0>         0.0553
     57 H24        -4.2233   -5.1548   11.8494 H         1 <0>         0.0565
     58 H25        -3.0370   -4.4741   10.7103 H         1 <0>         0.0456
     59 H26        -2.0752   -6.1719   12.0881 H         1 <0>         0.3821
     60 H27        -0.2297    1.8867   12.7033 H         1 <0>         0.4392
@<TRIPOS>BOND
     1    1    2 1
     2    1   34 1
     3    1   35 1
     4    1   36 1
     5    2    7 ar
     6    2    3 ar
     7    3    4 ar
     8    3   37 1
     9    4    5 ar
    10    4   38 1
    11    5    6 ar
    12    5   39 1
    13    6    7 ar
    14    6   33 1
    15    7    8 1
    16    8    9 am
    17    8   40 1
    18    9   10 2
    19    9   11 1
    20   11   15 1
    21   11   12 2
    22   12   13 1
    23   12   41 1
    24   13   14 2
    25   14   15 1
    26   14   16 1
    27   16   17 1
    28   16   42 1
    29   17   18 ar
    30   17   22 ar
    31   18   43 1
    32   18   19 ar
    33   19   24 1
    34   19   20 ar
    35   20   60 1
    36   20   21 ar
    37   21   23 1
    38   21   22 ar
    39   23   44 1
    40   23   45 1
    41   23   46 1
    42   24   29 1
    43   24   25 1
    44   25   26 1
    45   25   47 1
    46   25   48 1
    47   26   27 1
    48   26   49 1
    49   26   50 1
    50   27   28 1
    51   27   30 1
    52   28   29 1
    53   28   51 1
    54   28   52 1
    55   29   53 1
    56   29   54 1
    57   30   31 1
    58   30   55 1
    59   30   56 1
    60   31   32 1
    61   31   57 1
    62   31   58 1
    63   32   59 1
@<TRIPOS>MOLECULE
ZINC21982951
   59    62     0     0     0
SMALL
USER_CHARGES

@<TRIPOS>ATOM
      1 C1          3.4106    6.6420    1.8847 C.3       1 <0>        -0.1165
      2 C2          2.6976    7.9659    1.9845 C.ar      1 <0>        -0.0852
      3 C3          3.0204    8.9921    1.1176 C.ar      1 <0>        -0.1055
      4 C4          2.3672   10.2073    1.2080 C.ar      1 <0>        -0.1070
      5 C5          1.3885   10.4004    2.1660 C.ar      1 <0>        -0.1064
      6 C6          1.0609    9.3785    3.0365 C.ar      1 <0>        -0.0243
      7 C7          1.7118    8.1536    2.9438 C.ar      1 <0>         0.1460
      8 N1          1.3783    7.1144    3.8189 N.am      1 <0>        -0.6734
      9 C8          1.3676    7.3308    5.1492 C.2       1 <0>         0.6131
     10 O1          1.5489    8.4533    5.5848 O.2       1 <0>        -0.4899
     11 C9          1.1384    6.2176    6.0693 C.2       1 <0>        -0.3092
     12 C10         1.0807    6.2111    7.4561 C.2       1 <0>         0.1722
     13 N2          0.8573    5.0526    8.0233 N.2       1 <0>        -0.5180
     14 C11         0.6966    3.9535    7.3079 C.2       1 <0>         0.3121
     15 S1          0.8472    4.4907    5.7202 S.3       1 <0>         0.1340
     16 N3          0.4564    2.6698    7.7563 N.pl3     1 <0>        -0.5904
     17 C12         0.2490    2.4343    9.1091 C.ar      1 <0>         0.4412
     18 C13        -0.1036    1.1661    9.5586 C.ar      1 <0>        -0.3412
     19 C14        -0.3003    0.9817   10.9244 C.ar      1 <0>         0.4686
     20 N4         -0.1450    2.0186   11.7452 N.ar      1 <0>        -0.5923
     21 C15         0.1898    3.2050   11.2799 C.ar      1 <0>         0.3946
     22 N5          0.3901    3.4182    9.9956 N.ar      1 <0>        -0.5459
     23 C16         0.3546    4.3498   12.2460 C.3       1 <0>        -0.0834
     24 N6         -0.6531   -0.2629   11.4224 N.pl3     1 <0>        -0.5966
     25 C17        -1.0693   -0.4249   12.8237 C.3       1 <0>         0.1300
     26 C18        -2.3993   -1.1856   12.8517 C.3       1 <0>         0.0401
     27 N7         -2.2595   -2.4378   12.0965 N.3       1 <0>        -0.5276
     28 C19        -1.9688   -2.1765   10.6804 C.3       1 <0>         0.0363
     29 C20        -0.6270   -1.4554   10.5619 C.3       1 <0>         0.1269
     30 C21        -3.4565   -3.2768   12.2420 C.3       1 <0>         0.0537
     31 C22        -3.1814   -4.6636   11.6572 C.3       1 <0>         0.0792
     32 O2         -2.1684   -5.3132   12.4279 O.3       1 <0>        -0.5589
     33 Cl1        -0.1672    9.6214    4.2392 Cl        1 <0>        -0.0433
     34 H1          2.8725    5.9906    1.1961 H         1 <0>         0.0754
     35 H2          4.4240    6.8020    1.5166 H         1 <0>         0.0754
     36 H3          3.4510    6.1760    2.8692 H         1 <0>         0.0676
     37 H4          3.7844    8.8450    0.3685 H         1 <0>         0.1337
     38 H5          2.6220   11.0077    0.5292 H         1 <0>         0.1350
     39 H6          0.8801   11.3508    2.2339 H         1 <0>         0.1371
     40 H7          1.1547    6.2381    3.4683 H         1 <0>         0.4085
     41 H8          1.2132    7.1127    8.0357 H         1 <0>         0.1884
     42 H9          0.4325    1.9325    7.1264 H         1 <0>         0.4387
     43 H10        -0.2220    0.3459    8.8660 H         1 <0>         0.1413
     44 H11         1.3882    4.3890   12.5900 H         1 <0>         0.0870
     45 H12         0.1021    5.2855   11.7470 H         1 <0>         0.0890
     46 H13        -0.3072    4.2031   13.0995 H         1 <0>         0.0846
     47 H14        -0.3126   -0.9904   13.3674 H         1 <0>         0.0744
     48 H15        -1.1984    0.5551   13.2831 H         1 <0>         0.1008
     49 H16        -2.6676   -1.4113   13.8837 H         1 <0>         0.0903
     50 H17        -3.1785   -0.5727   12.3986 H         1 <0>         0.0372
     51 H18        -1.9249   -3.1208   10.1378 H         1 <0>         0.0905
     52 H19        -2.7540   -1.5497   10.2576 H         1 <0>         0.0380
     53 H20        -0.4638   -1.1563    9.5265 H         1 <0>         0.0877
     54 H21         0.1731   -2.1219   10.8840 H         1 <0>         0.0802
     55 H22        -3.7077   -3.3713   13.2985 H         1 <0>         0.0861
     56 H23        -4.2894   -2.8169   11.7102 H         1 <0>         0.0487
     57 H24        -4.0952   -5.2572   11.6843 H         1 <0>         0.0498
     58 H25        -2.8443   -4.5626   10.6256 H         1 <0>         0.0451
     59 H26        -1.9426   -6.1994   12.1134 H         1 <0>         0.3762
@<TRIPOS>BOND
     1    1    2 1
     2    1   34 1
     3    1   35 1
     4    1   36 1
     5    2    7 ar
     6    2    3 ar
     7    3    4 ar
     8    3   37 1
     9    4    5 ar
    10    4   38 1
    11    5    6 ar
    12    5   39 1
    13    6    7 ar
    14    6   33 1
    15    7    8 1
    16    8    9 am
    17    8   40 1
    18    9   10 2
    19    9   11 1
    20   11   15 1
    21   11   12 2
    22   12   13 1
    23   12   41 1
    24   13   14 2
    25   14   15 1
    26   14   16 1
    27   16   17 1
    28   16   42 1
    29   17   18 ar
    30   17   22 ar
    31   18   43 1
    32   18   19 ar
    33   19   24 1
    34   19   20 ar
    35   20   21 ar
    36   21   23 1
    37   21   22 ar
    38   23   44 1
    39   23   45 1
    40   23   46 1
    41   24   29 1
    42   24   25 1
    43   25   26 1
    44   25   47 1
    45   25   48 1
    46   26   27 1
    47   26   49 1
    48   26   50 1
    49   27   28 1
    50   27   30 1
    51   28   29 1
    52   28   51 1
    53   28   52 1
    54   29   53 1
    55   29   54 1
    56   30   31 1
    57   30   55 1
    58   30   56 1
    59   31   32 1
    60   31   57 1
    61   31   58 1
    62   32   59 1
@<TRIPOS>MOLECULE
ZINC21982951
   61    64     0     0     0
SMALL
USER_CHARGES

@<TRIPOS>ATOM
      1 C1          3.2770    6.6581    1.8427 C.3       1 <0>        -0.1166
      2 C2          2.5837    7.9904    1.9667 C.ar      1 <0>        -0.0814
      3 C3          2.9012    9.0183    1.0999 C.ar      1 <0>        -0.1028
      4 C4          2.2660   10.2411    1.2125 C.ar      1 <0>        -0.0975
      5 C5          1.3108   10.4402    2.1928 C.ar      1 <0>        -0.1039
      6 C6          0.9888    9.4167    3.0634 C.ar      1 <0>        -0.0218
      7 C7          1.6215    8.1842    2.9485 C.ar      1 <0>         0.1327
      8 N1          1.2933    7.1433    3.8237 N.am      1 <0>        -0.6648
      9 C8          1.3141    7.3507    5.1552 C.2       1 <0>         0.5983
     10 O1          1.5193    8.4677    5.5943 O.2       1 <0>        -0.4690
     11 C9          1.0903    6.2342    6.0727 C.2       1 <0>        -0.2500
     12 C10         1.0624    6.2188    7.4604 C.2       1 <0>         0.1439
     13 N2          0.8362    5.0594    8.0246 N.2       1 <0>        -0.4984
     14 C11         0.6458    3.9675    7.3056 C.2       1 <0>         0.2172
     15 S1          0.7692    4.5136    5.7185 S.3       1 <0>         0.2242
     16 N3          0.3986    2.6839    7.7506 N.pl3     1 <0>        -0.5513
     17 C12         0.2203    2.4413    9.1063 C.ar      1 <0>         0.5098
     18 C13        -0.1335    1.1734    9.5556 C.ar      1 <0>        -0.3097
     19 C14        -0.3003    0.9817   10.9244 C.ar      1 <0>         0.4927
     20 N4         -0.1163    2.0116   11.7481 N.ar      1 <0>        -0.5695
     21 C15         0.2187    3.1980   11.2828 C.ar      1 <0>         0.4589
     22 N5          0.3911    3.4178    9.9956 N.ar      1 <0>        -0.4762
     23 C16         0.4165    4.3348   12.2521 C.3       1 <0>        -0.1303
     24 N6         -0.6531   -0.2629   11.4224 N.pl3     1 <0>        -0.6123
     25 C17        -0.9643   -0.4465   12.8484 C.3       1 <0>         0.0782
     26 C18        -2.3027   -1.1838   12.9625 C.3       1 <0>        -0.0204
     27 N7         -2.2406   -2.4311   12.1903 N.4       1 <0>        -0.3852
     28 C19        -2.0770   -2.1279   10.7629 C.3       1 <0>        -0.0304
     29 C20        -0.7330   -1.4363   10.5388 C.3       1 <0>         0.0932
     30 C21        -3.4827   -3.1900   12.3886 C.3       1 <0>        -0.0061
     31 C22        -3.3702   -4.5448   11.6865 C.3       1 <0>         0.0434
     32 O2         -2.3479   -5.3224   12.3128 O.3       1 <0>        -0.5819
     33 Cl1        -0.2098    9.6671    4.2940 Cl        1 <0>        -0.0466
     34 H1          2.7157    6.0184    1.1617 H         1 <0>         0.0770
     35 H2          4.2843    6.8074    1.4538 H         1 <0>         0.0791
     36 H3          3.3325    6.1847    2.8230 H         1 <0>         0.0631
     37 H4          3.6468    8.8665    0.3335 H         1 <0>         0.1380
     38 H5          2.5166   11.0428    0.5336 H         1 <0>         0.1401
     39 H6          0.8165   11.3966    2.2780 H         1 <0>         0.1410
     40 H7          1.0508    6.2723    3.4722 H         1 <0>         0.4077
     41 H8          1.2191    7.1146    8.0429 H         1 <0>         0.2016
     42 H9          0.3494    1.9517    7.1163 H         1 <0>         0.4545
     43 H10        -0.2756    0.3590    8.8607 H         1 <0>         0.1860
     44 H11         1.4581    4.3621   12.5724 H         1 <0>         0.1309
     45 H12         0.1613    5.2760   11.7653 H         1 <0>         0.1358
     46 H13        -0.2267    4.1885   13.1199 H         1 <0>         0.1083
     47 H14        -0.1795   -1.0367   13.3215 H         1 <0>         0.1249
     48 H15        -1.0392    0.5259   13.3352 H         1 <0>         0.1232
     49 H16        -2.5028   -1.4138   14.0090 H         1 <0>         0.1602
     50 H17        -3.0999   -0.5526   12.5701 H         1 <0>         0.1410
     51 H18        -2.1110   -3.0537   10.1885 H         1 <0>         0.1585
     52 H19        -2.8811   -1.4682   10.4370 H         1 <0>         0.1418
     53 H20        -0.6550   -1.1179    9.4992 H         1 <0>         0.1416
     54 H21         0.0756   -2.1281   10.7747 H         1 <0>         0.1211
     55 H22        -3.6469   -3.3459   13.4548 H         1 <0>         0.1465
     56 H23        -4.3202   -2.6321   11.9697 H         1 <0>         0.1464
     57 H24        -4.3221   -5.0710   11.7578 H         1 <0>         0.1026
     58 H25        -3.1180   -4.3904   10.6374 H         1 <0>         0.0719
     59 H26        -2.2211   -6.1961   11.9183 H         1 <0>         0.4154
     60 H27        -0.2308    1.8869   12.7032 H         1 <0>         0.4393
     61 H28        -1.4578   -2.9831   12.5075 H         1 <0>         0.4359
@<TRIPOS>BOND
     1    1    2 1
     2    1   34 1
     3    1   35 1
     4    1   36 1
     5    2    7 ar
     6    2    3 ar
     7    3    4 ar
     8    3   37 1
     9    4    5 ar
    10    4   38 1
    11    5    6 ar
    12    5   39 1
    13    6    7 ar
    14    6   33 1
    15    7    8 1
    16    8    9 am
    17    8   40 1
    18    9   10 2
    19    9   11 1
    20   11   15 1
    21   11   12 2
    22   12   13 1
    23   12   41 1
    24   13   14 2
    25   14   15 1
    26   14   16 1
    27   16   17 1
    28   16   42 1
    29   17   18 ar
    30   17   22 ar
    31   18   43 1
    32   18   19 ar
    33   19   24 1
    34   19   20 ar
    35   20   60 1
    36   20   21 ar
    37   21   23 1
    38   21   22 ar
    39   23   44 1
    40   23   45 1
    41   23   46 1
    42   24   29 1
    43   24   25 1
    44   25   26 1
    45   25   47 1
    46   25   48 1
    47   26   27 1
    48   26   49 1
    49   26   50 1
    50   27   28 1
    51   27   30 1
    52   27   61 1
    53   28   29 1
    54   28   51 1
    55   28   52 1
    56   29   53 1
    57   29   54 1
    58   30   31 1
    59   30   55 1
    60   30   56 1
    61   31   32 1
    62   31   57 1
    63   31   58 1
    64   32   59 1
@<TRIPOS>MOLECULE
ZINC01912572
   43    45     0     0     0
SMALL
USER_CHARGES
2-(4-pyridylmethylamino)-N-[3-(trifluoromethyl)phenyl]-benzamide
@<TRIPOS>ATOM
      1 C1         -0.1765    9.4460    0.4719 C.ar      1 <0>        -0.1891
      2 C2          1.0103   10.1618    0.4963 C.ar      1 <0>        -0.0333
      3 C3          2.2211    9.5112    0.3781 C.ar      1 <0>        -0.2111
      4 C4          2.2581    8.1291    0.2392 C.ar      1 <0>         0.2834
      5 C5          1.0579    7.4020    0.2088 C.ar      1 <0>        -0.2347
      6 C6         -0.1603    8.0760    0.3297 C.ar      1 <0>        -0.0328
      7 C7          1.0825    5.9361    0.0563 C.2       1 <0>         0.5755
      8 O1          2.1438    5.3424    0.0572 O.2       1 <0>        -0.5298
      9 N1         -0.0712    5.2537   -0.0842 N.am      1 <0>        -0.6685
     10 C8         -0.0569    3.8557   -0.1198 C.ar      1 <0>         0.1487
     11 C9         -0.9819    3.1697   -0.8966 C.ar      1 <0>        -0.1140
     12 C10        -0.9653    1.7893   -0.9293 C.ar      1 <0>        -0.0973
     13 C11        -0.0295    1.0898   -0.1892 C.ar      1 <0>        -0.0884
     14 C12         0.8889    1.7694    0.5895 C.ar      1 <0>        -0.1623
     15 C13         0.8817    3.1503    0.6217 C.ar      1 <0>        -0.0727
     16 C14         1.9025    1.0029    1.3995 C.3       1 <0>         0.5089
     17 F1          1.7164   -0.3694    1.2014 F         1 <0>        -0.1757
     18 F2          3.1921    1.3620    0.9932 F         1 <0>        -0.1730
     19 F3          1.7400    1.3045    2.7559 F         1 <0>        -0.1759
     20 N2          3.4759    7.4713    0.1258 N.pl3     1 <0>        -0.7210
     21 C15         4.7169    8.2416    0.0138 C.3       1 <0>         0.1559
     22 C16         5.8862    7.2972   -0.0958 C.ar      1 <0>        -0.0632
     23 C17         6.5494    6.8542    1.0384 C.ar      1 <0>        -0.1534
     24 C18         7.6149    5.9851    0.8991 C.ar      1 <0>         0.1000
     25 N3          8.0078    5.5855   -0.2946 N.ar      1 <0>        -0.4783
     26 C19         7.4038    5.9899   -1.3949 C.ar      1 <0>         0.0998
     27 C20         6.3280    6.8554   -1.3335 C.ar      1 <0>        -0.1530
     28 H1         -1.1189    9.9652    0.5652 H         1 <0>         0.1274
     29 H2          0.9869   11.2356    0.6089 H         1 <0>         0.1286
     30 H3          3.1413   10.0762    0.3984 H         1 <0>         0.1298
     31 H4         -1.0880    7.5233    0.3121 H         1 <0>         0.1236
     32 H5         -0.9115    5.7322   -0.1606 H         1 <0>         0.4152
     33 H6         -1.7129    3.7154   -1.4748 H         1 <0>         0.1372
     34 H7         -1.6842    1.2554   -1.5330 H         1 <0>         0.1417
     35 H8         -0.0189    0.0102   -0.2161 H         1 <0>         0.1414
     36 H9          1.6021    3.6807    1.2267 H         1 <0>         0.1454
     37 H10         3.5047    6.5017    0.1208 H         1 <0>         0.4213
     38 H11         4.6744    8.8719   -0.8745 H         1 <0>         0.0766
     39 H12         4.8371    8.8676    0.8980 H         1 <0>         0.0767
     40 H13         6.2351    7.1814    2.0184 H         1 <0>         0.1367
     41 H14         8.1346    5.6327    1.7777 H         1 <0>         0.1589
     42 H15         7.7541    5.6411   -2.3551 H         1 <0>         0.1586
     43 H16         5.8380    7.1836   -2.2382 H         1 <0>         0.1361
@<TRIPOS>BOND
     1    1    6 ar
     2    1    2 ar
     3    1   28 1
     4    2    3 ar
     5    2   29 1
     6    3    4 ar
     7    3   30 1
     8    4    5 ar
     9    4   20 1
    10    5    6 ar
    11    5    7 1
    12    6   31 1
    13    7    8 2
    14    7    9 am
    15    9   10 1
    16    9   32 1
    17   10   15 ar
    18   10   11 ar
    19   11   12 ar
    20   11   33 1
    21   12   13 ar
    22   12   34 1
    23   13   14 ar
    24   13   35 1
    25   14   15 ar
    26   14   16 1
    27   15   36 1
    28   16   17 1
    29   16   18 1
    30   16   19 1
    31   20   21 1
    32   20   37 1
    33   21   22 1
    34   21   38 1
    35   21   39 1
    36   22   27 ar
    37   22   23 ar
    38   23   24 ar
    39   23   40 1
    40   24   25 ar
    41   24   41 1
    42   25   26 ar
    43   26   27 ar
    44   26   42 1
    45   27   43 1
@<TRIPOS>MOLECULE
ZINC03814434
   62    69     0     0     0
SMALL
USER_CHARGES

@<TRIPOS>ATOM
      1 C1         -0.1295    1.5952   -0.2973 C.3       1 <0>        -0.1687
      2 C2         -0.0862    0.0696   -0.1900 C.3       1 <0>         0.3342
      3 C3          0.5692   -0.4501   -1.4637 C.3       1 <0>         0.0405
      4 H1          1.4796    0.1159   -1.6612 H         1 <0>         0.1372
      5 C4          0.9167   -1.9328   -1.2889 C.3       1 <0>        -0.0061
      6 H2          1.3963   -2.3075   -2.1932 H         1 <0>         0.1555
      7 C5          1.8785   -2.0596   -0.1021 C.3       1 <0>        -0.1827
      8 C6          1.2061   -1.5198    1.1541 C.3       1 <0>         0.2999
      9 H3          1.9797   -1.4243    1.9161 H         1 <0>         0.1550
     10 O1          0.6555   -0.2442    0.9666 O.3       1 <0>        -0.3234
     11 N1          0.2189   -2.4746    1.6600 N.pl3     1 <0>        -0.5366
     12 C7          0.4705   -3.5508    2.4739 C.ar      1 <0>         0.1469
     13 C8          1.6649   -4.0152    3.0240 C.ar      1 <0>        -0.1522
     14 C9          1.5948   -5.1456    3.8201 C.ar      1 <0>        -0.0582
     15 C10         0.4006   -5.7997    4.0696 C.ar      1 <0>        -0.1457
     16 C11        -0.7984   -5.3597    3.5358 C.ar      1 <0>        -0.0280
     17 C12        -0.7487   -4.2198    2.7307 C.ar      1 <0>        -0.1131
     18 C13        -1.7893   -3.4830    2.0197 C.ar      1 <0>         0.0276
     19 C14        -1.1442   -2.4197    1.3841 C.ar      1 <0>         0.0376
     20 C15        -1.8806   -1.5095    0.6175 C.ar      1 <0>         0.0894
     21 N2         -1.4718   -0.3951   -0.1095 N.pl3     1 <0>        -0.5183
     22 C16        -2.5611    0.1913   -0.7090 C.ar      1 <0>         0.1618
     23 C17        -2.6521    1.3277   -1.5118 C.ar      1 <0>        -0.1305
     24 C18        -3.9109    1.6745   -1.9733 C.ar      1 <0>        -0.0737
     25 C19        -5.0393    0.9368   -1.6616 C.ar      1 <0>        -0.1358
     26 C20        -4.9745   -0.1955   -0.8662 C.ar      1 <0>        -0.0503
     27 C21        -3.7147   -0.5596   -0.3919 C.ar      1 <0>        -0.1042
     28 C22        -3.2693   -1.6660    0.4845 C.ar      1 <0>        -0.0360
     29 C23        -3.9084   -2.7313    1.1102 C.ar      1 <0>        -0.0288
     30 C24        -3.1873   -3.6421    1.8754 C.ar      1 <0>        -0.1255
     31 C25        -4.1221   -4.6480    2.4030 C.2       1 <0>         0.5632
     32 O2         -3.8062   -5.5851    3.1110 O.2       1 <0>        -0.5106
     33 N3         -5.3744   -4.3851    1.9926 N.am      1 <0>        -0.7162
     34 C26        -5.3495   -3.1771    1.1601 C.3       1 <0>         0.1358
     35 N4         -0.3067   -2.7008   -1.0216 N.4       1 <0>        -0.5252
     36 C27         0.0145   -4.1336   -0.9773 C.3       1 <0>        -0.0497
     37 O3         -0.3340   -0.2979   -2.5607 O.3       1 <0>        -0.3614
     38 C28         0.3101   -0.0933   -3.8198 C.3       1 <0>         0.0162
     39 H4          0.8261    2.0094    0.0240 H         1 <0>         0.0984
     40 H5         -0.3202    1.8814   -1.3317 H         1 <0>         0.1036
     41 H6         -0.9255    1.9818    0.3392 H         1 <0>         0.0921
     42 H7          2.1370   -3.1081    0.0458 H         1 <0>         0.1233
     43 H8          2.7835   -1.4869   -0.3048 H         1 <0>         0.1455
     44 H9          2.6036   -3.5149    2.8368 H         1 <0>         0.1365
     45 H10         2.5026   -5.5304    4.2610 H         1 <0>         0.1359
     46 H11         0.4045   -6.6780    4.6980 H         1 <0>         0.1352
     47 H12        -1.7278   -5.8736    3.7323 H         1 <0>         0.1600
     48 H13        -1.7792    1.9122   -1.7624 H         1 <0>         0.1440
     49 H14        -4.0153    2.5500   -2.5970 H         1 <0>         0.1336
     50 H15        -5.9967    1.2527   -2.0488 H         1 <0>         0.1332
     51 H16        -5.8575   -0.7687   -0.6249 H         1 <0>         0.1415
     52 H17        -6.1628   -4.9065    2.2103 H         1 <0>         0.4348
     53 H18        -5.9671   -2.3994    1.6094 H         1 <0>         0.1115
     54 H19        -5.7060   -3.4063    0.1559 H         1 <0>         0.1103
     55 H20        -0.6958   -2.4158   -0.1353 H         1 <0>         0.4186
     56 H21         0.4349   -4.4415   -1.9347 H         1 <0>         0.1256
     57 H22         0.7403   -4.3189   -0.1854 H         1 <0>         0.1191
     58 H23        -0.8932   -4.7035   -0.7789 H         1 <0>         0.1256
     59 H24         0.9168    0.8112   -3.7748 H         1 <0>         0.0633
     60 H25         0.9482   -0.9479   -4.0446 H         1 <0>         0.0514
     61 H26        -0.4433    0.0130   -4.6003 H         1 <0>         0.1100
     62 H27        -0.9785   -2.5293   -1.7546 H         1 <0>         0.4274
@<TRIPOS>BOND
     1    1    2 1
     2    1   39 1
     3    1   40 1
     4    1   41 1
     5    2   10 1
     6    2   21 1
     7    2    3 1
     8    3    4 1
     9    3    5 1
    10    3   37 1
    11    5    6 1
    12    5    7 1
    13    5   35 1
    14    7    8 1
    15    7   42 1
    16    7   43 1
    17    8    9 1
    18    8   10 1
    19    8   11 1
    20   11   19 1
    21   11   12 1
    22   12   17 ar
    23   12   13 ar
    24   13   14 ar
    25   13   44 1
    26   14   15 ar
    27   14   45 1
    28   15   16 ar
    29   15   46 1
    30   16   17 ar
    31   16   47 1
    32   17   18 1
    33   18   30 ar
    34   18   19 ar
    35   19   20 ar
    36   20   28 ar
    37   20   21 1
    38   21   22 1
    39   22   27 ar
    40   22   23 ar
    41   23   24 ar
    42   23   48 1
    43   24   25 ar
    44   24   49 1
    45   25   26 ar
    46   25   50 1
    47   26   27 ar
    48   26   51 1
    49   27   28 1
    50   28   29 ar
    51   29   34 1
    52   29   30 ar
    53   30   31 1
    54   31   32 2
    55   31   33 am
    56   33   34 1
    57   33   52 1
    58   34   53 1
    59   34   54 1
    60   35   36 1
    61   35   55 1
    62   35   62 1
    63   36   56 1
    64   36   57 1
    65   36   58 1
    66   37   38 1
    67   38   59 1
    68   38   60 1
    69   38   61 1
@<TRIPOS>MOLECULE
ZINC19632618
   69    73     0     0     0
SMALL
USER_CHARGES

@<TRIPOS>ATOM
      1 C1         -0.1643    1.5374    0.2772 C.3       1 <0>        -0.1166
      2 C2          0.0708    0.1281   -0.2021 C.ar      1 <0>        -0.1228
      3 C3         -0.6192   -0.3521   -1.2987 C.ar      1 <0>        -0.0806
      4 C4         -0.4070   -1.6434   -1.7410 C.ar      1 <0>        -0.1294
      5 C5          0.5017   -2.4641   -1.0837 C.ar      1 <0>         0.1504
      6 C6          1.1965   -1.9850    0.0175 C.ar      1 <0>        -0.1394
      7 C7          0.9852   -0.6852    0.4558 C.ar      1 <0>         0.1826
      8 N1          1.6874   -0.1967    1.5617 N.pl3     1 <0>        -0.6314
      9 C8          2.1285   -1.0695    2.5429 C.ar      1 <0>         0.5659
     10 N2          1.7764   -2.3456    2.4776 N.ar      1 <0>        -0.5577
     11 C9          2.1776   -3.2107    3.3953 C.ar      1 <0>         0.1910
     12 C10         2.9764   -2.7714    4.4364 C.ar      1 <0>        -0.2706
     13 C11         3.3313   -1.4207    4.4789 C.ar      1 <0>         0.2697
     14 N3          2.8950   -0.6087    3.5185 N.ar      1 <0>        -0.5576
     15 C12         4.1856   -0.9008    5.5740 C.ar      1 <0>        -0.1200
     16 C13         4.4510    0.4679    5.6793 C.ar      1 <0>        -0.0267
     17 C14         5.2541    0.9026    6.7193 C.ar      1 <0>        -0.1772
     18 C15         5.7636   -0.0222    7.6129 C.ar      1 <0>         0.1192
     19 N4          5.4957   -1.3077    7.4879 N.ar      1 <0>        -0.4844
     20 C16         4.7320   -1.7677    6.5181 C.ar      1 <0>         0.1336
     21 N5          0.7153   -3.7716   -1.5315 N.am      1 <0>        -0.6649
     22 C17         0.7404   -4.0356   -2.8529 C.2       1 <0>         0.5545
     23 O1          0.4912   -3.1555   -3.6535 O.2       1 <0>        -0.5086
     24 C18         1.0709   -5.3955   -3.3287 C.ar      1 <0>        -0.1216
     25 C19         1.3519   -6.4100   -2.4119 C.ar      1 <0>        -0.0841
     26 C20         1.6592   -7.6771   -2.8626 C.ar      1 <0>        -0.1244
     27 C21         1.6892   -7.9435   -4.2200 C.ar      1 <0>        -0.0692
     28 C22         1.4117   -6.9425   -5.1341 C.ar      1 <0>        -0.0994
     29 C23         1.0978   -5.6724   -4.6966 C.ar      1 <0>        -0.0536
     30 C24         2.0262   -9.3299   -4.7050 C.3       1 <0>         0.0939
     31 N6          0.7933  -10.1196   -4.8258 N.3       1 <0>        -0.5345
     32 C25         0.1866  -10.3538   -3.5078 C.3       1 <0>         0.0185
     33 C26        -1.1228  -11.1262   -3.6823 C.3       1 <0>        -0.0025
     34 N7         -0.8513  -12.4061   -4.3498 N.4       1 <0>        -0.3884
     35 C27        -0.2685  -12.1554   -5.6746 C.3       1 <0>        -0.0024
     36 C28         1.0481  -11.3916   -5.5166 C.3       1 <0>         0.0250
     37 C29        -2.1059  -13.1551   -4.5009 C.3       1 <0>        -0.0460
     38 H1          0.5251    2.2130   -0.2290 H         1 <0>         0.0728
     39 H2         -1.1901    1.8307    0.0540 H         1 <0>         0.0743
     40 H3          0.0021    1.5877    1.3533 H         1 <0>         0.0627
     41 H4         -1.3262    0.2836   -1.8111 H         1 <0>         0.1320
     42 H5         -0.9481   -2.0158   -2.5982 H         1 <0>         0.1349
     43 H6          1.9030   -2.6209    0.5302 H         1 <0>         0.1479
     44 H7          1.8658    0.7534    1.6418 H         1 <0>         0.4260
     45 H8          1.8844   -4.2483    3.3325 H         1 <0>         0.1734
     46 H9          3.3172   -3.4566    5.1985 H         1 <0>         0.1507
     47 H10         4.0401    1.1680    4.9670 H         1 <0>         0.1466
     48 H11         5.4807    1.9525    6.8318 H         1 <0>         0.1437
     49 H12         6.3909    0.3135    8.4254 H         1 <0>         0.1633
     50 H13         4.5316   -2.8268    6.4514 H         1 <0>         0.1617
     51 H14         0.8453   -4.4884   -0.8911 H         1 <0>         0.4084
     52 H15         1.3291   -6.2032   -1.3521 H         1 <0>         0.1294
     53 H16         1.8771   -8.4627   -2.1544 H         1 <0>         0.1265
     54 H17         1.4372   -7.1570   -6.1922 H         1 <0>         0.1340
     55 H18         0.8770   -4.8931   -5.4110 H         1 <0>         0.1424
     56 H19         2.5135   -9.2661   -5.6779 H         1 <0>         0.1008
     57 H20         2.6973   -9.8107   -3.9933 H         1 <0>         0.0595
     58 H21         0.8718  -10.9344   -2.8900 H         1 <0>         0.0618
     59 H22        -0.0167   -9.3975   -3.0259 H         1 <0>         0.1265
     60 H23        -1.5673  -11.3133   -2.7048 H         1 <0>         0.1359
     61 H24        -1.8127  -10.5393   -4.2887 H         1 <0>         0.1379
     62 H25        -0.0795  -13.1056   -6.1741 H         1 <0>         0.1367
     63 H26        -0.9627  -11.5633   -6.2708 H         1 <0>         0.1381
     64 H27         1.4733  -11.1924   -6.5003 H         1 <0>         0.1253
     65 H28         1.7474  -11.9892   -4.9320 H         1 <0>         0.0621
     66 H29        -2.8061  -12.5737   -5.1008 H         1 <0>         0.1233
     67 H30        -1.9046  -14.1049   -4.9963 H         1 <0>         0.1246
     68 H31        -2.5379  -13.3423   -3.5179 H         1 <0>         0.1243
     69 H32        -0.2036  -12.9443   -3.7940 H         1 <0>         0.4222
@<TRIPOS>BOND
     1    1    2 1
     2    1   38 1
     3    1   39 1
     4    1   40 1
     5    2    7 ar
     6    2    3 ar
     7    3    4 ar
     8    3   41 1
     9    4    5 ar
    10    4   42 1
    11    5    6 ar
    12    5   21 1
    13    6    7 ar
    14    6   43 1
    15    7    8 1
    16    8    9 1
    17    8   44 1
    18    9   14 ar
    19    9   10 ar
    20   10   11 ar
    21   11   12 ar
    22   11   45 1
    23   12   13 ar
    24   12   46 1
    25   13   14 ar
    26   13   15 1
    27   15   20 ar
    28   15   16 ar
    29   16   17 ar
    30   16   47 1
    31   17   18 ar
    32   17   48 1
    33   18   19 ar
    34   18   49 1
    35   19   20 ar
    36   20   50 1
    37   21   22 am
    38   21   51 1
    39   22   23 2
    40   22   24 1
    41   24   29 ar
    42   24   25 ar
    43   25   26 ar
    44   25   52 1
    45   26   27 ar
    46   26   53 1
    47   27   28 ar
    48   27   30 1
    49   28   29 ar
    50   28   54 1
    51   29   55 1
    52   30   31 1
    53   30   56 1
    54   30   57 1
    55   31   36 1
    56   31   32 1
    57   32   33 1
    58   32   58 1
    59   32   59 1
    60   33   34 1
    61   33   60 1
    62   33   61 1
    63   34   35 1
    64   34   37 1
    65   34   69 1
    66   35   36 1
    67   35   62 1
    68   35   63 1
    69   36   64 1
    70   36   65 1
    71   37   66 1
    72   37   67 1
    73   37   68 1
@<TRIPOS>MOLECULE
ZINC19632618
   69    73     0     0     0
SMALL
USER_CHARGES

@<TRIPOS>ATOM
      1 C1         -0.1643    1.5374    0.2772 C.3       1 <0>        -0.1179
      2 C2          0.0708    0.1281   -0.2021 C.ar      1 <0>        -0.1195
      3 C3         -0.6192   -0.3521   -1.2987 C.ar      1 <0>        -0.0803
      4 C4         -0.4070   -1.6434   -1.7410 C.ar      1 <0>        -0.1287
      5 C5          0.5017   -2.4641   -1.0837 C.ar      1 <0>         0.1452
      6 C6          1.1965   -1.9850    0.0175 C.ar      1 <0>        -0.1374
      7 C7          0.9852   -0.6852    0.4558 C.ar      1 <0>         0.1839
      8 N1          1.6874   -0.1967    1.5617 N.pl3     1 <0>        -0.6318
      9 C8          2.1285   -1.0695    2.5429 C.ar      1 <0>         0.5654
     10 N2          1.7764   -2.3456    2.4776 N.ar      1 <0>        -0.5590
     11 C9          2.1776   -3.2107    3.3953 C.ar      1 <0>         0.1907
     12 C10         2.9764   -2.7714    4.4364 C.ar      1 <0>        -0.2695
     13 C11         3.3313   -1.4207    4.4789 C.ar      1 <0>         0.2707
     14 N3          2.8950   -0.6087    3.5185 N.ar      1 <0>        -0.5571
     15 C12         4.1856   -0.9008    5.5740 C.ar      1 <0>        -0.1213
     16 C13         4.4510    0.4679    5.6793 C.ar      1 <0>        -0.0264
     17 C14         5.2541    0.9026    6.7193 C.ar      1 <0>        -0.1772
     18 C15         5.7636   -0.0222    7.6129 C.ar      1 <0>         0.1201
     19 N4          5.4957   -1.3077    7.4879 N.ar      1 <0>        -0.4842
     20 C16         4.7320   -1.7677    6.5181 C.ar      1 <0>         0.1342
     21 N5          0.7153   -3.7716   -1.5315 N.am      1 <0>        -0.6603
     22 C17         0.7404   -4.0356   -2.8529 C.2       1 <0>         0.5491
     23 O1          0.4912   -3.1555   -3.6535 O.2       1 <0>        -0.5015
     24 C18         1.0709   -5.3955   -3.3287 C.ar      1 <0>        -0.0938
     25 C19         1.3519   -6.4100   -2.4119 C.ar      1 <0>        -0.0834
     26 C20         1.6592   -7.6771   -2.8626 C.ar      1 <0>        -0.1009
     27 C21         1.6892   -7.9435   -4.2200 C.ar      1 <0>        -0.1382
     28 C22         1.4117   -6.9425   -5.1341 C.ar      1 <0>        -0.0966
     29 C23         1.0978   -5.6724   -4.6966 C.ar      1 <0>        -0.0538
     30 C24         2.0262   -9.3299   -4.7050 C.3       1 <0>         0.0425
     31 N6          0.7933  -10.1196   -4.8258 N.4       1 <0>        -0.3856
     32 C25         0.1989  -10.3052   -3.4955 C.3       1 <0>        -0.0078
     33 C26        -1.0954  -11.1117   -3.6230 C.3       1 <0>         0.0256
     34 N7         -0.7986  -12.4159   -4.2323 N.3       1 <0>        -0.5431
     35 C27        -0.1799  -12.2456   -5.5546 C.3       1 <0>         0.0239
     36 C28         1.1068  -11.4297   -5.4112 C.3       1 <0>        -0.0024
     37 C29        -2.0090  -13.2436   -4.3201 C.3       1 <0>         0.0192
     38 H1          0.5251    2.2130   -0.2290 H         1 <0>         0.0738
     39 H2         -1.1901    1.8307    0.0540 H         1 <0>         0.0752
     40 H3          0.0021    1.5877    1.3533 H         1 <0>         0.0636
     41 H4         -1.3262    0.2836   -1.8111 H         1 <0>         0.1330
     42 H5         -0.9481   -2.0158   -2.5982 H         1 <0>         0.1345
     43 H6          1.9030   -2.6209    0.5302 H         1 <0>         0.1487
     44 H7          1.8658    0.7534    1.6418 H         1 <0>         0.4265
     45 H8          1.8844   -4.2483    3.3325 H         1 <0>         0.1737
     46 H9          3.3172   -3.4566    5.1985 H         1 <0>         0.1513
     47 H10         4.0401    1.1680    4.9670 H         1 <0>         0.1465
     48 H11         5.4807    1.9525    6.8318 H         1 <0>         0.1439
     49 H12         6.3909    0.3135    8.4254 H         1 <0>         0.1636
     50 H13         4.5316   -2.8268    6.4514 H         1 <0>         0.1618
     51 H14         0.8453   -4.4884   -0.8911 H         1 <0>         0.4091
     52 H15         1.3291   -6.2032   -1.3521 H         1 <0>         0.1399
     53 H16         1.8771   -8.4627   -2.1544 H         1 <0>         0.1405
     54 H17         1.4372   -7.1570   -6.1922 H         1 <0>         0.1409
     55 H18         0.8770   -4.8931   -5.4110 H         1 <0>         0.1513
     56 H19         2.5135   -9.2661   -5.6779 H         1 <0>         0.1411
     57 H20         2.6973   -9.8107   -3.9933 H         1 <0>         0.1402
     58 H21         0.8998  -10.8418   -2.8560 H         1 <0>         0.1385
     59 H22        -0.0212   -9.3320   -3.0568 H         1 <0>         0.1352
     60 H23        -1.5289  -11.2624   -2.6343 H         1 <0>         0.1235
     61 H24        -1.8016  -10.5690   -4.2513 H         1 <0>         0.0601
     62 H25         0.0544  -13.2235   -5.9751 H         1 <0>         0.1247
     63 H26        -0.8711  -11.7216   -6.2147 H         1 <0>         0.0606
     64 H27         1.5598  -11.2902   -6.3927 H         1 <0>         0.1372
     65 H28         1.8030  -11.9606   -4.7619 H         1 <0>         0.1392
     66 H29        -2.7542  -12.7340   -4.9308 H         1 <0>         0.0396
     67 H30        -1.7610  -14.2028   -4.7745 H         1 <0>         0.0842
     68 H31        -2.4099  -13.4082   -3.3199 H         1 <0>         0.0844
     69 H32         0.1396   -9.6332   -5.4209 H         1 <0>         0.4206
@<TRIPOS>BOND
     1    1    2 1
     2    1   38 1
     3    1   39 1
     4    1   40 1
     5    2    7 ar
     6    2    3 ar
     7    3    4 ar
     8    3   41 1
     9    4    5 ar
    10    4   42 1
    11    5    6 ar
    12    5   21 1
    13    6    7 ar
    14    6   43 1
    15    7    8 1
    16    8    9 1
    17    8   44 1
    18    9   14 ar
    19    9   10 ar
    20   10   11 ar
    21   11   12 ar
    22   11   45 1
    23   12   13 ar
    24   12   46 1
    25   13   14 ar
    26   13   15 1
    27   15   20 ar
    28   15   16 ar
    29   16   17 ar
    30   16   47 1
    31   17   18 ar
    32   17   48 1
    33   18   19 ar
    34   18   49 1
    35   19   20 ar
    36   20   50 1
    37   21   22 am
    38   21   51 1
    39   22   23 2
    40   22   24 1
    41   24   29 ar
    42   24   25 ar
    43   25   26 ar
    44   25   52 1
    45   26   27 ar
    46   26   53 1
    47   27   28 ar
    48   27   30 1
    49   28   29 ar
    50   28   54 1
    51   29   55 1
    52   30   31 1
    53   30   56 1
    54   30   57 1
    55   31   36 1
    56   31   32 1
    57   31   69 1
    58   32   33 1
    59   32   58 1
    60   32   59 1
    61   33   34 1
    62   33   60 1
    63   33   61 1
    64   34   35 1
    65   34   37 1
    66   35   36 1
    67   35   62 1
    68   35   63 1
    69   36   64 1
    70   36   65 1
    71   37   66 1
    72   37   67 1
    73   37   68 1
@<TRIPOS>MOLECULE
ZINC19632618
   68    72     0     0     0
SMALL
USER_CHARGES

@<TRIPOS>ATOM
      1 C1         -0.1643    1.5374    0.2772 C.3       1 <0>        -0.1139
      2 C2          0.0708    0.1281   -0.2021 C.ar      1 <0>        -0.1276
      3 C3         -0.6192   -0.3521   -1.2987 C.ar      1 <0>        -0.0809
      4 C4         -0.4070   -1.6434   -1.7410 C.ar      1 <0>        -0.1296
      5 C5          0.5017   -2.4641   -1.0837 C.ar      1 <0>         0.1575
      6 C6          1.1965   -1.9850    0.0175 C.ar      1 <0>        -0.1408
      7 C7          0.9852   -0.6852    0.4558 C.ar      1 <0>         0.1805
      8 N1          1.6874   -0.1967    1.5617 N.pl3     1 <0>        -0.6310
      9 C8          2.1285   -1.0695    2.5429 C.ar      1 <0>         0.5658
     10 N2          1.7764   -2.3456    2.4776 N.ar      1 <0>        -0.5548
     11 C9          2.1776   -3.2107    3.3953 C.ar      1 <0>         0.1930
     12 C10         2.9764   -2.7714    4.4364 C.ar      1 <0>        -0.2707
     13 C11         3.3313   -1.4207    4.4789 C.ar      1 <0>         0.2660
     14 N3          2.8950   -0.6087    3.5185 N.ar      1 <0>        -0.5591
     15 C12         4.1856   -0.9008    5.5740 C.ar      1 <0>        -0.1161
     16 C13         4.4510    0.4679    5.6793 C.ar      1 <0>        -0.0277
     17 C14         5.2541    0.9026    6.7193 C.ar      1 <0>        -0.1780
     18 C15         5.7636   -0.0222    7.6129 C.ar      1 <0>         0.1167
     19 N4          5.4957   -1.3077    7.4879 N.ar      1 <0>        -0.4846
     20 C16         4.7320   -1.7677    6.5181 C.ar      1 <0>         0.1331
     21 N5          0.7153   -3.7716   -1.5315 N.am      1 <0>        -0.6684
     22 C17         0.7404   -4.0356   -2.8529 C.2       1 <0>         0.5607
     23 O1          0.4912   -3.1555   -3.6535 O.2       1 <0>        -0.5149
     24 C18         1.0709   -5.3955   -3.3287 C.ar      1 <0>        -0.1367
     25 C19         1.3519   -6.4100   -2.4119 C.ar      1 <0>        -0.0845
     26 C20         1.6592   -7.6771   -2.8626 C.ar      1 <0>        -0.1214
     27 C21         1.6892   -7.9435   -4.2200 C.ar      1 <0>        -0.0481
     28 C22         1.4117   -6.9425   -5.1341 C.ar      1 <0>        -0.1045
     29 C23         1.0978   -5.6724   -4.6966 C.ar      1 <0>        -0.0549
     30 C24         2.0262   -9.3299   -4.7050 C.3       1 <0>         0.0887
     31 N6          0.7933  -10.1196   -4.8258 N.3       1 <0>        -0.5346
     32 C25         0.1854  -10.3517   -3.5082 C.3       1 <0>         0.0528
     33 C26        -1.1341  -11.1069   -3.6840 C.3       1 <0>         0.0560
     34 N7         -0.8794  -12.3787   -4.3748 N.3       1 <0>        -0.5467
     35 C27        -0.2715  -12.1466   -5.6924 C.3       1 <0>         0.0557
     36 C28         1.0481  -11.3914   -5.5165 C.3       1 <0>         0.0569
     37 C29        -2.1122  -13.1683   -4.4955 C.3       1 <0>         0.0243
     38 H1          0.5251    2.2130   -0.2290 H         1 <0>         0.0707
     39 H2         -1.1901    1.8307    0.0540 H         1 <0>         0.0727
     40 H3          0.0021    1.5877    1.3533 H         1 <0>         0.0612
     41 H4         -1.3262    0.2836   -1.8111 H         1 <0>         0.1306
     42 H5         -0.9481   -2.0158   -2.5982 H         1 <0>         0.1361
     43 H6          1.9030   -2.6209    0.5302 H         1 <0>         0.1478
     44 H7          1.8658    0.7534    1.6418 H         1 <0>         0.4247
     45 H8          1.8844   -4.2483    3.3325 H         1 <0>         0.1749
     46 H9          3.3172   -3.4566    5.1985 H         1 <0>         0.1504
     47 H10         4.0401    1.1680    4.9670 H         1 <0>         0.1465
     48 H11         5.4807    1.9525    6.8318 H         1 <0>         0.1424
     49 H12         6.3909    0.3135    8.4254 H         1 <0>         0.1620
     50 H13         4.5316   -2.8268    6.4514 H         1 <0>         0.1624
     51 H14         0.8453   -4.4884   -0.8911 H         1 <0>         0.4098
     52 H15         1.3291   -6.2032   -1.3521 H         1 <0>         0.1256
     53 H16         1.8771   -8.4627   -2.1544 H         1 <0>         0.1277
     54 H17         1.4372   -7.1570   -6.1922 H         1 <0>         0.1323
     55 H18         0.8770   -4.8931   -5.4110 H         1 <0>         0.1380
     56 H19         2.5135   -9.2661   -5.6779 H         1 <0>         0.0885
     57 H20         2.6973   -9.8107   -3.9933 H         1 <0>         0.0490
     58 H21         0.8640  -10.9435   -2.8938 H         1 <0>         0.0436
     59 H22        -0.0051   -9.3950   -3.0219 H         1 <0>         0.0840
     60 H23        -1.5725  -11.3056   -2.7060 H         1 <0>         0.0799
     61 H24        -1.8225  -10.5033   -4.2756 H         1 <0>         0.0432
     62 H25        -0.0810  -13.1033   -6.1787 H         1 <0>         0.0811
     63 H26        -0.9501  -11.5548   -6.3068 H         1 <0>         0.0437
     64 H27         1.4864  -11.1926   -6.4945 H         1 <0>         0.0821
     65 H28         1.7364  -11.9950   -4.9250 H         1 <0>         0.0450
     66 H29        -2.8511  -12.6037   -5.0641 H         1 <0>         0.0271
     67 H30        -1.8953  -14.1043   -5.0104 H         1 <0>         0.0693
     68 H31        -2.5051  -13.3830   -3.5017 H         1 <0>         0.0693
@<TRIPOS>BOND
     1    1    2 1
     2    1   38 1
     3    1   39 1
     4    1   40 1
     5    2    7 ar
     6    2    3 ar
     7    3    4 ar
     8    3   41 1
     9    4    5 ar
    10    4   42 1
    11    5    6 ar
    12    5   21 1
    13    6    7 ar
    14    6   43 1
    15    7    8 1
    16    8    9 1
    17    8   44 1
    18    9   14 ar
    19    9   10 ar
    20   10   11 ar
    21   11   12 ar
    22   11   45 1
    23   12   13 ar
    24   12   46 1
    25   13   14 ar
    26   13   15 1
    27   15   20 ar
    28   15   16 ar
    29   16   17 ar
    30   16   47 1
    31   17   18 ar
    32   17   48 1
    33   18   19 ar
    34   18   49 1
    35   19   20 ar
    36   20   50 1
    37   21   22 am
    38   21   51 1
    39   22   23 2
    40   22   24 1
    41   24   29 ar
    42   24   25 ar
    43   25   26 ar
    44   25   52 1
    45   26   27 ar
    46   26   53 1
    47   27   28 ar
    48   27   30 1
    49   28   29 ar
    50   28   54 1
    51   29   55 1
    52   30   31 1
    53   30   56 1
    54   30   57 1
    55   31   36 1
    56   31   32 1
    57   32   33 1
    58   32   58 1
    59   32   59 1
    60   33   34 1
    61   33   60 1
    62   33   61 1
    63   34   35 1
    64   34   37 1
    65   35   36 1
    66   35   62 1
    67   35   63 1
    68   36   64 1
    69   36   65 1
    70   37   66 1
    71   37   67 1
    72   37   68 1
@<TRIPOS>MOLECULE
ZINC01609260
   36    39     0     0     0
SMALL
USER_CHARGES
7,9-diphenyl-2,4,9-triazabicyclo[4.3.0]nona-1,3,5,7-tetraen-5-amine
@<TRIPOS>ATOM
      1 C1         -0.8018   -5.5010   -0.0193 C.ar      1 <0>        -0.1197
      2 C2          0.2183   -5.3887   -0.9469 C.ar      1 <0>        -0.1112
      3 C3          1.0287   -4.2719   -0.9536 C.ar      1 <0>        -0.1080
      4 C4          0.8181   -3.2556   -0.0226 C.ar      1 <0>        -0.0116
      5 C5         -0.2077   -3.3771    0.9139 C.ar      1 <0>        -0.1264
      6 C6         -1.0156   -4.4958    0.9069 C.ar      1 <0>        -0.1125
      7 C7          1.6851   -2.0534   -0.0246 C.2       1 <0>        -0.0946
      8 C8          3.0408   -2.0315   -0.0372 C.2       1 <0>         0.0606
      9 N1          3.4801   -0.7343   -0.0347 N.pl3     1 <0>        -0.4086
     10 C9          2.4135    0.1274   -0.0203 C.ar      1 <0>         0.3514
     11 C10         1.2440   -0.6524   -0.0133 C.ar      1 <0>        -0.2510
     12 C11         0.0021   -0.0041    0.0020 C.ar      1 <0>         0.4945
     13 N2         -0.0160    1.3262    0.0093 N.ar      1 <0>        -0.5987
     14 C12         1.1067    2.0214    0.0023 C.ar      1 <0>         0.3635
     15 N3          2.2936    1.4540   -0.0124 N.ar      1 <0>        -0.5643
     16 N4         -1.1762   -0.7291    0.0089 N.pl3     1 <0>        -0.8301
     17 C13         4.8254   -0.3439   -0.0444 C.ar      1 <0>         0.1198
     18 C14         5.2714    0.5924   -0.9676 C.ar      1 <0>        -0.0990
     19 C15         6.5970    0.9802   -0.9703 C.ar      1 <0>        -0.1026
     20 C16         7.4824    0.4276   -0.0631 C.ar      1 <0>        -0.1139
     21 C17         7.0425   -0.5097    0.8535 C.ar      1 <0>        -0.1045
     22 C18         5.7168   -0.8967    0.8656 C.ar      1 <0>        -0.1183
     23 H1         -1.4340   -6.3766   -0.0183 H         1 <0>         0.1248
     24 H2          0.3805   -6.1766   -1.6676 H         1 <0>         0.1262
     25 H3          1.8243   -4.1850   -1.6787 H         1 <0>         0.1252
     26 H4         -0.3724   -2.5952    1.6404 H         1 <0>         0.1246
     27 H5         -1.8133   -4.5891    1.6290 H         1 <0>         0.1266
     28 H6          3.6772   -2.9041   -0.0473 H         1 <0>         0.1819
     29 H7          1.0482    3.0998    0.0083 H         1 <0>         0.2016
     30 H8         -2.0294   -0.2679    0.0192 H         1 <0>         0.4080
     31 H9         -1.1490   -1.6987    0.0035 H         1 <0>         0.4124
     32 H10         4.5815    1.0209   -1.6795 H         1 <0>         0.1292
     33 H11         6.9435    1.7123   -1.6847 H         1 <0>         0.1327
     34 H12         8.5195    0.7288   -0.0703 H         1 <0>         0.1301
     35 H13         7.7363   -0.9393    1.5610 H         1 <0>         0.1326
     36 H14         5.3736   -1.6282    1.5822 H         1 <0>         0.1292
@<TRIPOS>BOND
     1    1    6 ar
     2    1    2 ar
     3    1   23 1
     4    2    3 ar
     5    2   24 1
     6    3    4 ar
     7    3   25 1
     8    4    5 ar
     9    4    7 1
    10    5    6 ar
    11    5   26 1
    12    6   27 1
    13    7   11 1
    14    7    8 2
    15    8    9 1
    16    8   28 1
    17    9   10 1
    18    9   17 1
    19   10   15 ar
    20   10   11 ar
    21   11   12 ar
    22   12   13 ar
    23   12   16 1
    24   13   14 ar
    25   14   15 ar
    26   14   29 1
    27   16   30 1
    28   16   31 1
    29   17   22 ar
    30   17   18 ar
    31   18   19 ar
    32   18   32 1
    33   19   20 ar
    34   19   33 1
    35   20   21 ar
    36   20   34 1
    37   21   22 ar
    38   21   35 1
    39   22   36 1
@<TRIPOS>MOLECULE
ZINC22063639
   51    54     0     0     0
SMALL
USER_CHARGES
4-(chloromethyl)-N-[4-methyl-3-[[4-(3-pyridyl)pyrimidin-2-yl]amino]phenyl]benzamide
@<TRIPOS>ATOM
      1 C1          4.4030    4.1054    0.0288 C.3       1 <0>        -0.1127
      2 C2          3.0731    3.3967    0.0222 C.ar      1 <0>        -0.1382
      3 C3          3.0202    2.0304   -0.1769 C.ar      1 <0>        -0.0756
      4 C4          1.8036    1.3761   -0.1776 C.ar      1 <0>        -0.1472
      5 C5          0.6275    2.0924    0.0098 C.ar      1 <0>         0.1689
      6 C6          0.6771    3.4644    0.2096 C.ar      1 <0>        -0.1571
      7 C7          1.9015    4.1179    0.2158 C.ar      1 <0>         0.1918
      8 N1          1.9558    5.5005    0.4163 N.pl3     1 <0>        -0.6429
      9 C8          0.8615    6.2896    0.1016 C.ar      1 <0>         0.5681
     10 N2         -0.1777    5.7384   -0.5091 N.ar      1 <0>        -0.5557
     11 C9         -1.2418    6.4584   -0.8265 C.ar      1 <0>         0.1929
     12 C10        -1.2649    7.8063   -0.5140 C.ar      1 <0>        -0.2734
     13 C11        -0.1550    8.3594    0.1298 C.ar      1 <0>         0.2659
     14 N3          0.8784    7.5733    0.4233 N.ar      1 <0>        -0.5603
     15 C12        -0.1313    9.7987    0.4864 C.ar      1 <0>        -0.1156
     16 C13         0.9790   10.3529    1.1306 C.ar      1 <0>        -0.0278
     17 C14         0.9518   11.7012    1.4420 C.ar      1 <0>        -0.1783
     18 C15        -0.1623   12.4502    1.1091 C.ar      1 <0>         0.1162
     19 N4         -1.1953   11.8994    0.5013 N.ar      1 <0>        -0.4848
     20 C16        -1.2128   10.6220    0.1798 C.ar      1 <0>         0.1327
     21 N5         -0.6041    1.4301    0.0028 N.am      1 <0>        -0.6756
     22 C17        -0.7538    0.2931   -0.7053 C.2       1 <0>         0.5603
     23 O1          0.1506   -0.1059   -1.4128 O.2       1 <0>        -0.5143
     24 C18        -2.0177   -0.4688   -0.6215 C.ar      1 <0>        -0.1253
     25 C19        -3.0561   -0.0165    0.1945 C.ar      1 <0>        -0.0852
     26 C20        -4.2350   -0.7295    0.2641 C.ar      1 <0>        -0.1056
     27 C21        -4.3852   -1.8966   -0.4637 C.ar      1 <0>        -0.0800
     28 C22        -3.3580   -2.3532   -1.2704 C.ar      1 <0>        -0.1051
     29 C23        -2.1760   -1.6467   -1.3535 C.ar      1 <0>        -0.0569
     30 C24        -5.6736   -2.6736   -0.3779 C.3       1 <0>        -0.0021
     31 Cl1        -5.5614   -3.8775    0.9596 Cl        1 <0>        -0.1679
     32 H1          5.2084    3.3752   -0.1390 H         1 <0>         0.0713
     33 H2          4.5512    4.5978    1.0012 H         1 <0>         0.0649
     34 H3          4.4201    4.8605   -0.7710 H         1 <0>         0.0662
     35 H4          3.9323    1.4721   -0.3272 H         1 <0>         0.1286
     36 H5          1.7660    0.3073   -0.3283 H         1 <0>         0.1394
     37 H6         -0.2351    4.0227    0.3602 H         1 <0>         0.1508
     38 H7          2.8674    5.9618    0.8239 H         1 <0>         0.4492
     39 H8         -2.0829    5.9991   -1.3244 H         1 <0>         0.1732
     40 H9         -2.1207    8.4165   -0.7621 H         1 <0>         0.1493
     41 H10         1.8358    9.7443    1.3792 H         1 <0>         0.1467
     42 H11         1.7917   12.1635    1.9392 H         1 <0>         0.1423
     43 H12        -0.1867   13.5027    1.3503 H         1 <0>         0.1618
     44 H13        -2.0752   10.2082   -0.3217 H         1 <0>         0.1623
     45 H14        -1.4507    1.8371    0.5752 H         1 <0>         0.4308
     46 H15        -2.9383    0.8918    0.7669 H         1 <0>         0.1291
     47 H16        -5.0410   -0.3782    0.8913 H         1 <0>         0.1338
     48 H17        -3.4819   -3.2646   -1.8365 H         1 <0>         0.1349
     49 H18        -1.3751   -2.0041   -1.9838 H         1 <0>         0.1413
     50 H19        -6.5061   -1.9824   -0.1802 H         1 <0>         0.1072
     51 H20        -5.8499   -3.1974   -1.3290 H         1 <0>         0.1075
@<TRIPOS>BOND
     1    1    2 1
     2    1   32 1
     3    1   33 1
     4    1   34 1
     5    2    7 ar
     6    2    3 ar
     7    3    4 ar
     8    3   35 1
     9    4    5 ar
    10    4   36 1
    11    5    6 ar
    12    5   21 1
    13    6    7 ar
    14    6   37 1
    15    7    8 1
    16    8    9 1
    17    8   38 1
    18    9   14 ar
    19    9   10 ar
    20   10   11 ar
    21   11   12 ar
    22   11   39 1
    23   12   13 ar
    24   12   40 1
    25   13   14 ar
    26   13   15 1
    27   15   20 ar
    28   15   16 ar
    29   16   17 ar
    30   16   41 1
    31   17   18 ar
    32   17   42 1
    33   18   19 ar
    34   18   43 1
    35   19   20 ar
    36   20   44 1
    37   21   22 am
    38   21   45 1
    39   22   23 2
    40   22   24 1
    41   24   29 ar
    42   24   25 ar
    43   25   26 ar
    44   25   46 1
    45   26   27 ar
    46   26   47 1
    47   27   28 ar
    48   27   30 1
    49   28   29 ar
    50   28   48 1
    51   29   49 1
    52   30   31 1
    53   30   50 1
    54   30   51 1
@<TRIPOS>MOLECULE
ZINC01609268
   40    43     0     0     0
SMALL
USER_CHARGES
7-(4-methoxyphenyl)-9-phenyl-2,4,9-triazabicyclo[4.3.0]nona-1,3,5,7-tetraen-5-amine
@<TRIPOS>ATOM
      1 C1         -2.6307   -6.6583    0.9712 C.3       1 <0>         0.0252
      2 O1         -1.5977   -6.6056   -0.0148 O.3       1 <0>        -0.3158
      3 C2         -0.8031   -5.5028   -0.0177 C.ar      1 <0>         0.1292
      4 C3          0.2194   -5.3885   -0.9494 C.ar      1 <0>        -0.1432
      5 C4          1.0281   -4.2712   -0.9546 C.ar      1 <0>        -0.0662
      6 C5          0.8172   -3.2556   -0.0228 C.ar      1 <0>        -0.0504
      7 C6         -0.2077   -3.3758    0.9148 C.ar      1 <0>        -0.0839
      8 C7         -1.0158   -4.4936    0.9113 C.ar      1 <0>        -0.2017
      9 C8          1.6848   -2.0534   -0.0251 C.2       1 <0>        -0.0869
     10 C9          3.0402   -2.0322   -0.0379 C.2       1 <0>         0.0571
     11 N1          3.4801   -0.7341   -0.0351 N.pl3     1 <0>        -0.4090
     12 C10         2.4136    0.1274   -0.0203 C.ar      1 <0>         0.3514
     13 C11         1.2440   -0.6525   -0.0133 C.ar      1 <0>        -0.2518
     14 C12         0.0021   -0.0041    0.0020 C.ar      1 <0>         0.4942
     15 N2         -0.0160    1.3262    0.0093 N.ar      1 <0>        -0.5991
     16 C13         1.1068    2.0215    0.0023 C.ar      1 <0>         0.3631
     17 N3          2.2937    1.4541   -0.0120 N.ar      1 <0>        -0.5643
     18 N4         -1.1762   -0.7291    0.0089 N.pl3     1 <0>        -0.8306
     19 C14         4.8253   -0.3438   -0.0458 C.ar      1 <0>         0.1205
     20 C15         5.2708    0.5925   -0.9694 C.ar      1 <0>        -0.0992
     21 C16         6.5967    0.9791   -0.9740 C.ar      1 <0>        -0.1027
     22 C17         7.4827    0.4266   -0.0674 C.ar      1 <0>        -0.1141
     23 C18         7.0434   -0.5103    0.8499 C.ar      1 <0>        -0.1046
     24 C19         5.7175   -0.8968    0.8633 C.ar      1 <0>        -0.1184
     25 H1         -2.1864   -6.6147    1.9656 H         1 <0>         0.0571
     26 H2         -3.3046   -5.8121    0.8369 H         1 <0>         0.0569
     27 H3         -3.1890   -7.5882    0.8631 H         1 <0>         0.1022
     28 H4          0.3822   -6.1755   -1.6709 H         1 <0>         0.1354
     29 H5          1.8239   -4.1832   -1.6793 H         1 <0>         0.1334
     30 H6         -0.3709   -2.5930    1.6407 H         1 <0>         0.1279
     31 H7         -1.8125   -4.5855    1.6347 H         1 <0>         0.1325
     32 H8          3.6763   -2.9049   -0.0481 H         1 <0>         0.1818
     33 H9          1.0482    3.0998    0.0087 H         1 <0>         0.2011
     34 H10        -2.0294   -0.2678    0.0192 H         1 <0>         0.4077
     35 H11        -1.1490   -1.6987    0.0035 H         1 <0>         0.4118
     36 H12         4.5802    1.0214   -1.6805 H         1 <0>         0.1292
     37 H13         6.9428    1.7107   -1.6892 H         1 <0>         0.1325
     38 H14         8.5198    0.7278   -0.0755 H         1 <0>         0.1299
     39 H15         7.7377   -0.9401    1.5567 H         1 <0>         0.1324
     40 H16         5.3748   -1.6281    1.5804 H         1 <0>         0.1292
@<TRIPOS>BOND
     1    1    2 1
     2    1   25 1
     3    1   26 1
     4    1   27 1
     5    2    3 1
     6    3    8 ar
     7    3    4 ar
     8    4    5 ar
     9    4   28 1
    10    5    6 ar
    11    5   29 1
    12    6    7 ar
    13    6    9 1
    14    7    8 ar
    15    7   30 1
    16    8   31 1
    17    9   13 1
    18    9   10 2
    19   10   11 1
    20   10   32 1
    21   11   12 1
    22   11   19 1
    23   12   17 ar
    24   12   13 ar
    25   13   14 ar
    26   14   15 ar
    27   14   18 1
    28   15   16 ar
    29   16   17 ar
    30   16   33 1
    31   18   34 1
    32   18   35 1
    33   19   24 ar
    34   19   20 ar
    35   20   21 ar
    36   20   36 1
    37   21   22 ar
    38   21   37 1
    39   22   23 ar
    40   22   38 1
    41   23   24 ar
    42   23   39 1
    43   24   40 1
@<TRIPOS>MOLECULE
ZINC34842284
   60    64     0     0     0
SMALL
USER_CHARGES

@<TRIPOS>ATOM
      1 C1         -0.0178    1.4608    0.0101 C.3       1 <0>         0.0965
      2 N1          0.0021   -0.0041    0.0020 N.pl3     1 <0>        -0.3671
      3 C2          0.0078   -0.7883   -1.0945 C.2       1 <0>         0.0815
      4 C3          0.0278   -2.0866   -0.6734 C.2       1 <0>        -0.2075
      5 C4          0.0343   -2.0758    0.7354 C.2       1 <0>         0.0682
      6 N2          0.0245   -0.8308    1.1317 N.2       1 <0>        -0.2890
      7 C5          0.0397   -3.2901   -1.5414 C.ar      1 <0>        -0.0366
      8 C6          0.0543   -4.5644   -0.9807 C.ar      1 <0>        -0.0385
      9 C7          0.0802   -5.6649   -1.8426 C.ar      1 <0>        -0.1799
     10 C8          0.1229   -5.4562   -3.2387 C.ar      1 <0>         0.1790
     11 C9          0.2532   -6.5705   -4.1609 C.2       1 <0>        -0.0928
     12 C10        -0.3414   -7.7510   -4.0859 C.2       1 <0>        -0.0827
     13 C11        -1.2649   -8.2108   -3.0641 C.ar      1 <0>        -0.0205
     14 C12        -2.3865   -8.9737   -3.4314 C.ar      1 <0>        -0.0788
     15 C13        -3.2359   -9.4502   -2.4792 C.ar      1 <0>        -0.1379
     16 C14        -3.0081   -9.1944   -1.1257 C.ar      1 <0>         0.1494
     17 C15        -1.9219   -8.4304   -0.7344 C.ar      1 <0>        -0.0939
     18 C16        -1.0553   -7.9152   -1.6995 C.ar      1 <0>        -0.1193
     19 C17         0.0500   -7.0298   -1.2992 C.2       1 <0>         0.4578
     20 O1          0.9175   -7.4185   -0.5376 O.2       1 <0>        -0.4210
     21 N3         -3.8773   -9.7097   -0.1653 N.pl3     1 <0>        -1.0655
     22 S1         -4.3812  -11.2840   -0.2641 S.o2      1 <0>         2.7793
     23 O2         -5.2247  -11.5116    0.8566 O.2       1 <0>        -0.9610
     24 O3         -4.8189  -11.4872   -1.6007 O.2       1 <0>        -0.9643
     25 N4         -3.0455  -12.2399   -0.0531 N.pl3     1 <0>        -0.9947
     26 C18        -2.6613  -12.6751    1.2920 C.3       1 <0>         0.0938
     27 C19        -2.2480  -12.6502   -1.2115 C.3       1 <0>         0.1210
     28 C20        -1.0763  -11.6831   -1.3923 C.3       1 <0>         0.0178
     29 H1         -1.4536  -10.6631   -1.4645 H         1 <0>         0.0816
     30 C21        -0.3126  -12.0380   -2.6715 C.3       1 <0>         0.0320
     31 O4          0.8442  -11.2023   -2.7746 O.3       1 <0>        -0.3693
     32 C22         1.7288  -11.3082   -1.6551 C.3       1 <0>         0.0253
     33 C23         0.9651  -10.9534   -0.3760 C.3       1 <0>         0.0211
     34 O5         -0.1924  -11.7879   -0.2721 O.3       1 <0>        -0.3671
     35 N5          0.0651   -4.2087   -3.7198 N.ar      1 <0>        -0.4628
     36 C24         0.0305   -3.1599   -2.9350 C.ar      1 <0>         0.1258
     37 H2          1.0048    1.8381    0.0023 H         1 <0>         0.0802
     38 H3         -0.5450    1.8219   -0.8730 H         1 <0>         0.0921
     39 H4         -0.5280    1.8123    0.9069 H         1 <0>         0.0936
     40 H5         -0.0021   -0.4506   -2.1203 H         1 <0>         0.1820
     41 H6          0.0494   -2.9451    1.3761 H         1 <0>         0.1866
     42 H7          0.0463   -4.6991    0.0909 H         1 <0>         0.1426
     43 H8          0.9100   -6.4187   -5.0047 H         1 <0>         0.1374
     44 H9         -0.1138   -8.4521   -4.8752 H         1 <0>         0.1386
     45 H10        -2.5760   -9.1830   -4.4738 H         1 <0>         0.1447
     46 H11        -4.0961  -10.0325   -2.7747 H         1 <0>         0.1659
     47 H12        -1.7458   -8.2343    0.3129 H         1 <0>         0.1371
     48 H13        -4.1869   -9.1460    0.5609 H         1 <0>         0.4277
     49 H14        -3.1500  -13.6222    1.5208 H         1 <0>         0.0607
     50 H15        -1.5799  -12.8040    1.3372 H         1 <0>         0.0884
     51 H16        -2.9683  -11.9229    2.0187 H         1 <0>         0.0679
     52 H17        -1.8656  -13.6582   -1.0506 H         1 <0>         0.0981
     53 H18        -2.8717  -12.6365   -2.1052 H         1 <0>         0.1107
     54 H19        -0.0048  -13.0830   -2.6340 H         1 <0>         0.0632
     55 H20        -0.9562  -11.8775   -3.5364 H         1 <0>         0.1055
     56 H21         2.1052  -12.3286   -1.5835 H         1 <0>         0.0597
     57 H22         2.5636  -10.6192   -1.7840 H         1 <0>         0.1035
     58 H23         1.6087  -11.1138    0.4889 H         1 <0>         0.1029
     59 H24         0.6574   -9.9084   -0.4134 H         1 <0>         0.0696
     60 H25        -0.0017   -2.1732   -3.3730 H         1 <0>         0.1615
@<TRIPOS>BOND
     1    1    2 1
     2    1   37 1
     3    1   38 1
     4    1   39 1
     5    2    6 1
     6    2    3 1
     7    3    4 2
     8    3   40 1
     9    4    5 1
    10    4    7 1
    11    5    6 2
    12    5   41 1
    13    7   36 ar
    14    7    8 ar
    15    8    9 ar
    16    8   42 1
    17    9   19 1
    18    9   10 ar
    19   10   11 1
    20   10   35 ar
    21   11   12 2
    22   11   43 1
    23   12   13 1
    24   12   44 1
    25   13   18 ar
    26   13   14 ar
    27   14   15 ar
    28   14   45 1
    29   15   16 ar
    30   15   46 1
    31   16   17 ar
    32   16   21 1
    33   17   18 ar
    34   17   47 1
    35   18   19 1
    36   19   20 2
    37   21   22 1
    38   21   48 1
    39   22   23 2
    40   22   24 2
    41   22   25 1
    42   25   26 1
    43   25   27 1
    44   26   49 1
    45   26   50 1
    46   26   51 1
    47   27   28 1
    48   27   52 1
    49   27   53 1
    50   28   29 1
    51   28   34 1
    52   28   30 1
    53   30   31 1
    54   30   54 1
    55   30   55 1
    56   31   32 1
    57   32   33 1
    58   32   56 1
    59   32   57 1
    60   33   34 1
    61   33   58 1
    62   33   59 1
    63   35   36 ar
    64   36   60 1
@<TRIPOS>MOLECULE
ZINC34842284
   59    63     0     0     0
SMALL
USER_CHARGES

@<TRIPOS>ATOM
      1 C1         -0.0178    1.4608    0.0101 C.3       1 <0>         0.1007
      2 N1          0.0021   -0.0041    0.0020 N.pl3     1 <0>        -0.3736
      3 C2          0.0078   -0.7883   -1.0945 C.2       1 <0>         0.0703
      4 C3          0.0278   -2.0866   -0.6734 C.2       1 <0>        -0.1902
      5 C4          0.0343   -2.0758    0.7354 C.2       1 <0>         0.0673
      6 N2          0.0245   -0.8308    1.1317 N.2       1 <0>        -0.2943
      7 C5          0.0397   -3.2901   -1.5414 C.ar      1 <0>        -0.0608
      8 C6          0.0543   -4.5644   -0.9807 C.ar      1 <0>        -0.0333
      9 C7          0.0802   -5.6649   -1.8426 C.ar      1 <0>        -0.1792
     10 C8          0.1229   -5.4562   -3.2387 C.ar      1 <0>         0.2045
     11 C9          0.2532   -6.5705   -4.1609 C.2       1 <0>        -0.1592
     12 C10        -0.3414   -7.7510   -4.0859 C.2       1 <0>        -0.0231
     13 C11        -1.2649   -8.2108   -3.0641 C.ar      1 <0>        -0.1647
     14 C12        -2.3865   -8.9737   -3.4314 C.ar      1 <0>        -0.0353
     15 C13        -3.2359   -9.4502   -2.4792 C.ar      1 <0>        -0.2465
     16 C14        -3.0081   -9.1944   -1.1257 C.ar      1 <0>         0.3005
     17 C15        -1.9219   -8.4304   -0.7344 C.ar      1 <0>        -0.1500
     18 C16        -1.0553   -7.9152   -1.6995 C.ar      1 <0>        -0.0837
     19 C17         0.0500   -7.0298   -1.2992 C.2       1 <0>         0.4609
     20 O1          0.9175   -7.4185   -0.5376 O.2       1 <0>        -0.4397
     21 N3         -3.8773   -9.7097   -0.1653 N.2       1 <0>        -1.0971
     22 S1         -5.1776  -10.6235   -0.6305 S.o2      1 <0>         2.7153
     23 O2         -6.0456   -9.7582   -1.3496 O.2       1 <0>        -1.0429
     24 O3         -4.6537  -11.8178   -1.1947 O.2       1 <0>        -1.0457
     25 N4         -5.9839  -11.0648    0.7470 N.pl3     1 <0>        -0.9885
     26 C18        -7.0496  -10.2109    1.2774 C.3       1 <0>         0.1091
     27 C19        -5.6314  -12.3092    1.4352 C.3       1 <0>         0.1365
     28 C20        -4.6323  -12.0078    2.5540 C.3       1 <0>         0.0329
     29 H1         -3.7717  -11.4810    2.1417 H         1 <0>         0.0873
     30 C21        -4.1704  -13.3198    3.1948 C.3       1 <0>         0.0320
     31 O4         -3.3244  -13.0250    4.3103 O.3       1 <0>        -0.3784
     32 C22        -3.9524  -12.2119    5.3061 C.3       1 <0>         0.0246
     33 C23        -4.4143  -10.8999    4.6653 C.3       1 <0>         0.0237
     34 O5         -5.2598  -11.1934    3.5490 O.3       1 <0>        -0.3667
     35 N5          0.0651   -4.2087   -3.7198 N.ar      1 <0>        -0.4751
     36 C24         0.0305   -3.1599   -2.9350 C.ar      1 <0>         0.1218
     37 H2          1.0048    1.8381    0.0023 H         1 <0>         0.0758
     38 H3         -0.5450    1.8219   -0.8730 H         1 <0>         0.0888
     39 H4         -0.5280    1.8123    0.9069 H         1 <0>         0.0902
     40 H5         -0.0021   -0.4506   -2.1203 H         1 <0>         0.1795
     41 H6          0.0494   -2.9451    1.3761 H         1 <0>         0.1876
     42 H7          0.0463   -4.6991    0.0909 H         1 <0>         0.1396
     43 H8          0.9100   -6.4187   -5.0047 H         1 <0>         0.1239
     44 H9         -0.1138   -8.4521   -4.8752 H         1 <0>         0.1183
     45 H10        -2.5760   -9.1830   -4.4738 H         1 <0>         0.1151
     46 H11        -4.0961  -10.0325   -2.7747 H         1 <0>         0.1021
     47 H12        -1.7458   -8.2343    0.3129 H         1 <0>         0.1215
     48 H13        -8.0037  -10.5080    0.8422 H         1 <0>         0.0404
     49 H14        -7.0955  -10.3181    2.3611 H         1 <0>         0.0728
     50 H15        -6.8424   -9.1713    1.0236 H         1 <0>         0.0649
     51 H16        -6.5299  -12.7559    1.8610 H         1 <0>         0.0781
     52 H17        -5.1826  -13.0029    0.7243 H         1 <0>         0.1032
     53 H18        -5.0384  -13.8845    3.5350 H         1 <0>         0.0590
     54 H19        -3.6164  -13.9075    2.4628 H         1 <0>         0.1068
     55 H20        -4.8131  -12.7393    5.7173 H         1 <0>         0.0563
     56 H21        -3.2406  -11.9973    6.1031 H         1 <0>         0.1003
     57 H22        -4.9682  -10.3122    5.3973 H         1 <0>         0.0994
     58 H23        -3.5462  -10.3353    4.3251 H         1 <0>         0.0629
     59 H24        -0.0017   -2.1732   -3.3730 H         1 <0>         0.1540
@<TRIPOS>BOND
     1    1    2 1
     2    1   37 1
     3    1   38 1
     4    1   39 1
     5    2    6 1
     6    2    3 1
     7    3    4 2
     8    3   40 1
     9    4    5 1
    10    4    7 1
    11    5    6 2
    12    5   41 1
    13    7   36 ar
    14    7    8 ar
    15    8    9 ar
    16    8   42 1
    17    9   19 1
    18    9   10 ar
    19   10   11 1
    20   10   35 ar
    21   11   12 2
    22   11   43 1
    23   12   13 1
    24   12   44 1
    25   13   18 ar
    26   13   14 ar
    27   14   15 ar
    28   14   45 1
    29   15   16 ar
    30   15   46 1
    31   16   17 ar
    32   16   21 1
    33   17   18 ar
    34   17   47 1
    35   18   19 1
    36   19   20 2
    37   21   22 1
    38   22   23 2
    39   22   24 2
    40   22   25 1
    41   25   26 1
    42   25   27 1
    43   26   48 1
    44   26   49 1
    45   26   50 1
    46   27   28 1
    47   27   51 1
    48   27   52 1
    49   28   29 1
    50   28   34 1
    51   28   30 1
    52   30   31 1
    53   30   53 1
    54   30   54 1
    55   31   32 1
    56   32   33 1
    57   32   55 1
    58   32   56 1
    59   33   34 1
    60   33   57 1
    61   33   58 1
    62   35   36 ar
    63   36   59 1
@<TRIPOS>MOLECULE
ZINC72105034
   70    73     0     0     0
SMALL
USER_CHARGES

@<TRIPOS>ATOM
      1 C1         -3.0465   -3.1127   14.8741 C.3       1 <0>        -0.1892
      2 C2         -3.2466   -2.2549   13.6230 C.3       1 <0>        -0.0108
      3 N1         -4.1264   -2.9600   12.6814 N.4       1 <0>        -0.3829
      4 C3         -3.4647   -4.1874   12.2214 C.3       1 <0>        -0.0274
      5 C4         -4.4254   -4.9810   11.3297 C.3       1 <0>         0.1010
      6 N2         -4.8919   -4.1005   10.2474 N.pl3     1 <0>        -0.6456
      7 C5         -5.4217   -2.7770   10.6103 C.3       1 <0>         0.1015
      8 C6         -4.4140   -2.0875   11.5359 C.3       1 <0>        -0.0220
      9 C7         -4.8337   -4.5106    8.9106 C.ar      1 <0>         0.1766
     10 C8         -4.2262   -5.7148    8.5795 C.ar      1 <0>        -0.1629
     11 C9         -4.1692   -6.1195    7.2606 C.ar      1 <0>        -0.0646
     12 C10        -4.7193   -5.3226    6.2653 C.ar      1 <0>         0.1310
     13 C11        -5.3268   -4.1185    6.5964 C.ar      1 <0>        -0.1041
     14 C12        -5.3885   -3.7162    7.9158 C.ar      1 <0>        -0.1629
     15 N3         -4.6611   -5.7330    4.9274 N.pl3     1 <0>        -0.6533
     16 C13        -4.7431   -7.0808    4.6114 C.ar      1 <0>         0.4484
     17 C14        -4.5642   -7.5111    3.2990 C.ar      1 <0>        -0.3232
     18 C15        -4.6563   -8.8727    3.0342 C.ar      1 <0>         0.4562
     19 N4         -4.9104   -9.7105    4.0371 N.ar      1 <0>        -0.5358
     20 C16        -5.0737   -9.2649    5.2660 C.ar      1 <0>         0.3663
     21 N5         -4.9887   -7.9832    5.5591 N.ar      1 <0>        -0.5884
     22 N6         -4.4859   -9.3527    1.7400 N.am      1 <0>        -0.5513
     23 C17        -4.0993   -8.4367    0.6640 C.3       1 <0>         0.0633
     24 C18        -4.6764  -10.6605    1.4758 C.2       1 <0>         0.6965
     25 O1         -4.9972  -11.4206    2.3688 O.2       1 <0>        -0.4771
     26 N7         -4.5113  -11.1256    0.2217 N.am      1 <0>        -0.6806
     27 C19        -4.5933  -12.5005   -0.0317 C.ar      1 <0>         0.2488
     28 C20        -3.5635  -13.1459   -0.7035 C.ar      1 <0>        -0.1156
     29 C21        -3.6457  -14.5077   -0.9540 C.ar      1 <0>         0.1985
     30 C22        -4.7561  -15.2246   -0.5342 C.ar      1 <0>        -0.2856
     31 C23        -5.7851  -14.5810    0.1368 C.ar      1 <0>         0.1981
     32 C24        -5.7020  -13.2205    0.3937 C.ar      1 <0>        -0.0913
     33 Cl1        -6.9867  -12.4166    1.2405 Cl        1 <0>        -0.0174
     34 O2         -6.8731  -15.2849    0.5478 O.3       1 <0>        -0.2934
     35 C25        -6.8895  -16.6834    0.2548 C.3       1 <0>         0.0217
     36 O3         -2.6377  -15.1397   -1.6116 O.3       1 <0>        -0.2949
     37 C26        -2.7887  -16.5430   -1.8355 C.3       1 <0>         0.0219
     38 Cl2        -2.1738  -12.2486   -1.2302 Cl        1 <0>        -0.0383
     39 H1         -2.3937   -2.5895   15.5727 H         1 <0>         0.1068
     40 H2         -4.0114   -3.2967   15.3466 H         1 <0>         0.0809
     41 H3         -2.5919   -4.0630   14.5941 H         1 <0>         0.0805
     42 H4         -3.7012   -1.3046   13.9030 H         1 <0>         0.1310
     43 H5         -2.2817   -2.0709   13.1505 H         1 <0>         0.1281
     44 H6         -2.5717   -3.9277   11.6528 H         1 <0>         0.1321
     45 H7         -3.1838   -4.7935   13.0827 H         1 <0>         0.1410
     46 H8         -3.9058   -5.8399   10.9049 H         1 <0>         0.1268
     47 H9         -5.2773   -5.3195   11.9194 H         1 <0>         0.0863
     48 H10        -5.5608   -2.1788    9.7098 H         1 <0>         0.1256
     49 H11        -6.3742   -2.8930   11.1273 H         1 <0>         0.0858
     50 H12        -4.8326   -1.1462   11.8921 H         1 <0>         0.1394
     51 H13        -3.4923   -1.8913   10.9881 H         1 <0>         0.1318
     52 H14        -3.7980   -6.3344    9.3535 H         1 <0>         0.1245
     53 H15        -3.6964   -7.0558    7.0031 H         1 <0>         0.1406
     54 H16        -5.7546   -3.4987    5.8223 H         1 <0>         0.1287
     55 H17        -5.8648   -2.7819    8.1738 H         1 <0>         0.1249
     56 H18        -4.5634   -5.0745    4.2219 H         1 <0>         0.4207
     57 H19        -4.3595   -6.8053    2.5076 H         1 <0>         0.1461
     58 H20        -5.2787   -9.9712    6.0569 H         1 <0>         0.2006
     59 H21        -3.0123   -8.3941    0.5961 H         1 <0>         0.0784
     60 H22        -4.5087   -8.7932   -0.2812 H         1 <0>         0.0834
     61 H23        -4.4893   -7.4413    0.8765 H         1 <0>         0.0916
     62 H24        -4.3356  -10.5081   -0.5055 H         1 <0>         0.4126
     63 H25        -4.8197  -16.2847   -0.7302 H         1 <0>         0.1546
     64 H26        -7.8108  -17.1238    0.6364 H         1 <0>         0.1096
     65 H27        -6.8368  -16.8293   -0.8241 H         1 <0>         0.0610
     66 H28        -6.0336  -17.1640    0.7287 H         1 <0>         0.0609
     67 H29        -3.6841  -16.7217   -2.4308 H         1 <0>         0.0613
     68 H30        -1.9165  -16.9218   -2.3683 H         1 <0>         0.1099
     69 H31        -2.8806  -17.0558   -0.8781 H         1 <0>         0.0610
     70 H32        -4.9899   -3.1998   13.1451 H         1 <0>         0.4221
@<TRIPOS>BOND
     1    1    2 1
     2    1   39 1
     3    1   40 1
     4    1   41 1
     5    2    3 1
     6    2   42 1
     7    2   43 1
     8    3    8 1
     9    3    4 1
    10    3   70 1
    11    4    5 1
    12    4   44 1
    13    4   45 1
    14    5    6 1
    15    5   46 1
    16    5   47 1
    17    6    7 1
    18    6    9 1
    19    7    8 1
    20    7   48 1
    21    7   49 1
    22    8   50 1
    23    8   51 1
    24    9   14 ar
    25    9   10 ar
    26   10   11 ar
    27   10   52 1
    28   11   12 ar
    29   11   53 1
    30   12   13 ar
    31   12   15 1
    32   13   14 ar
    33   13   54 1
    34   14   55 1
    35   15   16 1
    36   15   56 1
    37   16   21 ar
    38   16   17 ar
    39   17   18 ar
    40   17   57 1
    41   18   19 ar
    42   18   22 1
    43   19   20 ar
    44   20   21 ar
    45   20   58 1
    46   22   23 1
    47   22   24 am
    48   23   59 1
    49   23   60 1
    50   23   61 1
    51   24   25 2
    52   24   26 am
    53   26   27 1
    54   26   62 1
    55   27   32 ar
    56   27   28 ar
    57   28   29 ar
    58   28   38 1
    59   29   30 ar
    60   29   36 1
    61   30   31 ar
    62   30   63 1
    63   31   32 ar
    64   31   34 1
    65   32   33 1
    66   34   35 1
    67   35   64 1
    68   35   65 1
    69   35   66 1
    70   36   37 1
    71   37   67 1
    72   37   68 1
    73   37   69 1
@<TRIPOS>MOLECULE
ZINC72105034
   69    72     0     0     0
SMALL
USER_CHARGES

@<TRIPOS>ATOM
      1 C1         -3.4378   -3.9375   14.6684 C.3       1 <0>        -0.1502
      2 C2         -3.5006   -3.0159   13.4488 C.3       1 <0>         0.0503
      3 N1         -4.3406   -3.6313   12.4127 N.3       1 <0>        -0.5378
      4 C3         -3.7251   -4.8621   11.8984 C.3       1 <0>         0.0363
      5 C4         -4.7086   -5.5666   10.9578 C.3       1 <0>         0.1266
      6 N2         -5.1378   -4.6085    9.9278 N.pl3     1 <0>        -0.6321
      7 C5         -5.6391   -3.2963   10.3636 C.3       1 <0>         0.1276
      8 C6         -4.6190   -2.6811   11.3275 C.3       1 <0>         0.0396
      9 C7         -5.0714   -4.9369    8.5689 C.ar      1 <0>         0.2080
     10 C8         -4.4894   -6.1336    8.1714 C.ar      1 <0>        -0.1806
     11 C9         -4.4244   -6.4578    6.8309 C.ar      1 <0>        -0.0579
     12 C10        -4.9408   -5.5873    5.8801 C.ar      1 <0>         0.0956
     13 C11        -5.5227   -4.3907    6.2776 C.ar      1 <0>        -0.0967
     14 C12        -5.5926   -4.0689    7.6185 C.ar      1 <0>        -0.1814
     15 N3         -4.8743   -5.9160    4.5202 N.pl3     1 <0>        -0.6480
     16 C13        -4.9857   -7.2392    4.1204 C.ar      1 <0>         0.4532
     17 C14        -4.7996   -7.5924    2.7862 C.ar      1 <0>        -0.3285
     18 C15        -4.9221   -8.9324    2.4366 C.ar      1 <0>         0.4515
     19 N4         -5.2108   -9.8235    3.3827 N.ar      1 <0>        -0.5423
     20 C16        -5.3796   -9.4503    4.6347 C.ar      1 <0>         0.3655
     21 N5         -5.2667   -8.1917    5.0075 N.ar      1 <0>        -0.5828
     22 N6         -4.7461   -9.3361    1.1173 N.am      1 <0>        -0.5515
     23 C17        -4.3221   -8.3659    0.1048 C.3       1 <0>         0.0649
     24 C18        -4.9656  -10.6198    0.7705 C.2       1 <0>         0.6963
     25 O1         -5.3174  -11.4249    1.6108 O.2       1 <0>        -0.4774
     26 N7         -4.7950  -11.0110   -0.5080 N.am      1 <0>        -0.6824
     27 C19        -4.9079  -12.3651   -0.8468 C.ar      1 <0>         0.2515
     28 C20        -3.8855  -12.9943   -1.5448 C.ar      1 <0>        -0.1156
     29 C21        -3.9983  -14.3355   -1.8800 C.ar      1 <0>         0.1969
     30 C22        -5.1319  -15.0480   -1.5188 C.ar      1 <0>        -0.2867
     31 C23        -6.1535  -14.4206   -0.8218 C.ar      1 <0>         0.1972
     32 C24        -6.0399  -13.0811   -0.4802 C.ar      1 <0>        -0.0912
     33 Cl1        -7.3156  -12.2980    0.3991 Cl        1 <0>        -0.0151
     34 O2         -7.2642  -15.1202   -0.4683 O.3       1 <0>        -0.2933
     35 C25        -7.3116  -16.4972   -0.8473 C.3       1 <0>         0.0224
     36 O3         -2.9975  -14.9516   -2.5633 O.3       1 <0>        -0.2955
     37 C26        -3.1804  -16.3341   -2.8753 C.3       1 <0>         0.0225
     38 Cl2        -2.4668  -12.1023   -1.9981 Cl        1 <0>        -0.0388
     39 H1         -2.8146   -3.4808   15.4373 H         1 <0>         0.0601
     40 H2         -4.4435   -4.0912   15.0599 H         1 <0>         0.0642
     41 H3         -3.0108   -4.8971   14.3771 H         1 <0>         0.0548
     42 H4         -3.9276   -2.0563   13.7401 H         1 <0>         0.0754
     43 H5         -2.4950   -2.8622   13.0574 H         1 <0>         0.0324
     44 H6         -2.8150   -4.6131   11.3528 H         1 <0>         0.0373
     45 H7         -3.4816   -5.5223   12.7308 H         1 <0>         0.0881
     46 H8         -4.2176   -6.4171   10.4850 H         1 <0>         0.0867
     47 H9         -5.5752   -5.9086   11.5236 H         1 <0>         0.0692
     48 H10        -5.7633   -2.6458    9.4978 H         1 <0>         0.0853
     49 H11        -6.5952   -3.4200   10.8723 H         1 <0>         0.0688
     50 H12        -5.0237   -1.7596   11.7460 H         1 <0>         0.0847
     51 H13        -3.6964   -2.4625   10.7899 H         1 <0>         0.0375
     52 H14        -4.0875   -6.8104    8.9108 H         1 <0>         0.1239
     53 H15        -3.9715   -7.3882    6.5217 H         1 <0>         0.1333
     54 H16        -5.9244   -3.7138    5.5381 H         1 <0>         0.1213
     55 H17        -6.0491   -3.1403    7.9278 H         1 <0>         0.1240
     56 H18        -4.7504   -5.2181    3.8580 H         1 <0>         0.4169
     57 H19        -4.5666   -6.8448    2.0425 H         1 <0>         0.1434
     58 H20        -5.6130  -10.1984    5.3779 H         1 <0>         0.1992
     59 H21        -3.2335   -8.3472    0.0528 H         1 <0>         0.0766
     60 H22        -4.7274   -8.6529   -0.8655 H         1 <0>         0.0808
     61 H23        -4.6901   -7.3757    0.3737 H         1 <0>         0.0918
     62 H24        -4.5941  -10.3546   -1.1933 H         1 <0>         0.4120
     63 H25        -5.2193  -16.0921   -1.7808 H         1 <0>         0.1535
     64 H26        -7.2478  -16.5777   -1.9325 H         1 <0>         0.0599
     65 H27        -6.4745  -17.0279   -0.3938 H         1 <0>         0.0605
     66 H28        -8.2486  -16.9363   -0.5049 H         1 <0>         0.1088
     67 H29        -3.2981  -16.9023   -1.9526 H         1 <0>         0.0606
     68 H30        -4.0718  -16.4527   -3.4913 H         1 <0>         0.0604
     69 H31        -2.3108  -16.7017   -3.4200 H         1 <0>         0.1087
@<TRIPOS>BOND
     1    1    2 1
     2    1   39 1
     3    1   40 1
     4    1   41 1
     5    2    3 1
     6    2   42 1
     7    2   43 1
     8    3    8 1
     9    3    4 1
    10    4    5 1
    11    4   44 1
    12    4   45 1
    13    5    6 1
    14    5   46 1
    15    5   47 1
    16    6    7 1
    17    6    9 1
    18    7    8 1
    19    7   48 1
    20    7   49 1
    21    8   50 1
    22    8   51 1
    23    9   14 ar
    24    9   10 ar
    25   10   11 ar
    26   10   52 1
    27   11   12 ar
    28   11   53 1
    29   12   13 ar
    30   12   15 1
    31   13   14 ar
    32   13   54 1
    33   14   55 1
    34   15   16 1
    35   15   56 1
    36   16   21 ar
    37   16   17 ar
    38   17   18 ar
    39   17   57 1
    40   18   19 ar
    41   18   22 1
    42   19   20 ar
    43   20   21 ar
    44   20   58 1
    45   22   23 1
    46   22   24 am
    47   23   59 1
    48   23   60 1
    49   23   61 1
    50   24   25 2
    51   24   26 am
    52   26   27 1
    53   26   62 1
    54   27   32 ar
    55   27   28 ar
    56   28   29 ar
    57   28   38 1
    58   29   30 ar
    59   29   36 1
    60   30   31 ar
    61   30   63 1
    62   31   32 ar
    63   31   34 1
    64   32   33 1
    65   34   35 1
    66   35   64 1
    67   35   65 1
    68   35   66 1
    69   36   37 1
    70   37   67 1
    71   37   68 1
    72   37   69 1
@<TRIPOS>MOLECULE
ZINC03938688
   39    41     0     0     0
SMALL
USER_CHARGES

@<TRIPOS>ATOM
      1 C1         -0.0095    1.3826    0.0704 C.ar      1 <0>        -0.0343
      2 C2          0.5587    1.0580   -1.1482 C.ar      1 <0>        -0.1609
      3 C3          1.7655    0.3862   -1.1955 C.ar      1 <0>         0.1753
      4 C4          2.4129    0.0342   -0.0053 C.ar      1 <0>        -0.1954
      5 C5          1.8304    0.3669    1.2233 C.ar      1 <0>         0.1741
      6 C6          0.6231    1.0388    1.2514 C.ar      1 <0>        -0.1610
      7 F1          2.4463    0.0317    2.3781 F         1 <0>        -0.1212
      8 C7          3.6999   -0.6827   -0.0456 C.2       1 <0>         0.6210
      9 O1          4.7383   -0.0615   -0.1600 O.2       1 <0>        -0.4669
     10 N1          3.7255   -2.0272    0.0446 N.am      1 <0>        -0.3962
     11 C8          4.8314   -2.8210    0.1249 C.2       1 <0>         0.5948
     12 N2          4.4249   -4.0694    0.1979 N.2       1 <0>        -0.5873
     13 C9          3.0869   -4.1118    0.1675 C.2       1 <0>         0.5191
     14 N3          2.6183   -2.8904    0.0808 N.2       1 <0>        -0.3480
     15 N4          2.3148   -5.2702    0.2247 N.pl3     1 <0>        -0.6226
     16 C10         2.9267   -6.5079    0.4407 C.ar      1 <0>         0.2365
     17 C11         4.1432   -6.5760    1.1080 C.ar      1 <0>        -0.1584
     18 C12         4.7450   -7.8008    1.3202 C.ar      1 <0>         0.0098
     19 C13         4.1379   -8.9586    0.8692 C.ar      1 <0>        -0.7033
     20 C14         2.9269   -8.8944    0.2046 C.ar      1 <0>         0.0112
     21 C15         2.3170   -7.6734   -0.0063 C.ar      1 <0>        -0.1777
     22 S1          4.9094  -10.5191    1.1415 S.o2      1 <0>         2.7034
     23 O2          4.4084  -11.3993    0.1448 O.2       1 <0>        -0.9656
     24 O3          6.2977  -10.2630    1.3036 O.2       1 <0>        -0.9650
     25 N5          4.3605  -11.0895    2.5960 N.pl3     1 <0>        -1.2510
     26 N6          6.1422   -2.3912    0.1281 N.pl3     1 <0>        -0.7911
     27 F2          2.3185    0.0697   -2.3868 F         1 <0>        -0.1201
     28 H1         -0.9506    1.9116    0.0998 H         1 <0>         0.1546
     29 H2          0.0576    1.3300   -2.0654 H         1 <0>         0.1549
     30 H3          0.1721    1.2963    2.1984 H         1 <0>         0.1546
     31 H4          1.3525   -5.2176    0.1147 H         1 <0>         0.4325
     32 H5          4.6180   -5.6722    1.4601 H         1 <0>         0.1556
     33 H6          5.6909   -7.8544    1.8385 H         1 <0>         0.1456
     34 H7          2.4556   -9.8005   -0.1466 H         1 <0>         0.1475
     35 H8          1.3691   -7.6243   -0.5215 H         1 <0>         0.1387
     36 H9          3.7284  -10.5673    3.1145 H         1 <0>         0.4165
     37 H10         4.6709  -11.9458    2.9296 H         1 <0>         0.4206
     38 H11         6.3422   -1.4439    0.0694 H         1 <0>         0.4292
     39 H12         6.8640   -3.0364    0.1890 H         1 <0>         0.4303
@<TRIPOS>BOND
     1    1    6 ar
     2    1    2 ar
     3    1   28 1
     4    2    3 ar
     5    2   29 1
     6    3    4 ar
     7    3   27 1
     8    4    5 ar
     9    4    8 1
    10    5    6 ar
    11    5    7 1
    12    6   30 1
    13    8    9 2
    14    8   10 am
    15   10   14 1
    16   10   11 1
    17   11   12 2
    18   11   26 1
    19   12   13 1
    20   13   14 2
    21   13   15 1
    22   15   16 1
    23   15   31 1
    24   16   21 ar
    25   16   17 ar
    26   17   18 ar
    27   17   32 1
    28   18   19 ar
    29   18   33 1
    30   19   20 ar
    31   19   22 1
    32   20   21 ar
    33   20   34 1
    34   21   35 1
    35   22   23 2
    36   22   24 2
    37   22   25 1
    38   25   36 1
    39   25   37 1
    40   26   38 1
    41   26   39 1
@<TRIPOS>MOLECULE
ZINC04471294
   48    51     0     0     0
SMALL
USER_CHARGES
4-[[5-(3-chloro-4-methyl-phenyl)-2-furyl]methylene]-1-(3,4-dimethylphenyl)-pyrazolidine-3,5-dione
@<TRIPOS>ATOM
      1 C1          6.4632   -0.1385   -0.0582 C.3       1 <0>        -0.1169
      2 C2          5.0447    0.3703   -0.0429 C.ar      1 <0>        -0.1056
      3 C3          4.7999    1.7315   -0.0342 C.ar      1 <0>        -0.0819
      4 C4          3.5014    2.2009   -0.0197 C.ar      1 <0>        -0.1474
      5 C5          2.4404    1.3043   -0.0138 C.ar      1 <0>         0.1624
      6 C6          2.6897   -0.0618   -0.0168 C.ar      1 <0>        -0.1548
      7 C7          3.9909   -0.5248   -0.0371 C.ar      1 <0>        -0.0536
      8 C8          4.2624   -2.0071   -0.0466 C.3       1 <0>        -0.1202
      9 N1          1.1241    1.7764    0.0009 N.am      1 <0>        -0.3565
     10 C9          0.7754    3.0769    0.0107 C.2       1 <0>         0.5626
     11 O1          1.5321    4.0302    0.0085 O.2       1 <0>        -0.4628
     12 C10        -0.6956    3.1256    0.0247 C.2       1 <0>        -0.3029
     13 C11        -1.5028    4.2567    0.0375 C.2       1 <0>         0.1431
     14 C12        -0.9213    5.5335    0.0380 C.2       1 <0>        -0.0649
     15 C13        -1.6069    6.7409    0.0501 C.2       1 <0>        -0.1072
     16 C14        -0.6456    7.7495    0.0458 C.2       1 <0>        -0.2126
     17 C15         0.5882    7.1323    0.0314 C.2       1 <0>         0.0856
     18 O2          0.4024    5.8015    0.0328 O.3       1 <0>        -0.0961
     19 C16         1.8941    7.8190    0.0220 C.ar      1 <0>        -0.0306
     20 C17         3.0778    7.0762    0.0075 C.ar      1 <0>        -0.0758
     21 C18         4.2950    7.7242   -0.0012 C.ar      1 <0>        -0.1102
     22 C19         4.3469    9.1071    0.0049 C.ar      1 <0>        -0.0571
     23 C20         3.1785    9.8503    0.0197 C.ar      1 <0>        -0.0411
     24 C21         1.9529    9.2147    0.0218 C.ar      1 <0>        -0.0759
     25 Cl1         3.2549   11.5846    0.0277 Cl        1 <0>        -0.0570
     26 C22         5.6812    9.8076   -0.0042 C.3       1 <0>        -0.1253
     27 C23        -1.1278    1.7182    0.0162 C.2       1 <0>         0.5760
     28 O3         -2.2751    1.3123    0.0186 O.2       1 <0>        -0.4983
     29 N2         -0.0111    0.9658    0.0074 N.am      1 <0>        -0.5190
     30 H1          6.8146   -0.2660    0.9657 H         1 <0>         0.0715
     31 H2          6.5000   -1.0964   -0.5770 H         1 <0>         0.0709
     32 H3          7.1010    0.5791   -0.5745 H         1 <0>         0.0669
     33 H4          5.6253    2.4280   -0.0391 H         1 <0>         0.1320
     34 H5          3.3109    3.2639   -0.0132 H         1 <0>         0.1563
     35 H6          1.8670   -0.7615   -0.0073 H         1 <0>         0.1221
     36 H7          4.3376   -2.3693    0.9787 H         1 <0>         0.0748
     37 H8          3.4476   -2.5225   -0.5551 H         1 <0>         0.0671
     38 H9          5.1983   -2.2018   -0.5702 H         1 <0>         0.0753
     39 H10        -2.5778    4.1528    0.0470 H         1 <0>         0.1811
     40 H11        -2.6788    6.8728    0.0607 H         1 <0>         0.1674
     41 H12        -0.8313    8.8134    0.0526 H         1 <0>         0.1612
     42 H13         3.0393    5.9969    0.0035 H         1 <0>         0.1466
     43 H14         5.2102    7.1509   -0.0124 H         1 <0>         0.1395
     44 H15         1.0421    9.7950    0.0284 H         1 <0>         0.1411
     45 H16         5.9934    9.9813   -1.0340 H         1 <0>         0.0807
     46 H17         5.5940   10.7620    0.5150 H         1 <0>         0.0768
     47 H18         6.4213    9.1861    0.4999 H         1 <0>         0.0751
     48 H19         0.0021   -0.0041    0.0020 H         1 <0>         0.4377
@<TRIPOS>BOND
     1    1    2 1
     2    1   30 1
     3    1   31 1
     4    1   32 1
     5    2    7 ar
     6    2    3 ar
     7    3    4 ar
     8    3   33 1
     9    4    5 ar
    10    4   34 1
    11    5    6 ar
    12    5    9 1
    13    6    7 ar
    14    6   35 1
    15    7    8 1
    16    8   36 1
    17    8   37 1
    18    8   38 1
    19    9   29 1
    20    9   10 am
    21   10   11 2
    22   10   12 1
    23   12   13 2
    24   12   27 1
    25   13   14 1
    26   13   39 1
    27   14   18 1
    28   14   15 2
    29   15   16 1
    30   15   40 1
    31   16   17 2
    32   16   41 1
    33   17   18 1
    34   17   19 1
    35   19   24 ar
    36   19   20 ar
    37   20   21 ar
    38   20   42 1
    39   21   22 ar
    40   21   43 1
    41   22   23 ar
    42   22   26 1
    43   23   24 ar
    44   23   25 1
    45   24   44 1
    46   26   45 1
    47   26   46 1
    48   26   47 1
    49   27   28 2
    50   27   29 am
    51   29   48 1
@<TRIPOS>MOLECULE
ZINC00820816
   37    39     0     0     0
SMALL
USER_CHARGES
2-iodo-N-(5-phenethyl-1,3,4-thiadiazol-2-yl)benzamide
@<TRIPOS>ATOM
      1 C1          0.0801   -4.7930    1.4185 C.ar      1 <0>        -0.1209
      2 C2          1.2677   -4.0856    1.4115 C.ar      1 <0>        -0.1176
      3 C3          1.2489   -2.7034    1.4187 C.ar      1 <0>        -0.1127
      4 C4          0.0426   -2.0286    1.4333 C.ar      1 <0>        -0.0864
      5 C5         -1.1450   -2.7360    1.4461 C.ar      1 <0>        -0.1153
      6 C6         -1.1263   -4.1182    1.4331 C.ar      1 <0>        -0.1187
      7 C7          0.0221   -0.5218    1.4416 C.3       1 <0>        -0.0755
      8 C8          0.0021   -0.0041    0.0020 C.3       1 <0>        -0.0172
      9 C9         -0.0184    1.5028    0.0103 C.2       1 <0>         0.0714
     10 N1          0.9800    2.3636    0.0054 N.2       1 <0>        -0.2511
     11 N2          0.7917    3.6106    0.0139 N.2       1 <0>        -0.2762
     12 C10        -0.4266    4.1339    0.0284 C.2       1 <0>         0.2949
     13 S1         -1.4057    2.6346    0.0217 S.3       1 <0>        -0.0296
     14 N3         -0.8284    5.4642    0.0390 N.am      1 <0>        -0.6081
     15 C11         0.0941    6.4468    0.0355 C.2       1 <0>         0.5406
     16 O1          1.2776    6.1693    0.0231 O.2       1 <0>        -0.4245
     17 C12        -0.3330    7.8613    0.0468 C.ar      1 <0>        -0.1115
     18 C13        -1.6916    8.1836    0.0553 C.ar      1 <0>        -0.0821
     19 C14        -2.0835    9.5057    0.0712 C.ar      1 <0>        -0.1077
     20 C15        -1.1339   10.5127    0.0676 C.ar      1 <0>        -0.0820
     21 C16         0.2136   10.2013    0.0539 C.ar      1 <0>        -0.0889
     22 C17         0.6201    8.8819    0.0432 C.ar      1 <0>        -0.0576
     23 I1          2.6616    8.4122    0.0211 I         1 <0>         0.0136
     24 H1          0.0947   -5.8729    1.4122 H         1 <0>         0.1217
     25 H2          2.2102   -4.6128    1.4001 H         1 <0>         0.1231
     26 H3          2.1768   -2.1507    1.4133 H         1 <0>         0.1246
     27 H4         -2.0874   -2.2088    1.4619 H         1 <0>         0.1220
     28 H5         -2.0542   -4.6709    1.4382 H         1 <0>         0.1224
     29 H6          0.9118   -0.1491    1.9494 H         1 <0>         0.0838
     30 H7         -0.8680   -0.1733    1.9655 H         1 <0>         0.0781
     31 H8         -0.8875   -0.3767   -0.5057 H         1 <0>         0.0983
     32 H9          0.8922   -0.3525   -0.5218 H         1 <0>         0.1101
     33 H10        -1.7727    5.6856    0.0489 H         1 <0>         0.4255
     34 H11        -2.4339    7.3991    0.0536 H         1 <0>         0.1321
     35 H12        -3.1340    9.7561    0.0815 H         1 <0>         0.1400
     36 H13        -1.4466   11.5464    0.0752 H         1 <0>         0.1404
     37 H14         0.9494   10.9918    0.0511 H         1 <0>         0.1409
@<TRIPOS>BOND
     1    1    6 ar
     2    1    2 ar
     3    1   24 1
     4    2    3 ar
     5    2   25 1
     6    3    4 ar
     7    3   26 1
     8    4    5 ar
     9    4    7 1
    10    5    6 ar
    11    5   27 1
    12    6   28 1
    13    7    8 1
    14    7   29 1
    15    7   30 1
    16    8    9 1
    17    8   31 1
    18    8   32 1
    19    9   13 1
    20    9   10 2
    21   10   11 1
    22   11   12 2
    23   12   13 1
    24   12   14 1
    25   14   15 am
    26   14   33 1
    27   15   16 2
    28   15   17 1
    29   17   22 ar
    30   17   18 ar
    31   18   19 ar
    32   18   34 1
    33   19   20 ar
    34   19   35 1
    35   20   21 ar
    36   20   36 1
    37   21   22 ar
    38   21   37 1
    39   22   23 1
@<TRIPOS>MOLECULE
ZINC00726017
   32    34     0     0     0
SMALL
USER_CHARGES
4-benzylidene-1-(4-iodophenyl)-pyrazolidine-3,5-dione
@<TRIPOS>ATOM
      1 C1         -5.6102    4.5708    0.3692 C.ar      1 <0>        -0.0857
      2 C2         -5.8723    3.3560   -0.2411 C.ar      1 <0>        -0.1347
      3 C3         -4.8767    2.4102   -0.3586 C.ar      1 <0>        -0.0750
      4 C4         -3.5966    2.6811    0.1418 C.ar      1 <0>        -0.1252
      5 C5         -3.3419    3.9109    0.7626 C.ar      1 <0>        -0.0375
      6 C6         -4.3479    4.8472    0.8661 C.ar      1 <0>        -0.1299
      7 C7         -2.5307    1.6805    0.0219 C.2       1 <0>         0.1302
      8 C8         -1.2404    2.0781   -0.2457 C.2       1 <0>        -0.2962
      9 C9         -0.0216    1.2435   -0.2329 C.2       1 <0>         0.5763
     10 O1          0.0406    0.0552    0.0189 O.2       1 <0>        -0.4909
     11 N1          1.0064    2.0496   -0.5590 N.am      1 <0>        -0.5194
     12 N2          0.5590    3.3518   -0.7803 N.am      1 <0>        -0.3561
     13 C10        -0.7735    3.4322   -0.6048 C.2       1 <0>         0.5669
     14 O2         -1.4615    4.4284   -0.7239 O.2       1 <0>        -0.4696
     15 C11         1.3811    4.4261   -1.1356 C.ar      1 <0>         0.1819
     16 C12         0.8317    5.6855   -1.3381 C.ar      1 <0>        -0.1425
     17 C13         1.6466    6.7454   -1.6842 C.ar      1 <0>        -0.0484
     18 C14         3.0076    6.5514   -1.8389 C.ar      1 <0>        -0.1224
     19 C15         3.5570    5.2969   -1.6435 C.ar      1 <0>        -0.0502
     20 C16         2.7478    4.2344   -1.2922 C.ar      1 <0>        -0.1533
     21 I1          4.2390    8.1606   -2.3711 I         1 <0>        -0.0344
     22 H1         -6.3951    5.3074    0.4578 H         1 <0>         0.1267
     23 H2         -6.8599    3.1488   -0.6260 H         1 <0>         0.1292
     24 H3         -5.0830    1.4630   -0.8346 H         1 <0>         0.1306
     25 H4         -2.3590    4.1262    1.1551 H         1 <0>         0.1257
     26 H5         -4.1521    5.7975    1.3404 H         1 <0>         0.1278
     27 H6         -2.7583    0.6318    0.1436 H         1 <0>         0.1597
     28 H7          1.9306    1.7639   -0.6303 H         1 <0>         0.4393
     29 H8         -0.2313    5.8367   -1.2211 H         1 <0>         0.1662
     30 H9          1.2205    7.7257   -1.8381 H         1 <0>         0.1401
     31 H10         4.6197    5.1485   -1.7654 H         1 <0>         0.1385
     32 H11         3.1773    3.2552   -1.1397 H         1 <0>         0.1321
@<TRIPOS>BOND
     1    1    6 ar
     2    1    2 ar
     3    1   22 1
     4    2    3 ar
     5    2   23 1
     6    3    4 ar
     7    3   24 1
     8    4    5 ar
     9    4    7 1
    10    5    6 ar
    11    5   25 1
    12    6   26 1
    13    7    8 2
    14    7   27 1
    15    8   13 1
    16    8    9 1
    17    9   10 2
    18    9   11 am
    19   11   12 1
    20   11   28 1
    21   12   13 am
    22   12   15 1
    23   13   14 2
    24   15   20 ar
    25   15   16 ar
    26   16   17 ar
    27   16   29 1
    28   17   18 ar
    29   17   30 1
    30   18   19 ar
    31   18   21 1
    32   19   20 ar
    33   19   31 1
    34   20   32 1
@<TRIPOS>MOLECULE
ZINC16697102
   68    71     0     0     0
SMALL
USER_CHARGES

@<TRIPOS>ATOM
      1 C1          0.1414    1.0953    0.0252 C.3       1 <0>        -0.1879
      2 C2          0.0344   -0.4077    0.2904 C.3       1 <0>        -0.0179
      3 N1         -1.3805   -0.7845    0.4095 N.4       1 <0>        -0.3831
      4 C3         -1.4799   -2.1986    0.7946 C.3       1 <0>        -0.0114
      5 C4         -0.8914   -2.3887    2.1940 C.3       1 <0>        -0.1507
      6 C5         -0.9950   -3.8615    2.5951 C.3       1 <0>         0.0609
      7 O1         -0.4452   -4.0391    3.9021 O.3       1 <0>        -0.3065
      8 C6         -0.4595   -5.2979    4.4111 C.ar      1 <0>         0.1651
      9 C7         -0.9928   -6.3439    3.6526 C.ar      1 <0>        -0.2107
     10 C8         -1.0196   -7.6158    4.1389 C.ar      1 <0>        -0.0238
     11 C9         -0.5074   -7.8823    5.4144 C.ar      1 <0>        -0.2178
     12 C10         0.0354   -6.8287    6.1913 C.ar      1 <0>         0.2289
     13 C11         0.0571   -5.5307    5.6679 C.ar      1 <0>        -0.1455
     14 N2          0.5204   -7.1100    7.4103 N.ar      1 <0>        -0.5500
     15 C12         0.4909   -8.3384    7.8707 C.ar      1 <0>         0.3626
     16 N3         -0.0056   -9.3531    7.1820 N.ar      1 <0>        -0.5775
     17 C13        -0.5106   -9.1853    5.9662 C.ar      1 <0>         0.4884
     18 N4         -1.0254  -10.2523    5.2597 N.pl3     1 <0>        -0.5978
     19 C14        -1.0192  -11.5341    5.8239 C.2       1 <0>         0.2990
     20 C15        -0.5280  -11.8736    7.0950 C.2       1 <0>        -0.2355
     21 C16        -0.7031  -13.2037    7.2657 C.2       1 <0>         0.1068
     22 N5         -1.2824  -13.6919    6.1487 N.pl3     1 <0>        -0.4559
     23 H1         -1.5251  -14.6176    5.9907 H         1 <0>         0.4419
     24 N6         -1.4765  -12.6271    5.2595 N.2       1 <0>        -0.3116
     25 C17        -0.3191  -13.9996    8.4864 C.3       1 <0>        -0.0770
     26 C18        -1.4265  -13.9219    9.5056 C.2       1 <0>         0.5143
     27 O2         -2.4289  -13.2831    9.2644 O.2       1 <0>        -0.5002
     28 N7         -1.3030  -14.5622   10.6851 N.am      1 <0>        -0.6720
     29 C19        -2.2828  -14.4064   11.6717 C.ar      1 <0>         0.1711
     30 C20        -1.9219  -14.3818   13.0129 C.ar      1 <0>        -0.1532
     31 C21        -2.8902  -14.2274   13.9854 C.ar      1 <0>        -0.0700
     32 C22        -4.2191  -14.0976   13.6262 C.ar      1 <0>        -0.1667
     33 C23        -4.5833  -14.1215   12.2902 C.ar      1 <0>         0.1178
     34 C24        -3.6165  -14.2702   11.3118 C.ar      1 <0>        -0.1591
     35 F1         -5.8825  -13.9949   11.9421 F         1 <0>        -0.1354
     36 C25        -2.0519   -0.5800   -0.8810 C.3       1 <0>        -0.0098
     37 C26        -3.5535   -0.8247   -0.7191 C.3       1 <0>         0.0446
     38 O3         -4.1050    0.1610    0.1562 O.3       1 <0>        -0.5793
     39 H2          1.1903    1.3917    0.0323 H         1 <0>         0.1072
     40 H3         -0.2944    1.3246   -0.9472 H         1 <0>         0.0804
     41 H4         -0.3955    1.6404    0.8016 H         1 <0>         0.0817
     42 H5          0.4880   -0.9556   -0.5355 H         1 <0>         0.1307
     43 H6          0.5544   -0.6511    1.2170 H         1 <0>         0.1338
     44 H7         -2.5269   -2.5019    0.7965 H         1 <0>         0.1336
     45 H8         -0.9261   -2.8092    0.0814 H         1 <0>         0.1348
     46 H9          0.1556   -2.0854    2.1921 H         1 <0>         0.1011
     47 H10        -1.4452   -1.7781    2.9071 H         1 <0>         0.1012
     48 H11        -2.0419   -4.1648    2.5970 H         1 <0>         0.0752
     49 H12        -0.4411   -4.4721    1.8820 H         1 <0>         0.0757
     50 H13        -1.3888   -6.1408    2.6686 H         1 <0>         0.1349
     51 H14        -1.4346   -8.4154    3.5432 H         1 <0>         0.1334
     52 H15         0.4712   -4.7175    6.2456 H         1 <0>         0.1508
     53 H16         0.8901   -8.5298    8.8558 H         1 <0>         0.2027
     54 H17        -1.3916  -10.1149    4.3721 H         1 <0>         0.4252
     55 H18        -0.0885  -11.1933    7.8093 H         1 <0>         0.1852
     56 H19        -0.1563  -15.0401    8.2054 H         1 <0>         0.1142
     57 H20         0.5968  -13.5910    8.9133 H         1 <0>         0.1312
     58 H21        -0.5348  -15.1312   10.8499 H         1 <0>         0.4166
     59 H22        -0.8844  -14.4838   13.2950 H         1 <0>         0.1350
     60 H23        -2.6091  -14.2084   15.0280 H         1 <0>         0.1399
     61 H24        -4.9744  -13.9777   14.3888 H         1 <0>         0.1383
     62 H25        -3.8995  -14.2849   10.2696 H         1 <0>         0.1494
     63 H26        -1.8848    0.4425   -1.2196 H         1 <0>         0.1421
     64 H27        -1.6474   -1.2765   -1.6154 H         1 <0>         0.1431
     65 H28        -4.0394   -0.7588   -1.6926 H         1 <0>         0.0960
     66 H29        -3.7166   -1.8167   -0.2980 H         1 <0>         0.0707
     67 H30        -5.0389    0.0226    0.3657 H         1 <0>         0.4093
     68 H31        -1.8228   -0.2123    1.1131 H         1 <0>         0.4316
@<TRIPOS>BOND
     1    1    2 1
     2    1   39 1
     3    1   40 1
     4    1   41 1
     5    2    3 1
     6    2   42 1
     7    2   43 1
     8    3    4 1
     9    3   36 1
    10    3   68 1
    11    4    5 1
    12    4   44 1
    13    4   45 1
    14    5    6 1
    15    5   46 1
    16    5   47 1
    17    6    7 1
    18    6   48 1
    19    6   49 1
    20    7    8 1
    21    8   13 ar
    22    8    9 ar
    23    9   10 ar
    24    9   50 1
    25   10   11 ar
    26   10   51 1
    27   11   17 ar
    28   11   12 ar
    29   12   13 ar
    30   12   14 ar
    31   13   52 1
    32   14   15 ar
    33   15   16 ar
    34   15   53 1
    35   16   17 ar
    36   17   18 1
    37   18   19 1
    38   18   54 1
    39   19   24 2
    40   19   20 1
    41   20   21 2
    42   20   55 1
    43   21   22 1
    44   21   25 1
    45   22   23 1
    46   22   24 1
    47   25   26 1
    48   25   56 1
    49   25   57 1
    50   26   27 2
    51   26   28 am
    52   28   29 1
    53   28   58 1
    54   29   34 ar
    55   29   30 ar
    56   30   31 ar
    57   30   59 1
    58   31   32 ar
    59   31   60 1
    60   32   33 ar
    61   32   61 1
    62   33   34 ar
    63   33   35 1
    64   34   62 1
    65   36   37 1
    66   36   63 1
    67   36   64 1
    68   37   38 1
    69   37   65 1
    70   37   66 1
    71   38   67 1
@<TRIPOS>MOLECULE
ZINC16697102
   68    71     0     0     0
SMALL
USER_CHARGES

@<TRIPOS>ATOM
      1 C1          0.1009    1.0895    0.0671 C.3       1 <0>        -0.1880
      2 C2          0.0005   -0.4150    0.3267 C.3       1 <0>        -0.0178
      3 N1         -1.4127   -0.7982    0.4447 N.4       1 <0>        -0.3831
      4 C3         -1.5060   -2.2142    0.8244 C.3       1 <0>        -0.0114
      5 C4         -0.9163   -2.4070    2.2230 C.3       1 <0>        -0.1510
      6 C5         -1.0135   -3.8818    2.6185 C.3       1 <0>         0.0610
      7 O1         -0.4626   -4.0619    3.9247 O.3       1 <0>        -0.3058
      8 C6         -0.4714   -5.3227    4.4290 C.ar      1 <0>         0.1652
      9 C7         -1.0003   -6.3681    3.6667 C.ar      1 <0>        -0.2079
     10 C8         -1.0216   -7.6420    4.1481 C.ar      1 <0>        -0.0271
     11 C9         -0.5079   -7.9111    5.4225 C.ar      1 <0>        -0.2157
     12 C10         0.0306   -6.8581    6.2032 C.ar      1 <0>         0.2279
     13 C11         0.0466   -5.5580    5.6848 C.ar      1 <0>        -0.1434
     14 N2          0.5172   -7.1419    7.4211 N.ar      1 <0>        -0.5462
     15 C12         0.4930   -8.3722    7.8768 C.ar      1 <0>         0.3627
     16 N3          0.0007   -9.3864    7.1844 N.ar      1 <0>        -0.5729
     17 C13        -0.5054   -9.2161    5.9694 C.ar      1 <0>         0.4842
     18 N4         -1.0159  -10.2829    5.2588 N.pl3     1 <0>        -0.6133
     19 C14        -1.0041  -11.5601    5.8152 C.2       1 <0>         0.2975
     20 C15        -0.5278  -11.8985    7.0451 C.2       1 <0>        -0.2522
     21 C16        -0.7053  -13.2747    7.2096 C.2       1 <0>         0.0931
     22 N5         -1.2647  -13.7522    6.1276 N.2       1 <0>        -0.2441
     23 N6         -1.4709  -12.6946    5.2325 N.pl3     1 <0>        -0.4898
     24 H1         -1.8732  -12.7611    4.3523 H         1 <0>         0.4364
     25 C17        -0.3175  -14.0738    8.4270 C.3       1 <0>        -0.0571
     26 C18        -1.5188  -14.8275    8.9368 C.2       1 <0>         0.5153
     27 O2         -2.5849  -14.7257    8.3676 O.2       1 <0>        -0.4982
     28 N7         -1.4084  -15.6146   10.0253 N.am      1 <0>        -0.6749
     29 C19        -2.5443  -16.2321   10.5602 C.ar      1 <0>         0.1739
     30 C20        -2.6655  -16.3952   11.9344 C.ar      1 <0>        -0.1553
     31 C21        -3.7876  -17.0044   12.4607 C.ar      1 <0>        -0.0709
     32 C22        -4.7909  -17.4530   11.6216 C.ar      1 <0>        -0.1690
     33 C23        -4.6742  -17.2924   10.2511 C.ar      1 <0>         0.1173
     34 C24        -3.5547  -16.6775    9.7191 C.ar      1 <0>        -0.1594
     35 F1         -5.6558  -17.7320    9.4336 F         1 <0>        -0.1360
     36 C25        -2.0854   -0.5918   -0.8449 C.3       1 <0>        -0.0099
     37 C26        -3.5858   -0.8435   -0.6835 C.3       1 <0>         0.0446
     38 O3         -4.1414    0.1365    0.1957 O.3       1 <0>        -0.5792
     39 H2          1.1486    1.3904    0.0751 H         1 <0>         0.1074
     40 H3         -0.3361    1.3206   -0.9043 H         1 <0>         0.0805
     41 H4         -0.4380    1.6293    0.8457 H         1 <0>         0.0817
     42 H5          0.4562   -0.9578   -0.5014 H         1 <0>         0.1308
     43 H6          0.5217   -0.6596    1.2522 H         1 <0>         0.1337
     44 H7         -2.5517   -2.5220    0.8255 H         1 <0>         0.1335
     45 H8         -0.9498   -2.8197    0.1089 H         1 <0>         0.1347
     46 H9          0.1294   -2.0993    2.2220 H         1 <0>         0.1014
     47 H10        -1.4725   -1.8015    2.9385 H         1 <0>         0.1015
     48 H11        -2.0591   -4.1896    2.6196 H         1 <0>         0.0752
     49 H12        -0.4572   -4.4873    1.9030 H         1 <0>         0.0757
     50 H13        -1.3975   -6.1630    2.6836 H         1 <0>         0.1354
     51 H14        -1.4333   -8.4411    3.5496 H         1 <0>         0.1313
     52 H15         0.4574   -4.7453    6.2654 H         1 <0>         0.1520
     53 H16         0.8932   -8.5656    8.8611 H         1 <0>         0.2055
     54 H17        -1.3830  -10.1437    4.3718 H         1 <0>         0.4209
     55 H18        -0.0902  -11.2232    7.7655 H         1 <0>         0.1880
     56 H19         0.4693  -14.7803    8.1624 H         1 <0>         0.1181
     57 H20         0.0452  -13.4002    9.2034 H         1 <0>         0.1229
     58 H21        -0.5415  -15.7530   10.4378 H         1 <0>         0.4158
     59 H22        -1.8824  -16.0460   12.5909 H         1 <0>         0.1343
     60 H23        -3.8814  -17.1310   13.5291 H         1 <0>         0.1388
     61 H24        -5.6670  -17.9297   12.0358 H         1 <0>         0.1372
     62 H25        -3.4650  -16.5484    8.6506 H         1 <0>         0.1513
     63 H26        -1.9227    0.4328   -1.1796 H         1 <0>         0.1424
     64 H27        -1.6780   -1.2838   -1.5820 H         1 <0>         0.1432
     65 H28        -4.0723   -0.7760   -1.6566 H         1 <0>         0.0961
     66 H29        -3.7446   -1.8378   -0.2661 H         1 <0>         0.0704
     67 H30        -5.0746   -0.0067    0.4048 H         1 <0>         0.4093
     68 H31        -1.8573   -0.2307    1.1505 H         1 <0>         0.4316
@<TRIPOS>BOND
     1    1    2 1
     2    1   39 1
     3    1   40 1
     4    1   41 1
     5    2    3 1
     6    2   42 1
     7    2   43 1
     8    3    4 1
     9    3   36 1
    10    3   68 1
    11    4    5 1
    12    4   44 1
    13    4   45 1
    14    5    6 1
    15    5   46 1
    16    5   47 1
    17    6    7 1
    18    6   48 1
    19    6   49 1
    20    7    8 1
    21    8   13 ar
    22    8    9 ar
    23    9   10 ar
    24    9   50 1
    25   10   11 ar
    26   10   51 1
    27   11   17 ar
    28   11   12 ar
    29   12   13 ar
    30   12   14 ar
    31   13   52 1
    32   14   15 ar
    33   15   16 ar
    34   15   53 1
    35   16   17 ar
    36   17   18 1
    37   18   19 1
    38   18   54 1
    39   19   23 1
    40   19   20 2
    41   20   21 1
    42   20   55 1
    43   21   22 2
    44   21   25 1
    45   22   23 1
    46   23   24 1
    47   25   26 1
    48   25   56 1
    49   25   57 1
    50   26   27 2
    51   26   28 am
    52   28   29 1
    53   28   58 1
    54   29   34 ar
    55   29   30 ar
    56   30   31 ar
    57   30   59 1
    58   31   32 ar
    59   31   60 1
    60   32   33 ar
    61   32   61 1
    62   33   34 ar
    63   33   35 1
    64   34   62 1
    65   36   37 1
    66   36   63 1
    67   36   64 1
    68   37   38 1
    69   37   65 1
    70   37   66 1
    71   38   67 1
@<TRIPOS>MOLECULE
ZINC24811973
   71    76     0     0     0
SMALL
USER_CHARGES
N-(5-chloro-1,3-benzodioxol-4-yl)-7-[2-(4-methylpiperazin-1-yl)ethoxy]-5-tetrahydropyran-4-yloxy-quinazolin-4-amine
@<TRIPOS>ATOM
      1 C1          7.5655    6.2744    4.3229 C.3       1 <0>        -0.0453
      2 N1          6.9185    4.9776    4.0827 N.4       1 <0>        -0.4025
      3 C2          5.4989    5.0194    4.4603 C.3       1 <0>         0.0006
      4 C3          4.8821    3.6316    4.2705 C.3       1 <0>         0.0191
      5 N2          5.0395    3.2159    2.8697 N.3       1 <0>        -0.5340
      6 C4          6.4591    3.1741    2.4921 C.3       1 <0>         0.0256
      7 C5          7.0759    4.5619    2.6820 C.3       1 <0>         0.0003
      8 C6          4.3925    1.9191    2.6296 C.3       1 <0>         0.0546
      9 C7          2.8759    2.1102    2.5640 C.3       1 <0>         0.0573
     10 O1          2.5474    2.9314    1.4415 O.3       1 <0>        -0.2956
     11 C8          1.2320    3.2001    1.2382 C.ar      1 <0>         0.2139
     12 C9          0.2891    2.6820    2.1028 C.ar      1 <0>        -0.2556
     13 C10        -1.0666    2.9521    1.8929 C.ar      1 <0>         0.2617
     14 C11        -1.4550    3.7658    0.7994 C.ar      1 <0>        -0.2443
     15 C12        -0.4786    4.2833   -0.0680 C.ar      1 <0>         0.2316
     16 C13         0.8507    3.9969    0.1584 C.ar      1 <0>        -0.2679
     17 O2         -0.8412    5.0596   -1.1206 O.3       1 <0>        -0.3196
     18 C14         0.2045    5.5149   -1.9816 C.3       1 <0>         0.0868
     19 C15         0.8408    6.7773   -1.3918 C.3       1 <0>        -0.1819
     20 C16         1.9040    7.3033   -2.3597 C.3       1 <0>         0.0642
     21 O3          1.3058    7.5588   -3.6321 O.3       1 <0>        -0.3754
     22 C17         0.7375    6.4035   -4.2522 C.3       1 <0>         0.0639
     23 C18        -0.3741    5.8427   -3.3615 C.3       1 <0>        -0.1585
     24 C19        -2.8318    4.0257    0.6163 C.ar      1 <0>         0.5015
     25 N3         -3.6910    3.4986    1.4806 N.ar      1 <0>        -0.5890
     26 C20        -3.2828    2.7482    2.4909 C.ar      1 <0>         0.3723
     27 N4         -2.0187    2.4733    2.7099 N.ar      1 <0>        -0.5672
     28 N5         -3.2714    4.8066   -0.4322 N.pl3     1 <0>        -0.6413
     29 C21        -4.6269    5.1462   -0.5324 C.ar      1 <0>         0.1713
     30 C22        -5.5908    4.1480   -0.6043 C.ar      1 <0>        -0.0138
     31 C23        -6.9287    4.4835   -0.6963 C.ar      1 <0>        -0.0868
     32 C24        -7.3118    5.8118   -0.7302 C.ar      1 <0>        -0.0893
     33 C25        -6.3565    6.8144   -0.6652 C.ar      1 <0>         0.0501
     34 C26        -5.0093    6.4829   -0.5658 C.ar      1 <0>         0.0316
     35 O4         -4.2778    7.6354   -0.5173 O.3       1 <0>        -0.3024
     36 C27        -5.1574    8.6689   -0.9986 C.3       1 <0>         0.2077
     37 O5         -6.4715    8.1749   -0.6789 O.3       1 <0>        -0.2967
     38 Cl1        -5.1153    2.4788   -0.5700 Cl        1 <0>        -0.0325
     39 H1          7.4326    6.5608    5.3766 H         1 <0>         0.1247
     40 H2          7.1092    7.0374    3.6751 H         1 <0>         0.1198
     41 H3          8.6392    6.1959    4.0968 H         1 <0>         0.1251
     42 H4          5.4086    5.3208    5.5143 H         1 <0>         0.1365
     43 H5          4.9716    5.7461    3.8247 H         1 <0>         0.1349
     44 H6          5.3914    2.9111    4.9273 H         1 <0>         0.0633
     45 H7          3.8126    3.6677    4.5254 H         1 <0>         0.1226
     46 H8          6.9863    2.4474    3.1277 H         1 <0>         0.0617
     47 H9          6.5495    2.8728    1.4380 H         1 <0>         0.1248
     48 H10         6.5668    5.2834    2.0260 H         1 <0>         0.1350
     49 H11         8.1456    4.5267    2.4279 H         1 <0>         0.1366
     50 H12         4.7510    1.5012    1.6773 H         1 <0>         0.1011
     51 H13         4.6399    1.2285    3.4493 H         1 <0>         0.0750
     52 H14         2.3872    1.1305    2.4572 H         1 <0>         0.0821
     53 H15         2.5271    2.5951    3.4877 H         1 <0>         0.0690
     54 H16         0.5969    2.0668    2.9354 H         1 <0>         0.1422
     55 H17         1.6040    4.3933   -0.5062 H         1 <0>         0.1435
     56 H18         0.9260    4.6862   -2.0334 H         1 <0>         0.0874
     57 H19         0.0655    7.5433   -1.2427 H         1 <0>         0.0903
     58 H20         1.3079    6.5354   -0.4257 H         1 <0>         0.0834
     59 H21         2.3326    8.2352   -1.9624 H         1 <0>         0.1028
     60 H22         2.7001    6.5528   -2.4731 H         1 <0>         0.0539
     61 H23         0.3189    6.6811   -5.2308 H         1 <0>         0.1103
     62 H24         1.5176    5.6403   -4.3903 H         1 <0>         0.0577
     63 H25        -0.7839    4.9277   -3.8140 H         1 <0>         0.0906
     64 H26        -1.1747    6.5895   -3.2554 H         1 <0>         0.0897
     65 H27        -4.0231    2.3437    3.1652 H         1 <0>         0.1966
     66 H28        -2.5577    5.1627   -1.1897 H         1 <0>         0.4524
     67 H29        -7.6766    3.7060   -0.7472 H         1 <0>         0.1549
     68 H30        -8.3579    6.0688   -0.8071 H         1 <0>         0.1504
     69 H31        -4.9302    9.6134   -0.4826 H         1 <0>         0.1369
     70 H32        -5.0128    8.7986   -2.0813 H         1 <0>         0.0896
     71 H33         7.4170    4.2298    4.7170 H         1 <0>         0.4406
@<TRIPOS>BOND
     1    1    2 1
     2    1   39 1
     3    1   40 1
     4    1   41 1
     5    2    7 1
     6    2    3 1
     7    2   71 1
     8    3    4 1
     9    3   42 1
    10    3   43 1
    11    4    5 1
    12    4   44 1
    13    4   45 1
    14    5    6 1
    15    5    8 1
    16    6    7 1
    17    6   46 1
    18    6   47 1
    19    7   48 1
    20    7   49 1
    21    8    9 1
    22    8   50 1
    23    8   51 1
    24    9   10 1
    25    9   52 1
    26    9   53 1
    27   10   11 1
    28   11   16 ar
    29   11   12 ar
    30   12   13 ar
    31   12   54 1
    32   13   27 ar
    33   13   14 ar
    34   14   15 ar
    35   14   24 ar
    36   15   16 ar
    37   15   17 1
    38   16   55 1
    39   17   18 1
    40   18   23 1
    41   18   19 1
    42   18   56 1
    43   19   20 1
    44   19   57 1
    45   19   58 1
    46   20   21 1
    47   20   59 1
    48   20   60 1
    49   21   22 1
    50   22   23 1
    51   22   61 1
    52   22   62 1
    53   23   63 1
    54   23   64 1
    55   24   25 ar
    56   24   28 1
    57   25   26 ar
    58   26   27 ar
    59   26   65 1
    60   28   29 1
    61   28   66 1
    62   29   34 ar
    63   29   30 ar
    64   30   31 ar
    65   30   38 1
    66   31   32 ar
    67   31   67 1
    68   32   33 ar
    69   32   68 1
    70   33   37 1
    71   33   34 ar
    72   34   35 1
    73   35   36 1
    74   36   37 1
    75   36   69 1
    76   36   70 1
@<TRIPOS>MOLECULE
ZINC24811973
   71    76     0     0     0
SMALL
USER_CHARGES
N-(5-chloro-1,3-benzodioxol-4-yl)-7-[2-(4-methylpiperazin-1-yl)ethoxy]-5-tetrahydropyran-4-yloxy-quinazolin-4-amine
@<TRIPOS>ATOM
      1 C1          7.5655    6.2744    4.3229 C.3       1 <0>         0.0170
      2 N1          6.9185    4.9776    4.0827 N.3       1 <0>        -0.5430
      3 C2          5.4989    5.0194    4.4603 C.3       1 <0>         0.0239
      4 C3          4.8821    3.6316    4.2705 C.3       1 <0>        -0.0046
      5 N2          5.0395    3.2159    2.8697 N.4       1 <0>        -0.4045
      6 C4          6.4591    3.1741    2.4921 C.3       1 <0>         0.0008
      7 C5          7.0759    4.5619    2.6820 C.3       1 <0>         0.0231
      8 C6          4.3925    1.9191    2.6296 C.3       1 <0>         0.0022
      9 C7          2.8759    2.1102    2.5640 C.3       1 <0>         0.0216
     10 O1          2.5474    2.9314    1.4415 O.3       1 <0>        -0.3251
     11 C8          1.2320    3.2001    1.2382 C.ar      1 <0>         0.2059
     12 C9          0.2891    2.6820    2.1028 C.ar      1 <0>        -0.2460
     13 C10        -1.0666    2.9521    1.8929 C.ar      1 <0>         0.2625
     14 C11        -1.4550    3.7658    0.7994 C.ar      1 <0>        -0.2415
     15 C12        -0.4786    4.2833   -0.0680 C.ar      1 <0>         0.2396
     16 C13         0.8507    3.9969    0.1584 C.ar      1 <0>        -0.2718
     17 O2         -0.8412    5.0596   -1.1206 O.3       1 <0>        -0.3174
     18 C14         0.2045    5.5149   -1.9816 C.3       1 <0>         0.0868
     19 C15         0.8408    6.7773   -1.3918 C.3       1 <0>        -0.1825
     20 C16         1.9040    7.3033   -2.3597 C.3       1 <0>         0.0637
     21 O3          1.3058    7.5588   -3.6321 O.3       1 <0>        -0.3736
     22 C17         0.7375    6.4035   -4.2522 C.3       1 <0>         0.0637
     23 C18        -0.3741    5.8427   -3.3615 C.3       1 <0>        -0.1592
     24 C19        -2.8318    4.0257    0.6163 C.ar      1 <0>         0.5024
     25 N3         -3.6910    3.4986    1.4806 N.ar      1 <0>        -0.5847
     26 C20        -3.2828    2.7482    2.4909 C.ar      1 <0>         0.3779
     27 N4         -2.0187    2.4733    2.7099 N.ar      1 <0>        -0.5668
     28 N5         -3.2714    4.8066   -0.4322 N.pl3     1 <0>        -0.6379
     29 C21        -4.6269    5.1462   -0.5324 C.ar      1 <0>         0.1670
     30 C22        -5.5908    4.1480   -0.6043 C.ar      1 <0>        -0.0135
     31 C23        -6.9287    4.4835   -0.6963 C.ar      1 <0>        -0.0861
     32 C24        -7.3118    5.8118   -0.7302 C.ar      1 <0>        -0.0874
     33 C25        -6.3565    6.8144   -0.6652 C.ar      1 <0>         0.0512
     34 C26        -5.0093    6.4829   -0.5658 C.ar      1 <0>         0.0329
     35 O4         -4.2778    7.6354   -0.5173 O.3       1 <0>        -0.3029
     36 C27        -5.1574    8.6689   -0.9986 C.3       1 <0>         0.2078
     37 O5         -6.4715    8.1749   -0.6789 O.3       1 <0>        -0.2957
     38 Cl1        -5.1153    2.4788   -0.5700 Cl        1 <0>        -0.0332
     39 H1          7.4326    6.5608    5.3766 H         1 <0>         0.0847
     40 H2          7.1092    7.0374    3.6751 H         1 <0>         0.0397
     41 H3          8.6392    6.1959    4.0968 H         1 <0>         0.0853
     42 H4          5.4086    5.3208    5.5143 H         1 <0>         0.1247
     43 H5          4.9716    5.7461    3.8247 H         1 <0>         0.0605
     44 H6          5.3914    2.9111    4.9273 H         1 <0>         0.1387
     45 H7          3.8126    3.6677    4.5254 H         1 <0>         0.1343
     46 H8          6.9863    2.4474    3.1277 H         1 <0>         0.1371
     47 H9          6.5495    2.8728    1.4380 H         1 <0>         0.1373
     48 H10         6.5668    5.2834    2.0260 H         1 <0>         0.0606
     49 H11         8.1456    4.5267    2.4279 H         1 <0>         0.1249
     50 H12         4.7510    1.5012    1.6773 H         1 <0>         0.1442
     51 H13         4.6399    1.2285    3.4493 H         1 <0>         0.1512
     52 H14         2.3872    1.1305    2.4572 H         1 <0>         0.1174
     53 H15         2.5271    2.5951    3.4877 H         1 <0>         0.0921
     54 H16         0.5969    2.0668    2.9354 H         1 <0>         0.1449
     55 H17         1.6040    4.3933   -0.5062 H         1 <0>         0.1457
     56 H18         0.9260    4.6862   -2.0334 H         1 <0>         0.0870
     57 H19         0.0655    7.5433   -1.2427 H         1 <0>         0.0923
     58 H20         1.3079    6.5354   -0.4257 H         1 <0>         0.0820
     59 H21         2.3326    8.2352   -1.9624 H         1 <0>         0.1045
     60 H22         2.7001    6.5528   -2.4731 H         1 <0>         0.0533
     61 H23         0.3189    6.6811   -5.2308 H         1 <0>         0.1117
     62 H24         1.5176    5.6403   -4.3903 H         1 <0>         0.0578
     63 H25        -0.7839    4.9277   -3.8140 H         1 <0>         0.0914
     64 H26        -1.1747    6.5895   -3.2554 H         1 <0>         0.0911
     65 H27        -4.0231    2.3437    3.1652 H         1 <0>         0.1996
     66 H28        -2.5577    5.1627   -1.1897 H         1 <0>         0.4528
     67 H29        -7.6766    3.7060   -0.7472 H         1 <0>         0.1558
     68 H30        -8.3579    6.0688   -0.8071 H         1 <0>         0.1515
     69 H31        -4.9302    9.6134   -0.4826 H         1 <0>         0.1379
     70 H32        -5.0128    8.7986   -2.0813 H         1 <0>         0.0905
     71 H33         4.5411    3.9636    2.2353 H         1 <0>         0.4448
@<TRIPOS>BOND
     1    1    2 1
     2    1   39 1
     3    1   40 1
     4    1   41 1
     5    2    7 1
     6    2    3 1
     7    3    4 1
     8    3   42 1
     9    3   43 1
    10    4    5 1
    11    4   44 1
    12    4   45 1
    13    5    6 1
    14    5    8 1
    15    5   71 1
    16    6    7 1
    17    6   46 1
    18    6   47 1
    19    7   48 1
    20    7   49 1
    21    8    9 1
    22    8   50 1
    23    8   51 1
    24    9   10 1
    25    9   52 1
    26    9   53 1
    27   10   11 1
    28   11   16 ar
    29   11   12 ar
    30   12   13 ar
    31   12   54 1
    32   13   27 ar
    33   13   14 ar
    34   14   15 ar
    35   14   24 ar
    36   15   16 ar
    37   15   17 1
    38   16   55 1
    39   17   18 1
    40   18   23 1
    41   18   19 1
    42   18   56 1
    43   19   20 1
    44   19   57 1
    45   19   58 1
    46   20   21 1
    47   20   59 1
    48   20   60 1
    49   21   22 1
    50   22   23 1
    51   22   61 1
    52   22   62 1
    53   23   63 1
    54   23   64 1
    55   24   25 ar
    56   24   28 1
    57   25   26 ar
    58   26   27 ar
    59   26   65 1
    60   28   29 1
    61   28   66 1
    62   29   34 ar
    63   29   30 ar
    64   30   31 ar
    65   30   38 1
    66   31   32 ar
    67   31   67 1
    68   32   33 ar
    69   32   68 1
    70   33   37 1
    71   33   34 ar
    72   34   35 1
    73   35   36 1
    74   36   37 1
    75   36   69 1
    76   36   70 1
@<TRIPOS>MOLECULE
ZINC24811973
   70    75     0     0     0
SMALL
USER_CHARGES
N-(5-chloro-1,3-benzodioxol-4-yl)-7-[2-(4-methylpiperazin-1-yl)ethoxy]-5-tetrahydropyran-4-yloxy-quinazolin-4-amine
@<TRIPOS>ATOM
      1 C1          7.5655    6.2744    4.3229 C.3       1 <0>         0.0226
      2 N1          6.9185    4.9776    4.0827 N.3       1 <0>        -0.5457
      3 C2          5.4989    5.0194    4.4603 C.3       1 <0>         0.0556
      4 C3          4.8821    3.6316    4.2705 C.3       1 <0>         0.0522
      5 N2          5.0395    3.2159    2.8697 N.3       1 <0>        -0.5333
      6 C4          6.4591    3.1741    2.4921 C.3       1 <0>         0.0571
      7 C5          7.0759    4.5619    2.6820 C.3       1 <0>         0.0553
      8 C6          4.3925    1.9191    2.6296 C.3       1 <0>         0.0535
      9 C7          2.8759    2.1102    2.5640 C.3       1 <0>         0.0608
     10 O1          2.5474    2.9314    1.4415 O.3       1 <0>        -0.2892
     11 C8          1.2320    3.2001    1.2382 C.ar      1 <0>         0.2205
     12 C9          0.2891    2.6820    2.1028 C.ar      1 <0>        -0.2568
     13 C10        -1.0666    2.9521    1.8929 C.ar      1 <0>         0.2601
     14 C11        -1.4550    3.7658    0.7994 C.ar      1 <0>        -0.2438
     15 C12        -0.4786    4.2833   -0.0680 C.ar      1 <0>         0.2247
     16 C13         0.8507    3.9969    0.1584 C.ar      1 <0>        -0.2620
     17 O2         -0.8412    5.0596   -1.1206 O.3       1 <0>        -0.3213
     18 C14         0.2045    5.5149   -1.9816 C.3       1 <0>         0.0860
     19 C15         0.8408    6.7773   -1.3918 C.3       1 <0>        -0.1829
     20 C16         1.9040    7.3033   -2.3597 C.3       1 <0>         0.0632
     21 O3          1.3058    7.5588   -3.6321 O.3       1 <0>        -0.3771
     22 C17         0.7375    6.4035   -4.2522 C.3       1 <0>         0.0639
     23 C18        -0.3741    5.8427   -3.3615 C.3       1 <0>        -0.1562
     24 C19        -2.8318    4.0257    0.6163 C.ar      1 <0>         0.5004
     25 N3         -3.6910    3.4986    1.4806 N.ar      1 <0>        -0.5929
     26 C20        -3.2828    2.7482    2.4909 C.ar      1 <0>         0.3659
     27 N4         -2.0187    2.4733    2.7099 N.ar      1 <0>        -0.5638
     28 N5         -3.2714    4.8066   -0.4322 N.pl3     1 <0>        -0.6450
     29 C21        -4.6269    5.1462   -0.5324 C.ar      1 <0>         0.1769
     30 C22        -5.5908    4.1480   -0.6043 C.ar      1 <0>        -0.0142
     31 C23        -6.9287    4.4835   -0.6963 C.ar      1 <0>        -0.0884
     32 C24        -7.3118    5.8118   -0.7302 C.ar      1 <0>        -0.0924
     33 C25        -6.3565    6.8144   -0.6652 C.ar      1 <0>         0.0485
     34 C26        -5.0093    6.4829   -0.5658 C.ar      1 <0>         0.0310
     35 O4         -4.2778    7.6354   -0.5173 O.3       1 <0>        -0.3005
     36 C27        -5.1574    8.6689   -0.9986 C.3       1 <0>         0.2076
     37 O5         -6.4715    8.1749   -0.6789 O.3       1 <0>        -0.2984
     38 Cl1        -5.1153    2.4788   -0.5700 Cl        1 <0>        -0.0322
     39 H1          7.4326    6.5608    5.3766 H         1 <0>         0.0697
     40 H2          7.1092    7.0374    3.6751 H         1 <0>         0.0269
     41 H3          8.6392    6.1959    4.0968 H         1 <0>         0.0702
     42 H4          5.4086    5.3208    5.5143 H         1 <0>         0.0806
     43 H5          4.9716    5.7461    3.8247 H         1 <0>         0.0432
     44 H6          5.3914    2.9111    4.9273 H         1 <0>         0.0453
     45 H7          3.8126    3.6677    4.5254 H         1 <0>         0.0800
     46 H8          6.9863    2.4474    3.1277 H         1 <0>         0.0439
     47 H9          6.5495    2.8728    1.4380 H         1 <0>         0.0822
     48 H10         6.5668    5.2834    2.0260 H         1 <0>         0.0435
     49 H11         8.1456    4.5267    2.4279 H         1 <0>         0.0809
     50 H12         4.7510    1.5012    1.6773 H         1 <0>         0.0884
     51 H13         4.6399    1.2285    3.4493 H         1 <0>         0.0645
     52 H14         2.3872    1.1305    2.4572 H         1 <0>         0.0740
     53 H15         2.5271    2.5951    3.4877 H         1 <0>         0.0694
     54 H16         0.5969    2.0668    2.9354 H         1 <0>         0.1439
     55 H17         1.6040    4.3933   -0.5062 H         1 <0>         0.1444
     56 H18         0.9260    4.6862   -2.0334 H         1 <0>         0.0882
     57 H19         0.0655    7.5433   -1.2427 H         1 <0>         0.0888
     58 H20         1.3079    6.5354   -0.4257 H         1 <0>         0.0870
     59 H21         2.3326    8.2352   -1.9624 H         1 <0>         0.1042
     60 H22         2.7001    6.5528   -2.4731 H         1 <0>         0.0567
     61 H23         0.3189    6.6811   -5.2308 H         1 <0>         0.1074
     62 H24         1.5176    5.6403   -4.3903 H         1 <0>         0.0576
     63 H25        -0.7839    4.9277   -3.8140 H         1 <0>         0.0886
     64 H26        -1.1747    6.5895   -3.2554 H         1 <0>         0.0878
     65 H27        -4.0231    2.3437    3.1652 H         1 <0>         0.1941
     66 H28        -2.5577    5.1627   -1.1897 H         1 <0>         0.4526
     67 H29        -7.6766    3.7060   -0.7472 H         1 <0>         0.1532
     68 H30        -8.3579    6.0688   -0.8071 H         1 <0>         0.1483
     69 H31        -4.9302    9.6134   -0.4826 H         1 <0>         0.1363
     70 H32        -5.0128    8.7986   -2.0813 H         1 <0>         0.0886
@<TRIPOS>BOND
     1    1    2 1
     2    1   39 1
     3    1   40 1
     4    1   41 1
     5    2    7 1
     6    2    3 1
     7    3    4 1
     8    3   42 1
     9    3   43 1
    10    4    5 1
    11    4   44 1
    12    4   45 1
    13    5    6 1
    14    5    8 1
    15    6    7 1
    16    6   46 1
    17    6   47 1
    18    7   48 1
    19    7   49 1
    20    8    9 1
    21    8   50 1
    22    8   51 1
    23    9   10 1
    24    9   52 1
    25    9   53 1
    26   10   11 1
    27   11   16 ar
    28   11   12 ar
    29   12   13 ar
    30   12   54 1
    31   13   27 ar
    32   13   14 ar
    33   14   15 ar
    34   14   24 ar
    35   15   16 ar
    36   15   17 1
    37   16   55 1
    38   17   18 1
    39   18   23 1
    40   18   19 1
    41   18   56 1
    42   19   20 1
    43   19   57 1
    44   19   58 1
    45   20   21 1
    46   20   59 1
    47   20   60 1
    48   21   22 1
    49   22   23 1
    50   22   61 1
    51   22   62 1
    52   23   63 1
    53   23   64 1
    54   24   25 ar
    55   24   28 1
    56   25   26 ar
    57   26   27 ar
    58   26   65 1
    59   28   29 1
    60   28   66 1
    61   29   34 ar
    62   29   30 ar
    63   30   31 ar
    64   30   38 1
    65   31   32 ar
    66   31   67 1
    67   32   33 ar
    68   32   68 1
    69   33   37 1
    70   33   34 ar
    71   34   35 1
    72   35   36 1
    73   36   37 1
    74   36   69 1
    75   36   70 1
@<TRIPOS>MOLECULE
ZINC06718813
   46    49     0     0     0
SMALL
USER_CHARGES
3-[4-(3-amino-1H-indazol-4-yl)phenyl]-1-(2-fluoro-5-methyl-phenyl)urea
@<TRIPOS>ATOM
      1 C1          6.9492   -0.6708   -4.4566 C.3       1 <0>        -0.1151
      2 C2          7.3188   -0.0066   -3.1554 C.ar      1 <0>        -0.0747
      3 C3          8.6152   -0.0905   -2.6815 C.ar      1 <0>        -0.1060
      4 C4          8.9590    0.5169   -1.4879 C.ar      1 <0>        -0.1295
      5 C5          8.0061    1.2101   -0.7639 C.ar      1 <0>         0.0645
      6 C6          6.7020    1.2957   -1.2387 C.ar      1 <0>         0.1336
      7 C7          6.3607    0.6802   -2.4351 C.ar      1 <0>        -0.0953
      8 N1          5.7336    1.9963   -0.5085 N.am      1 <0>        -0.6783
      9 C8          4.4547    1.5712   -0.5040 C.2       1 <0>         0.7069
     10 O1          4.1265    0.6239   -1.1921 O.2       1 <0>        -0.5500
     11 N2          3.5395    2.1961    0.2631 N.am      1 <0>        -0.6801
     12 C9          2.2409    1.6865    0.3572 C.ar      1 <0>         0.1677
     13 C10         1.1632    2.5541    0.4899 C.ar      1 <0>        -0.1430
     14 C11        -0.1180    2.0545    0.5834 C.ar      1 <0>        -0.0892
     15 C12        -0.3326    0.6766    0.5442 C.ar      1 <0>        -0.0682
     16 C13         0.7509   -0.1919    0.4104 C.ar      1 <0>        -0.0779
     17 C14         2.0300    0.3132    0.3174 C.ar      1 <0>        -0.1142
     18 C15        -1.7083    0.1367    0.6449 C.ar      1 <0>         0.0376
     19 C16        -2.0347   -0.7648    1.6483 C.ar      1 <0>        -0.1557
     20 C17        -3.3230   -1.2675    1.7456 C.ar      1 <0>        -0.0592
     21 C18        -4.2968   -0.8911    0.8473 C.ar      1 <0>        -0.1529
     22 C19        -3.9969    0.0086   -0.1734 C.ar      1 <0>         0.1547
     23 C20        -2.6946    0.5292   -0.2801 C.ar      1 <0>        -0.1858
     24 C21        -2.7034    1.4283   -1.4324 C.2       1 <0>         0.3642
     25 N3         -3.9099    1.4169   -1.9352 N.2       1 <0>        -0.3205
     26 N4         -4.7292    0.5606   -1.1926 N.pl3     1 <0>        -0.5119
     27 H1         -5.6955    0.3797   -1.3759 H         1 <0>         0.4473
     28 N5         -1.6172    2.1667   -1.9108 N.pl3     1 <0>        -0.8360
     29 F1          8.3418    1.8036    0.4023 F         1 <0>        -0.1384
     30 H2          6.6188   -1.6912   -4.2627 H         1 <0>         0.0755
     31 H3          6.1436   -0.1125   -4.9335 H         1 <0>         0.0695
     32 H4          7.8178   -0.6890   -5.1149 H         1 <0>         0.0704
     33 H5          9.3607   -0.6319   -3.2448 H         1 <0>         0.1352
     34 H6          9.9724    0.4496   -1.1204 H         1 <0>         0.1410
     35 H7          5.3477    0.7413   -2.8045 H         1 <0>         0.1523
     36 H8          5.9835    2.7876   -0.0061 H         1 <0>         0.4118
     37 H9          3.7818    2.9993    0.7499 H         1 <0>         0.4106
     38 H10         1.3298    3.6208    0.5203 H         1 <0>         0.1310
     39 H11        -0.9554    2.7293    0.6824 H         1 <0>         0.1315
     40 H12         0.5876   -1.2590    0.3794 H         1 <0>         0.1314
     41 H13         2.8692   -0.3587    0.2138 H         1 <0>         0.1391
     42 H14        -1.2822   -1.0738    2.3586 H         1 <0>         0.1292
     43 H15        -3.5651   -1.9655    2.5334 H         1 <0>         0.1325
     44 H16        -5.2951   -1.2940    0.9345 H         1 <0>         0.1278
     45 H17        -0.7342    2.0309   -1.5329 H         1 <0>         0.4118
     46 H18        -1.7465    2.8151   -2.6206 H         1 <0>         0.4050
@<TRIPOS>BOND
     1    1    2 1
     2    1   30 1
     3    1   31 1
     4    1   32 1
     5    2    7 ar
     6    2    3 ar
     7    3    4 ar
     8    3   33 1
     9    4    5 ar
    10    4   34 1
    11    5    6 ar
    12    5   29 1
    13    6    7 ar
    14    6    8 1
    15    7   35 1
    16    8    9 am
    17    8   36 1
    18    9   10 2
    19    9   11 am
    20   11   12 1
    21   11   37 1
    22   12   17 ar
    23   12   13 ar
    24   13   14 ar
    25   13   38 1
    26   14   15 ar
    27   14   39 1
    28   15   16 ar
    29   15   18 1
    30   16   17 ar
    31   16   40 1
    32   17   41 1
    33   18   23 ar
    34   18   19 ar
    35   19   20 ar
    36   19   42 1
    37   20   21 ar
    38   20   43 1
    39   21   22 ar
    40   21   44 1
    41   22   26 1
    42   22   23 ar
    43   23   24 1
    44   24   25 2
    45   24   28 1
    46   25   26 1
    47   26   27 1
    48   28   45 1
    49   28   46 1
@<TRIPOS>MOLECULE
ZINC03834198
   55    58     0     0     0
SMALL
USER_CHARGES

@<TRIPOS>ATOM
      1 C1          2.2102    1.3214   -1.5438 C.3       1 <0>        -0.0473
      2 N1          2.0302   -0.1310   -1.4177 N.4       1 <0>        -0.3861
      3 C2          2.8485   -0.8135   -2.4272 C.3       1 <0>        -0.0039
      4 C3          2.6029   -2.3220   -2.3537 C.3       1 <0>        -0.1426
      5 C4          2.9828   -2.8281   -0.9591 C.3       1 <0>        -0.0980
      6 C5          2.1768   -2.0570    0.0901 C.3       1 <0>        -0.1436
      7 C6          2.4382   -0.5583   -0.0740 C.3       1 <0>        -0.0065
      8 C7          2.6653   -4.3210   -0.8526 C.3       1 <0>         0.0553
      9 O1          3.1265   -4.8175    0.4056 O.3       1 <0>        -0.2959
     10 C8          2.9210   -6.1358    0.6612 C.ar      1 <0>         0.1621
     11 C9          2.2972   -6.9233   -0.2811 C.ar      1 <0>        -0.1791
     12 C10         2.0867   -8.2816   -0.0149 C.ar      1 <0>         0.2018
     13 C11         2.5192   -8.8246    1.2204 C.ar      1 <0>        -0.1784
     14 C12         3.1508   -8.0026    2.1612 C.ar      1 <0>        -0.1424
     15 C13         3.3512   -6.6812    1.8787 C.ar      1 <0>         0.1099
     16 O2          3.9702   -5.8850    2.7909 O.3       1 <0>        -0.3030
     17 C14         4.3854   -6.4992    4.0125 C.3       1 <0>         0.0198
     18 C15         2.2930  -10.2009    1.4605 C.ar      1 <0>         0.4667
     19 N2          1.6881  -10.9114    0.5174 N.ar      1 <0>        -0.5768
     20 C16         1.3012  -10.3606   -0.6222 C.ar      1 <0>         0.3478
     21 N3          1.4842   -9.0917   -0.8996 N.ar      1 <0>        -0.5414
     22 N4          2.6915  -10.7885    2.6441 N.pl3     1 <0>        -0.6296
     23 C17         2.5831  -12.1741    2.8088 C.ar      1 <0>         0.1376
     24 C18         2.4560  -12.9987    1.6992 C.ar      1 <0>        -0.1039
     25 C19         2.3491  -14.3660    1.8644 C.ar      1 <0>        -0.0732
     26 C20         2.3685  -14.9152    3.1341 C.ar      1 <0>        -0.0857
     27 C21         2.4949  -14.0974    4.2430 C.ar      1 <0>        -0.1007
     28 C22         2.6081  -12.7284    4.0841 C.ar      1 <0>         0.0686
     29 F1          2.7372  -11.9301    5.1664 F         1 <0>        -0.1332
     30 Br1         2.2212  -16.7875    3.3546 Br        1 <0>        -0.0295
     31 H1          3.2589    1.5727   -1.3848 H         1 <0>         0.1219
     32 H2          1.9075    1.6398   -2.5414 H         1 <0>         0.1242
     33 H3          1.5979    1.8295   -0.7989 H         1 <0>         0.1242
     34 H4          2.5792   -0.4499   -3.4189 H         1 <0>         0.1343
     35 H5          3.9024   -0.6078   -2.2397 H         1 <0>         0.1306
     36 H6          1.5493   -2.5288   -2.5414 H         1 <0>         0.0934
     37 H7          3.2127   -2.8271   -3.1028 H         1 <0>         0.1176
     38 H8          4.0478   -2.6678   -0.7908 H         1 <0>         0.1030
     39 H9          1.1143   -2.2583   -0.0469 H         1 <0>         0.0893
     40 H10         2.4820   -2.3726    1.0878 H         1 <0>         0.1210
     41 H11         3.5008   -0.3580    0.0634 H         1 <0>         0.1299
     42 H12         1.8660   -0.0063    0.6716 H         1 <0>         0.1325
     43 H13         1.5883   -4.4698   -0.9292 H         1 <0>         0.0742
     44 H14         3.1645   -4.8571   -1.6597 H         1 <0>         0.0787
     45 H15         1.9724   -6.4960   -1.2182 H         1 <0>         0.1540
     46 H16         3.4818   -8.4122    3.1042 H         1 <0>         0.1414
     47 H17         4.8638   -5.7549    4.6491 H         1 <0>         0.1093
     48 H18         3.5165   -6.9116    4.5254 H         1 <0>         0.0597
     49 H19         5.0925   -7.2996    3.7947 H         1 <0>         0.0600
     50 H20         0.8133  -10.9840   -1.3569 H         1 <0>         0.2036
     51 H21         3.0467  -10.2411    3.3618 H         1 <0>         0.4241
     52 H22         2.4404  -12.5714    0.7074 H         1 <0>         0.1818
     53 H23         2.2499  -15.0072    1.0010 H         1 <0>         0.1463
     54 H24         2.5094  -14.5289    5.2329 H         1 <0>         0.1515
     55 H25         1.0589   -0.3624   -1.5626 H         1 <0>         0.4246
@<TRIPOS>BOND
     1    1    2 1
     2    1   31 1
     3    1   32 1
     4    1   33 1
     5    2    7 1
     6    2    3 1
     7    2   55 1
     8    3    4 1
     9    3   34 1
    10    3   35 1
    11    4    5 1
    12    4   36 1
    13    4   37 1
    14    5    6 1
    15    5    8 1
    16    5   38 1
    17    6    7 1
    18    6   39 1
    19    6   40 1
    20    7   41 1
    21    7   42 1
    22    8    9 1
    23    8   43 1
    24    8   44 1
    25    9   10 1
    26   10   15 ar
    27   10   11 ar
    28   11   12 ar
    29   11   45 1
    30   12   21 ar
    31   12   13 ar
    32   13   14 ar
    33   13   18 ar
    34   14   15 ar
    35   14   46 1
    36   15   16 1
    37   16   17 1
    38   17   47 1
    39   17   48 1
    40   17   49 1
    41   18   19 ar
    42   18   22 1
    43   19   20 ar
    44   20   21 ar
    45   20   50 1
    46   22   23 1
    47   22   51 1
    48   23   28 ar
    49   23   24 ar
    50   24   25 ar
    51   24   52 1
    52   25   26 ar
    53   25   53 1
    54   26   27 ar
    55   26   30 1
    56   27   28 ar
    57   27   54 1
    58   28   29 1
@<TRIPOS>MOLECULE
ZINC09366804
   35    37     0     0     0
SMALL
USER_CHARGES
N-[5-[(4-bromophenyl)methylsulfanyl]-1,3,4-thiadiazol-2-yl]-2-chloro-benzamide
@<TRIPOS>ATOM
      1 C1          1.3399  -12.7112   -2.8041 C.ar      1 <0>        -0.1209
      2 C2          1.3609  -13.6154   -1.7562 C.ar      1 <0>        -0.0726
      3 C3          1.3673  -13.1678   -0.4480 C.ar      1 <0>        -0.1173
      4 C4          1.3523  -11.8130   -0.1784 C.ar      1 <0>         0.0186
      5 C5          1.3310  -10.8954   -1.2318 C.ar      1 <0>        -0.1319
      6 C6          1.3193  -11.3560   -2.5501 C.ar      1 <0>        -0.0745
      7 C7          1.3149   -9.4449   -0.9523 C.2       1 <0>         0.5506
      8 O1          1.3201   -9.0471    0.1966 O.2       1 <0>        -0.4374
      9 N1          1.2944   -8.5626   -1.9709 N.am      1 <0>        -0.6091
     10 C8          1.2792   -7.1961   -1.7076 C.2       1 <0>         0.2866
     11 N2          1.2809   -6.5528   -0.5514 N.2       1 <0>        -0.2685
     12 N3          1.2647   -5.2933   -0.4872 N.2       1 <0>        -0.2557
     13 C9          1.2450   -4.5366   -1.5748 C.2       1 <0>         0.0101
     14 S1          1.2428   -5.8069   -2.8367 S.3       1 <0>         0.0457
     15 S2          1.2203   -2.7820   -1.7337 S.3       1 <0>         0.0623
     16 C10         1.2283   -2.1860   -0.0204 C.3       1 <0>        -0.0750
     17 C11         1.2084   -0.6791   -0.0127 C.ar      1 <0>        -0.0691
     18 C12         0.0021   -0.0041    0.0020 C.ar      1 <0>        -0.0910
     19 C13        -0.0167    1.3780    0.0096 C.ar      1 <0>        -0.0898
     20 C14         1.1718    2.0856    0.0021 C.ar      1 <0>        -0.0810
     21 C15         2.3786    1.4097   -0.0135 C.ar      1 <0>        -0.0898
     22 C16         2.3964    0.0277   -0.0207 C.ar      1 <0>        -0.0909
     23 Br1         1.1469    3.9764    0.0125 Br        1 <0>        -0.0438
     24 Cl1         1.3592  -11.2522    1.4645 Cl        1 <0>        -0.0218
     25 H1          1.3350  -13.0682   -3.8234 H         1 <0>         0.1406
     26 H2          1.3720  -14.6757   -1.9615 H         1 <0>         0.1419
     27 H3          1.3837  -13.8789    0.3648 H         1 <0>         0.1453
     28 H4          1.2981  -10.6522   -3.3690 H         1 <0>         0.1344
     29 H5          1.2903   -8.8800   -2.8875 H         1 <0>         0.4268
     30 H6          2.1278   -2.5401    0.4832 H         1 <0>         0.1124
     31 H7          0.3480   -2.5637    0.4997 H         1 <0>         0.1123
     32 H8         -0.9258   -0.5567    0.0079 H         1 <0>         0.1379
     33 H9         -0.9592    1.9053    0.0170 H         1 <0>         0.1382
     34 H10         3.3068    1.9618   -0.0194 H         1 <0>         0.1382
     35 H11         3.3386   -0.5001   -0.0321 H         1 <0>         0.1380
@<TRIPOS>BOND
     1    1    6 ar
     2    1    2 ar
     3    1   25 1
     4    2    3 ar
     5    2   26 1
     6    3    4 ar
     7    3   27 1
     8    4    5 ar
     9    4   24 1
    10    5    6 ar
    11    5    7 1
    12    6   28 1
    13    7    8 2
    14    7    9 am
    15    9   10 1
    16    9   29 1
    17   10   14 1
    18   10   11 2
    19   11   12 1
    20   12   13 2
    21   13   14 1
    22   13   15 1
    23   15   16 1
    24   16   17 1
    25   16   30 1
    26   16   31 1
    27   17   22 ar
    28   17   18 ar
    29   18   19 ar
    30   18   32 1
    31   19   20 ar
    32   19   33 1
    33   20   21 ar
    34   20   23 1
    35   21   22 ar
    36   21   34 1
    37   22   35 1
@<TRIPOS>MOLECULE
ZINC06219294
   35    37     0     0     0
SMALL
USER_CHARGES
4-chloro-N-[5-[(4-fluorophenyl)methylsulfanyl]-1,3,4-thiadiazol-2-yl]-benzamide
@<TRIPOS>ATOM
      1 C1          2.2675  -11.6011   -1.2855 C.ar      1 <0>        -0.0668
      2 C2          2.5515  -12.9536   -1.2976 C.ar      1 <0>        -0.1532
      3 C3          2.7031  -13.6393   -0.1044 C.ar      1 <0>         0.1117
      4 C4          2.5753  -12.9680    1.0998 C.ar      1 <0>        -0.1531
      5 C5          2.2965  -11.6144    1.1094 C.ar      1 <0>        -0.0668
      6 C6          2.1453  -10.9308   -0.0826 C.ar      1 <0>        -0.0969
      7 C7          1.8409   -9.4549   -0.0708 C.3       1 <0>        -0.0707
      8 S1          3.3936   -8.5171   -0.0802 S.3       1 <0>         0.0606
      9 C8          2.8747   -6.8333   -0.0650 C.2       1 <0>         0.0122
     10 N1          1.6540   -6.3181   -0.0505 N.2       1 <0>        -0.2571
     11 N2          1.4559   -5.0726   -0.0409 N.2       1 <0>        -0.2686
     12 C9          2.4539   -4.2038   -0.0449 C.2       1 <0>         0.2822
     13 S2          3.8462   -5.3292   -0.0717 S.3       1 <0>         0.0483
     14 N3          2.4285   -2.8123   -0.0367 N.am      1 <0>        -0.6088
     15 C10         1.2492   -2.1599   -0.0219 C.2       1 <0>         0.5588
     16 O1          0.2076   -2.7870   -0.0158 O.2       1 <0>        -0.4574
     17 C11         1.2223   -0.6828   -0.0133 C.ar      1 <0>        -0.1322
     18 C12         0.0021   -0.0041    0.0020 C.ar      1 <0>        -0.0381
     19 C13        -0.0166    1.3747    0.0096 C.ar      1 <0>        -0.1144
     20 C14         1.1717    2.0863    0.0021 C.ar      1 <0>        -0.0054
     21 C15         2.3853    1.4187   -0.0131 C.ar      1 <0>        -0.1149
     22 C16         2.4169    0.0401   -0.0208 C.ar      1 <0>        -0.0728
     23 Cl1         1.1400    3.8220    0.0111 Cl        1 <0>        -0.0526
     24 F1          2.9761  -14.9624   -0.1150 F         1 <0>        -0.1354
     25 H1          2.1451  -11.0669   -2.2160 H         1 <0>         0.1390
     26 H2          2.6510  -13.4763   -2.2375 H         1 <0>         0.1411
     27 H3          2.6937  -13.5018    2.0311 H         1 <0>         0.1411
     28 H4          2.1971  -11.0904    2.0485 H         1 <0>         0.1390
     29 H5          1.2729   -9.2083    0.8263 H         1 <0>         0.1116
     30 H6          1.2556   -9.1976   -0.9535 H         1 <0>         0.1115
     31 H7          3.2595   -2.3121   -0.0416 H         1 <0>         0.4284
     32 H8         -0.9251   -0.5578    0.0082 H         1 <0>         0.1512
     33 H9         -0.9598    1.9008    0.0169 H         1 <0>         0.1469
     34 H10         3.3085    1.9789   -0.0185 H         1 <0>         0.1455
     35 H11         3.3637   -0.4793   -0.0322 H         1 <0>         0.1361
@<TRIPOS>BOND
     1    1    6 ar
     2    1    2 ar
     3    1   25 1
     4    2    3 ar
     5    2   26 1
     6    3    4 ar
     7    3   24 1
     8    4    5 ar
     9    4   27 1
    10    5    6 ar
    11    5   28 1
    12    6    7 1
    13    7    8 1
    14    7   29 1
    15    7   30 1
    16    8    9 1
    17    9   13 1
    18    9   10 2
    19   10   11 1
    20   11   12 2
    21   12   13 1
    22   12   14 1
    23   14   15 am
    24   14   31 1
    25   15   16 2
    26   15   17 1
    27   17   22 ar
    28   17   18 ar
    29   18   19 ar
    30   18   32 1
    31   19   20 ar
    32   19   33 1
    33   20   21 ar
    34   20   23 1
    35   21   22 ar
    36   21   34 1
    37   22   35 1
@<TRIPOS>MOLECULE
ZINC09366812
   35    37     0     0     0
SMALL
USER_CHARGES
N-[5-[(4-bromophenyl)methylsulfanyl]-1,3,4-thiadiazol-2-yl]-4-fluoro-benzamide
@<TRIPOS>ATOM
      1 C1          2.2631  -11.6016   -1.2857 C.ar      1 <0>        -0.0909
      2 C2          2.5464  -12.9544   -1.2973 C.ar      1 <0>        -0.0898
      3 C3          2.6973  -13.6394   -0.1051 C.ar      1 <0>        -0.0809
      4 C4          2.5696  -12.9691    1.0982 C.ar      1 <0>        -0.0898
      5 C5          2.2915  -11.6153    1.1087 C.ar      1 <0>        -0.0909
      6 C6          2.1408  -10.9311   -0.0830 C.ar      1 <0>        -0.0695
      7 C7          1.8370   -9.4550   -0.0710 C.3       1 <0>        -0.0751
      8 S1          3.3902   -8.5179   -0.0800 S.3       1 <0>         0.0636
      9 C8          2.8721   -6.8339   -0.0646 C.2       1 <0>         0.0110
     10 N1          1.6516   -6.3182   -0.0503 N.2       1 <0>        -0.2566
     11 N2          1.4541   -5.0726   -0.0410 N.2       1 <0>        -0.2688
     12 C9          2.4524   -4.2042   -0.0450 C.2       1 <0>         0.2832
     13 S2          3.8443   -5.3303   -0.0719 S.3       1 <0>         0.0488
     14 N3          2.4276   -2.8127   -0.0368 N.am      1 <0>        -0.6091
     15 C10         1.2487   -2.1598   -0.0220 C.2       1 <0>         0.5603
     16 O1          0.2067   -2.7864   -0.0158 O.2       1 <0>        -0.4588
     17 C11         1.2224   -0.6833   -0.0133 C.ar      1 <0>        -0.1485
     18 C12         0.0021   -0.0041    0.0020 C.ar      1 <0>        -0.0209
     19 C13        -0.0166    1.3741    0.0096 C.ar      1 <0>        -0.1582
     20 C14         1.1731    2.0862    0.0021 C.ar      1 <0>         0.1356
     21 C15         2.3874    1.4170   -0.0132 C.ar      1 <0>        -0.1585
     22 C16         2.4178    0.0391   -0.0209 C.ar      1 <0>        -0.0554
     23 F1          1.1491    3.4370    0.0096 F         1 <0>        -0.1287
     24 Br1         3.0785  -15.4915   -0.1202 Br        1 <0>        -0.0436
     25 H1          2.1412  -11.0675   -2.2165 H         1 <0>         0.1380
     26 H2          2.6464  -13.4772   -2.2370 H         1 <0>         0.1383
     27 H3          2.6877  -13.5035    2.0292 H         1 <0>         0.1383
     28 H4          2.1921  -11.0918    2.0481 H         1 <0>         0.1380
     29 H5          1.2690   -9.2083    0.8259 H         1 <0>         0.1125
     30 H6          1.2521   -9.1973   -0.9539 H         1 <0>         0.1125
     31 H7          3.2589   -2.3128   -0.0418 H         1 <0>         0.4283
     32 H8         -0.9252   -0.5577    0.0083 H         1 <0>         0.1519
     33 H9         -0.9597    1.9003    0.0169 H         1 <0>         0.1491
     34 H10         3.3112    1.9766   -0.0187 H         1 <0>         0.1478
     35 H11         3.3642   -0.4812   -0.0324 H         1 <0>         0.1368
@<TRIPOS>BOND
     1    1    6 ar
     2    1    2 ar
     3    1   25 1
     4    2    3 ar
     5    2   26 1
     6    3    4 ar
     7    3   24 1
     8    4    5 ar
     9    4   27 1
    10    5    6 ar
    11    5   28 1
    12    6    7 1
    13    7    8 1
    14    7   29 1
    15    7   30 1
    16    8    9 1
    17    9   13 1
    18    9   10 2
    19   10   11 1
    20   11   12 2
    21   12   13 1
    22   12   14 1
    23   14   15 am
    24   14   31 1
    25   15   16 2
    26   15   17 1
    27   17   22 ar
    28   17   18 ar
    29   18   19 ar
    30   18   32 1
    31   19   20 ar
    32   19   33 1
    33   20   21 ar
    34   20   23 1
    35   21   22 ar
    36   21   34 1
    37   22   35 1
@<TRIPOS>MOLECULE
ZINC04078304
   35    37     0     0     0
SMALL
USER_CHARGES
4-chloro-N-[5-[(3-fluorophenyl)methylsulfanyl]-1,3,4-thiadiazol-2-yl]-benzamide
@<TRIPOS>ATOM
      1 C1          2.5747  -12.9687    1.0997 C.ar      1 <0>        -0.0881
      2 C2          2.2958  -11.6145    1.1088 C.ar      1 <0>        -0.1078
      3 C3          2.1453  -10.9308   -0.0830 C.ar      1 <0>        -0.0559
      4 C4          2.2683  -11.6013   -1.2854 C.ar      1 <0>        -0.1334
      5 C5          2.5528  -12.9562   -1.2958 C.ar      1 <0>         0.1011
      6 C6          2.7033  -13.6401   -0.1011 C.ar      1 <0>        -0.1423
      7 F1          2.6782  -13.6116   -2.4705 F         1 <0>        -0.1354
      8 C7          1.8408   -9.4549   -0.0714 C.3       1 <0>        -0.0741
      9 S1          3.3936   -8.5171   -0.0800 S.3       1 <0>         0.0645
     10 C8          2.8747   -6.8333   -0.0652 C.2       1 <0>         0.0112
     11 N1          1.6540   -6.3181   -0.0506 N.2       1 <0>        -0.2567
     12 N2          1.4559   -5.0726   -0.0410 N.2       1 <0>        -0.2685
     13 C9          2.4539   -4.2038   -0.0450 C.2       1 <0>         0.2824
     14 S2          3.8462   -5.3292   -0.0719 S.3       1 <0>         0.0498
     15 N3          2.4285   -2.8123   -0.0368 N.am      1 <0>        -0.6087
     16 C10         1.2492   -2.1599   -0.0220 C.2       1 <0>         0.5588
     17 O1          0.2076   -2.7870   -0.0158 O.2       1 <0>        -0.4573
     18 C11         1.2223   -0.6828   -0.0133 C.ar      1 <0>        -0.1321
     19 C12         0.0021   -0.0041    0.0020 C.ar      1 <0>        -0.0381
     20 C13        -0.0166    1.3747    0.0096 C.ar      1 <0>        -0.1144
     21 C14         1.1717    2.0863    0.0021 C.ar      1 <0>        -0.0054
     22 C15         2.3853    1.4187   -0.0132 C.ar      1 <0>        -0.1149
     23 C16         2.4169    0.0401   -0.0209 C.ar      1 <0>        -0.0728
     24 Cl1         1.1400    3.8220    0.0118 Cl        1 <0>        -0.0526
     25 H1          2.6917  -13.5020    2.0315 H         1 <0>         0.1391
     26 H2          2.1951  -11.0906    2.0478 H         1 <0>         0.1360
     27 H3          2.1466  -11.0677   -2.2165 H         1 <0>         0.1410
     28 H4          2.9208  -14.6980   -0.1080 H         1 <0>         0.1396
     29 H5          1.2723   -9.2082    0.8252 H         1 <0>         0.1143
     30 H6          1.2561   -9.1976   -0.9546 H         1 <0>         0.1125
     31 H7          3.2595   -2.3121   -0.0418 H         1 <0>         0.4285
     32 H8         -0.9251   -0.5578    0.0083 H         1 <0>         0.1512
     33 H9         -0.9598    1.9008    0.0169 H         1 <0>         0.1469
     34 H10         3.3085    1.9789   -0.0187 H         1 <0>         0.1456
     35 H11         3.3637   -0.4793   -0.0324 H         1 <0>         0.1362
@<TRIPOS>BOND
     1    1    6 ar
     2    1    2 ar
     3    1   25 1
     4    2    3 ar
     5    2   26 1
     6    3    4 ar
     7    3    8 1
     8    4    5 ar
     9    4   27 1
    10    5    6 ar
    11    5    7 1
    12    6   28 1
    13    8    9 1
    14    8   29 1
    15    8   30 1
    16    9   10 1
    17   10   14 1
    18   10   11 2
    19   11   12 1
    20   12   13 2
    21   13   14 1
    22   13   15 1
    23   15   16 am
    24   15   31 1
    25   16   17 2
    26   16   18 1
    27   18   23 ar
    28   18   19 ar
    29   19   20 ar
    30   19   32 1
    31   20   21 ar
    32   20   33 1
    33   21   22 ar
    34   21   24 1
    35   22   23 ar
    36   22   34 1
    37   23   35 1
@<TRIPOS>MOLECULE
ZINC06219291
   35    37     0     0     0
SMALL
USER_CHARGES
4-fluoro-N-[5-[(4-fluorophenyl)methylsulfanyl]-1,3,4-thiadiazol-2-yl]-benzamide
@<TRIPOS>ATOM
      1 C1          2.2630  -11.6013   -1.2860 C.ar      1 <0>        -0.0668
      2 C2          2.5463  -12.9539   -1.2983 C.ar      1 <0>        -0.1532
      3 C3          2.6974  -13.6399   -0.1051 C.ar      1 <0>         0.1116
      4 C4          2.5695  -12.9686    1.0991 C.ar      1 <0>        -0.1531
      5 C5          2.2914  -11.6150    1.1089 C.ar      1 <0>        -0.0668
      6 C6          2.1408  -10.9311   -0.0830 C.ar      1 <0>        -0.0970
      7 C7          1.8370   -9.4550   -0.0710 C.3       1 <0>        -0.0706
      8 S1          3.3902   -8.5179   -0.0800 S.3       1 <0>         0.0603
      9 C8          2.8721   -6.8339   -0.0646 C.2       1 <0>         0.0121
     10 N1          1.6516   -6.3182   -0.0503 N.2       1 <0>        -0.2570
     11 N2          1.4541   -5.0726   -0.0410 N.2       1 <0>        -0.2688
     12 C9          2.4524   -4.2042   -0.0450 C.2       1 <0>         0.2828
     13 S2          3.8443   -5.3303   -0.0719 S.3       1 <0>         0.0476
     14 N3          2.4276   -2.8127   -0.0368 N.am      1 <0>        -0.6092
     15 C10         1.2487   -2.1598   -0.0220 C.2       1 <0>         0.5602
     16 O1          0.2067   -2.7864   -0.0158 O.2       1 <0>        -0.4589
     17 C11         1.2224   -0.6833   -0.0133 C.ar      1 <0>        -0.1485
     18 C12         0.0021   -0.0041    0.0020 C.ar      1 <0>        -0.0210
     19 C13        -0.0166    1.3741    0.0096 C.ar      1 <0>        -0.1582
     20 C14         1.1731    2.0862    0.0021 C.ar      1 <0>         0.1355
     21 C15         2.3874    1.4170   -0.0132 C.ar      1 <0>        -0.1585
     22 C16         2.4178    0.0391   -0.0209 C.ar      1 <0>        -0.0554
     23 F1          1.1491    3.4370    0.0096 F         1 <0>        -0.1288
     24 F2          2.9697  -14.9631   -0.1159 F         1 <0>        -0.1354
     25 H1          2.1411  -11.0668   -2.2165 H         1 <0>         0.1390
     26 H2          2.6458  -13.4764   -2.2382 H         1 <0>         0.1410
     27 H3          2.6875  -13.5026    2.0304 H         1 <0>         0.1410
     28 H4          2.1920  -11.0911    2.0481 H         1 <0>         0.1390
     29 H5          1.2690   -9.2083    0.8259 H         1 <0>         0.1116
     30 H6          1.2521   -9.1973   -0.9539 H         1 <0>         0.1115
     31 H7          3.2589   -2.3128   -0.0418 H         1 <0>         0.4282
     32 H8         -0.9252   -0.5577    0.0083 H         1 <0>         0.1519
     33 H9         -0.9597    1.9003    0.0169 H         1 <0>         0.1491
     34 H10         3.3112    1.9766   -0.0187 H         1 <0>         0.1478
     35 H11         3.3642   -0.4812   -0.0324 H         1 <0>         0.1368
@<TRIPOS>BOND
     1    1    6 ar
     2    1    2 ar
     3    1   25 1
     4    2    3 ar
     5    2   26 1
     6    3    4 ar
     7    3   24 1
     8    4    5 ar
     9    4   27 1
    10    5    6 ar
    11    5   28 1
    12    6    7 1
    13    7    8 1
    14    7   29 1
    15    7   30 1
    16    8    9 1
    17    9   13 1
    18    9   10 2
    19   10   11 1
    20   11   12 2
    21   12   13 1
    22   12   14 1
    23   14   15 am
    24   14   31 1
    25   15   16 2
    26   15   17 1
    27   17   22 ar
    28   17   18 ar
    29   18   19 ar
    30   18   32 1
    31   19   20 ar
    32   19   33 1
    33   20   21 ar
    34   20   23 1
    35   21   22 ar
    36   21   34 1
    37   22   35 1
@<TRIPOS>MOLECULE
ZINC06716957
   61    65     0     0     0
SMALL
USER_CHARGES
4-methyl-N-[3-(4-methylimidazol-1-yl)-5-(trifluoromethyl)phenyl]-3-[4-(3-pyridyl)pyrimidin-2-yl]amino-benzamide
@<TRIPOS>ATOM
      1 C1          4.8797   -3.9669    0.1547 C.3       1 <0>        -0.1225
      2 C2          3.5754   -4.7217    0.1669 C.ar      1 <0>        -0.0869
      3 C3          3.5795   -6.1039    0.1964 C.ar      1 <0>        -0.1014
      4 C4          2.3894   -6.8021    0.2020 C.ar      1 <0>        -0.1034
      5 C5          1.1753   -6.1126    0.1832 C.ar      1 <0>        -0.1270
      6 C6          1.1710   -4.7182    0.1589 C.ar      1 <0>        -0.0590
      7 C7          2.3724   -4.0259    0.1535 C.ar      1 <0>         0.1619
      8 N1          2.3736   -2.6277    0.1286 N.pl3     1 <0>        -0.6325
      9 C8          1.2893   -1.9432   -0.3959 C.ar      1 <0>         0.5614
     10 N2          0.3200   -2.6260   -0.9883 N.ar      1 <0>        -0.5534
     11 C9         -0.7320   -2.0090   -1.5021 C.ar      1 <0>         0.1977
     12 C10        -0.8164   -0.6303   -1.4172 C.ar      1 <0>        -0.2657
     13 C11         0.2206    0.0624   -0.7871 C.ar      1 <0>         0.2658
     14 N3          1.2507   -0.6239   -0.2975 N.ar      1 <0>        -0.5571
     15 C12         0.1772    1.5403   -0.6710 C.ar      1 <0>        -0.1169
     16 C13         1.2145    2.2342   -0.0406 C.ar      1 <0>        -0.0276
     17 C14         1.1266    3.6129    0.0420 C.ar      1 <0>        -0.1784
     18 C15         0.0258    4.2543   -0.4966 C.ar      1 <0>         0.1175
     19 N4         -0.9376    3.5726   -1.0856 N.ar      1 <0>        -0.4841
     20 C16        -0.8952    2.2604   -1.1934 C.ar      1 <0>         0.1340
     21 C17        -0.1012   -6.8583    0.1887 C.2       1 <0>         0.5673
     22 O1         -1.1570   -6.2560    0.1719 O.2       1 <0>        -0.5061
     23 N5         -0.0944   -8.2058    0.2122 N.am      1 <0>        -0.6669
     24 C18        -1.2963   -8.9130    0.1072 C.ar      1 <0>         0.1849
     25 C19        -1.4127  -10.1752    0.6766 C.ar      1 <0>        -0.1112
     26 C20        -2.6011  -10.8720    0.5773 C.ar      1 <0>        -0.1296
     27 C21        -3.6741  -10.3211   -0.0973 C.ar      1 <0>        -0.1084
     28 C22        -3.5624   -9.0626   -0.6729 C.ar      1 <0>         0.1652
     29 C23        -2.3721   -8.3576   -0.5706 C.ar      1 <0>        -0.1152
     30 N6         -4.6520   -8.5044   -1.3568 N.pl3     1 <0>        -0.4135
     31 C24        -4.6878   -7.2792   -1.9710 C.2       1 <0>        -0.0484
     32 C25        -5.9185   -7.1442   -2.5004 C.2       1 <0>         0.0096
     33 N7         -6.6190   -8.2532   -2.2203 N.2       1 <0>        -0.4758
     34 C26        -5.8695   -9.0779   -1.5408 C.2       1 <0>         0.1944
     35 C27        -6.4219   -5.9529   -3.2741 C.3       1 <0>        -0.0703
     36 C28        -2.7260  -12.2385    1.2004 C.3       1 <0>         0.5133
     37 F1         -2.3418  -13.2115    0.2714 F         1 <0>        -0.1709
     38 F2         -1.8981  -12.3154    2.3255 F         1 <0>        -0.1721
     39 F3         -4.0538  -12.4572    1.5826 F         1 <0>        -0.1717
     40 H1          5.1932   -3.7667    1.1793 H         1 <0>         0.0780
     41 H2          5.6404   -4.5642   -0.3479 H         1 <0>         0.0781
     42 H3          4.7488   -3.0240   -0.3761 H         1 <0>         0.0665
     43 H4          4.5175   -6.6391    0.2106 H         1 <0>         0.1366
     44 H5          2.3969   -7.8819    0.2212 H         1 <0>         0.1267
     45 H6          0.2351   -4.1794    0.1439 H         1 <0>         0.1656
     46 H7          3.1337   -2.1370    0.4786 H         1 <0>         0.4259
     47 H8         -1.5163   -2.5753   -1.9823 H         1 <0>         0.1768
     48 H9         -1.6642   -0.1022   -1.8280 H         1 <0>         0.1524
     49 H10         2.0625    1.7077    0.3717 H         1 <0>         0.1463
     50 H11         1.9093    4.1820    0.5216 H         1 <0>         0.1425
     51 H12        -0.0458    5.3301   -0.4343 H         1 <0>         0.1622
     52 H13        -1.7012    1.7376   -1.6869 H         1 <0>         0.1630
     53 H14         0.7441   -8.6851    0.3020 H         1 <0>         0.4178
     54 H15        -0.5744  -10.6101    1.2006 H         1 <0>         0.1488
     55 H16        -4.6008  -10.8701   -0.1765 H         1 <0>         0.1477
     56 H17        -2.2829   -7.3787   -1.0179 H         1 <0>         0.1618
     57 H18        -3.8832   -6.5605   -2.0210 H         1 <0>         0.1795
     58 H19        -6.1682  -10.0519   -1.1825 H         1 <0>         0.2113
     59 H20        -6.2142   -6.0943   -4.3347 H         1 <0>         0.0711
     60 H21        -7.4967   -5.8505   -3.1248 H         1 <0>         0.0731
     61 H22        -5.9187   -5.0522   -2.9223 H         1 <0>         0.0710
@<TRIPOS>BOND
     1    1    2 1
     2    1   40 1
     3    1   41 1
     4    1   42 1
     5    2    7 ar
     6    2    3 ar
     7    3    4 ar
     8    3   43 1
     9    4    5 ar
    10    4   44 1
    11    5    6 ar
    12    5   21 1
    13    6    7 ar
    14    6   45 1
    15    7    8 1
    16    8    9 1
    17    8   46 1
    18    9   14 ar
    19    9   10 ar
    20   10   11 ar
    21   11   12 ar
    22   11   47 1
    23   12   13 ar
    24   12   48 1
    25   13   14 ar
    26   13   15 1
    27   15   20 ar
    28   15   16 ar
    29   16   17 ar
    30   16   49 1
    31   17   18 ar
    32   17   50 1
    33   18   19 ar
    34   18   51 1
    35   19   20 ar
    36   20   52 1
    37   21   22 2
    38   21   23 am
    39   23   24 1
    40   23   53 1
    41   24   29 ar
    42   24   25 ar
    43   25   26 ar
    44   25   54 1
    45   26   27 ar
    46   26   36 1
    47   27   28 ar
    48   27   55 1
    49   28   29 ar
    50   28   30 1
    51   29   56 1
    52   30   34 1
    53   30   31 1
    54   31   32 2
    55   31   57 1
    56   32   33 1
    57   32   35 1
    58   33   34 2
    59   34   58 1
    60   35   59 1
    61   35   60 1
    62   35   61 1
    63   36   37 1
    64   36   38 1
    65   36   39 1
@<TRIPOS>MOLECULE
ZINC18825334
   48    52     0     0     0
SMALL
USER_CHARGES
4-[[9-chloro-7-(2,6-difluorophenyl)-5H-pyrimido[5,4-d][2]benzazepin-2-yl]amino]benzoic acid
@<TRIPOS>ATOM
      1 C1          2.2776    0.3903   -0.5698 C.ar      1 <0>        -0.0509
      2 C2          1.1421    1.1799   -0.5633 C.ar      1 <0>        -0.1622
      3 C3         -0.1043    0.6031   -0.4066 C.ar      1 <0>         0.1578
      4 C4         -0.2153   -0.7818   -0.2549 C.ar      1 <0>        -0.1229
      5 C5          0.9369   -1.5728   -0.2630 C.ar      1 <0>         0.1499
      6 C6          2.1761   -0.9809   -0.4208 C.ar      1 <0>        -0.1633
      7 F1          0.8397   -2.9124   -0.1175 F         1 <0>        -0.1231
      8 C7         -1.5453   -1.4071   -0.0861 C.2       1 <0>         0.2536
      9 N1         -2.1650   -1.7678   -1.1512 N.2       1 <0>        -0.4634
     10 C8         -3.4819   -2.3942   -1.1195 C.3       1 <0>         0.0964
     11 C9         -4.4898   -1.4068   -0.6038 C.ar      1 <0>        -0.2574
     12 C10        -5.5098   -0.9746   -1.4374 C.ar      1 <0>         0.2162
     13 N2         -6.3794   -0.0861   -0.9844 N.ar      1 <0>        -0.5366
     14 C11        -6.2835    0.3896    0.2490 C.ar      1 <0>         0.5701
     15 N3         -5.3286   -0.0031    1.0745 N.ar      1 <0>        -0.5552
     16 C12        -4.4183   -0.9022    0.6848 C.ar      1 <0>         0.2552
     17 C13        -3.3769   -1.3202    1.6484 C.ar      1 <0>        -0.0142
     18 C14        -2.0497   -1.5581    1.2881 C.ar      1 <0>        -0.0587
     19 C15        -1.1358   -1.9616    2.2712 C.ar      1 <0>        -0.0846
     20 C16        -1.5377   -2.1181    3.5805 C.ar      1 <0>        -0.0213
     21 C17        -2.8549   -1.8776    3.9370 C.ar      1 <0>        -0.0981
     22 C18        -3.7670   -1.4826    2.9833 C.ar      1 <0>        -0.0636
     23 Cl1        -0.3917   -2.6181    4.7848 Cl        1 <0>        -0.0577
     24 N4         -7.2095    1.3241    0.6851 N.pl3     1 <0>        -0.6261
     25 C19        -8.1519    1.8366   -0.2021 C.ar      1 <0>         0.1418
     26 C20        -9.4292    2.1564    0.2498 C.ar      1 <0>        -0.1598
     27 C21       -10.3616    2.6678   -0.6235 C.ar      1 <0>        -0.0590
     28 C22       -10.0281    2.8564   -1.9684 C.ar      1 <0>        -0.1232
     29 C23        -8.7457    2.5290   -2.4200 C.ar      1 <0>        -0.0681
     30 C24        -7.8166    2.0227   -1.5403 C.ar      1 <0>        -0.1261
     31 C25       -11.0259    3.3995   -2.9077 C.2       1 <0>         0.4893
     32 O1        -10.7345    3.5633   -4.0760 O.co2     1 <0>        -0.6323
     33 F2         -1.2128    1.3755   -0.4056 F         1 <0>        -0.1209
     34 H1          3.2486    0.8468   -0.6927 H         1 <0>         0.1483
     35 H2          1.2295    2.2500   -0.6806 H         1 <0>         0.1486
     36 H3          3.0673   -1.5909   -0.4273 H         1 <0>         0.1485
     37 H4         -3.4574   -3.2644   -0.4636 H         1 <0>         0.0791
     38 H5         -3.7607   -2.7058   -2.1261 H         1 <0>         0.1121
     39 H6         -5.5938   -1.3585   -2.4434 H         1 <0>         0.1778
     40 H7         -0.1076   -2.1514    2.0006 H         1 <0>         0.1393
     41 H8         -3.1667   -1.9996    4.9638 H         1 <0>         0.1452
     42 H9         -4.7921   -1.2962    3.2678 H         1 <0>         0.1468
     43 H10        -7.2009    1.6210    1.6085 H         1 <0>         0.4210
     44 H11        -9.6873    2.0066    1.2877 H         1 <0>         0.1185
     45 H12       -11.3510    2.9199   -0.2713 H         1 <0>         0.1349
     46 H13        -8.4848    2.6738   -3.4580 H         1 <0>         0.1294
     47 H14        -6.8261    1.7696   -1.8885 H         1 <0>         0.1253
     48 O2        -12.2611    3.7145   -2.4709 O.co2     1 <0>        -0.7564
@<TRIPOS>BOND
     1    1    6 ar
     2    1    2 ar
     3    1   34 1
     4    2    3 ar
     5    2   35 1
     6    3    4 ar
     7    3   33 1
     8    4    5 ar
     9    4    8 1
    10    5    6 ar
    11    5    7 1
    12    6   36 1
    13    8   18 1
    14    8    9 2
    15    9   10 1
    16   10   11 1
    17   10   37 1
    18   10   38 1
    19   11   16 ar
    20   11   12 ar
    21   12   13 ar
    22   12   39 1
    23   13   14 ar
    24   14   15 ar
    25   14   24 1
    26   15   16 ar
    27   16   17 1
    28   17   22 ar
    29   17   18 ar
    30   18   19 ar
    31   19   20 ar
    32   19   40 1
    33   20   21 ar
    34   20   23 1
    35   21   22 ar
    36   21   41 1
    37   22   42 1
    38   24   25 1
    39   24   43 1
    40   25   30 ar
    41   25   26 ar
    42   26   27 ar
    43   26   44 1
    44   27   28 ar
    45   27   45 1
    46   28   29 ar
    47   28   31 1
    48   29   30 ar
    49   29   46 1
    50   30   47 1
    51   31   32 2
    52   31   48 1
@<TRIPOS>MOLECULE
ZINC02576349
   43    46     0     0     0
SMALL
USER_CHARGES
7-(1-naphthyl)-9-tert-butyl-2,4,8,9-tetrazabicyclo[4.3.0]nona-1,3,5,7-tetraen-5-amine
@<TRIPOS>ATOM
      1 C1         -2.2648    1.4156   -1.1798 C.3       1 <0>        -0.1444
      2 C2         -1.0921    2.2875   -0.7266 C.3       1 <0>         0.1895
      3 C3         -1.4339    2.9467    0.6111 C.3       1 <0>        -0.1619
      4 C4         -0.8260    3.3695   -1.7751 C.3       1 <0>        -0.1623
      5 N1          0.1032    1.4552   -0.5696 N.pl3     1 <0>        -0.3674
      6 C5          1.3308    1.9052   -0.1828 C.ar      1 <0>         0.3804
      7 C6          2.1889    0.7898   -0.1661 C.ar      1 <0>        -0.3265
      8 C7          1.3808   -0.3606   -0.5722 C.2       1 <0>         0.1648
      9 N2          0.1635    0.0765   -0.7990 N.2       1 <0>        -0.2277
     10 C8          1.8488   -1.7584   -0.7026 C.ar      1 <0>        -0.0125
     11 C9          2.9319   -2.0612   -1.5103 C.ar      1 <0>        -0.0976
     12 C10         3.3811   -3.3708   -1.6324 C.ar      1 <0>        -0.1175
     13 C11         2.7643   -4.3918   -0.9743 C.ar      1 <0>        -0.0881
     14 C12         1.6574   -4.1307   -0.1487 C.ar      1 <0>        -0.0497
     15 C13         1.1904   -2.8012   -0.0075 C.ar      1 <0>        -0.0279
     16 C14         0.0864   -2.5419    0.8173 C.ar      1 <0>        -0.1006
     17 C15        -0.5230   -3.5696    1.4714 C.ar      1 <0>        -0.1104
     18 C16        -0.0653   -4.8782    1.3334 C.ar      1 <0>        -0.1109
     19 C17         1.0037   -5.1664    0.5416 C.ar      1 <0>        -0.1058
     20 C18         3.5302    0.9803    0.2031 C.ar      1 <0>         0.5194
     21 N3          3.9291    2.2083    0.5206 N.ar      1 <0>        -0.6077
     22 C19         3.0891    3.2274    0.4913 C.ar      1 <0>         0.3852
     23 N4          1.8252    3.0965    0.1525 N.ar      1 <0>        -0.5722
     24 N5          4.4132   -0.0817    0.2360 N.pl3     1 <0>        -0.8244
     25 H1         -2.4544    0.6447   -0.4329 H         1 <0>         0.0672
     26 H2         -3.1541    2.0348   -1.2967 H         1 <0>         0.0758
     27 H3         -2.0213    0.9459   -2.1329 H         1 <0>         0.0677
     28 H4         -0.5984    3.5679    0.9340 H         1 <0>         0.0772
     29 H5         -2.3232    3.5660    0.4943 H         1 <0>         0.0800
     30 H6         -1.6235    2.1759    1.3581 H         1 <0>         0.0594
     31 H7         -0.5825    2.8999   -2.7281 H         1 <0>         0.0596
     32 H8         -1.7154    3.9888   -1.8919 H         1 <0>         0.0799
     33 H9          0.0094    3.9907   -1.4522 H         1 <0>         0.0773
     34 H10         3.4359   -1.2709   -2.0469 H         1 <0>         0.1296
     35 H11         4.2309   -3.5835   -2.2641 H         1 <0>         0.1329
     36 H12         3.1262   -5.4030   -1.0874 H         1 <0>         0.1333
     37 H13        -0.2792   -1.5323    0.9330 H         1 <0>         0.1262
     38 H14        -1.3729   -3.3671    2.1063 H         1 <0>         0.1247
     39 H15        -0.5658   -5.6756    1.8626 H         1 <0>         0.1263
     40 H16         1.3482   -6.1854    0.4444 H         1 <0>         0.1313
     41 H17         3.4552    4.2081    0.7568 H         1 <0>         0.2041
     42 H18         4.0875   -0.9872    0.1138 H         1 <0>         0.4127
     43 H19         5.3589    0.0781    0.3813 H         1 <0>         0.4111
@<TRIPOS>BOND
     1    1    2 1
     2    1   25 1
     3    1   26 1
     4    1   27 1
     5    2    3 1
     6    2    4 1
     7    2    5 1
     8    3   28 1
     9    3   29 1
    10    3   30 1
    11    4   31 1
    12    4   32 1
    13    4   33 1
    14    5    9 1
    15    5    6 1
    16    6   23 ar
    17    6    7 ar
    18    7    8 1
    19    7   20 ar
    20    8    9 2
    21    8   10 1
    22   10   15 ar
    23   10   11 ar
    24   11   12 ar
    25   11   34 1
    26   12   13 ar
    27   12   35 1
    28   13   14 ar
    29   13   36 1
    30   14   19 ar
    31   14   15 ar
    32   15   16 ar
    33   16   17 ar
    34   16   37 1
    35   17   18 ar
    36   17   38 1
    37   18   19 ar
    38   18   39 1
    39   19   40 1
    40   20   21 ar
    41   20   24 1
    42   21   22 ar
    43   22   23 ar
    44   22   41 1
    45   24   42 1
    46   24   43 1
@<TRIPOS>MOLECULE
ZINC04086591
   35    37     0     0     0
SMALL
USER_CHARGES
N-(5-benzylsulfanyl-1,3,4-thiadiazol-2-yl)-2-chloro-benzamide
@<TRIPOS>ATOM
      1 C1         -0.0167    1.3781    0.0096 C.ar      1 <0>        -0.1078
      2 C2          1.1709    2.0855    0.0021 C.ar      1 <0>        -0.1195
      3 C3          2.3773    1.4107   -0.0141 C.ar      1 <0>        -0.0972
      4 C4          2.3960    0.0285   -0.0217 C.ar      1 <0>        -0.0856
      5 C5          1.2084   -0.6789   -0.0136 C.ar      1 <0>        -0.0972
      6 C6          0.0021   -0.0041    0.0020 C.ar      1 <0>        -0.1195
      7 C7          3.7112   -0.7071   -0.0392 C.3       1 <0>        -0.0702
      8 S1          4.2215   -0.9925   -1.7564 S.3       1 <0>         0.0583
      9 C8          5.7538   -1.8497   -1.6089 C.2       1 <0>         0.0128
     10 N1          6.4203   -2.2230   -0.5262 N.2       1 <0>        -0.2574
     11 N2          7.5193   -2.8377   -0.5985 N.2       1 <0>        -0.2681
     12 C9          8.0744   -3.1476   -1.7589 C.2       1 <0>         0.2850
     13 S2          6.8516   -2.4722   -2.8791 S.3       1 <0>         0.0427
     14 N3          9.2653   -3.8143   -2.0311 N.am      1 <0>        -0.6091
     15 C10        10.0409   -4.2489   -1.0182 C.2       1 <0>         0.5505
     16 O1          9.7002   -4.0586    0.1332 O.2       1 <0>        -0.4376
     17 C11        11.3050   -4.9566   -1.3072 C.ar      1 <0>        -0.1316
     18 C12        11.6966   -5.1820   -2.6285 C.ar      1 <0>        -0.0745
     19 C13        12.8804   -5.8386   -2.8912 C.ar      1 <0>        -0.1210
     20 C14        13.6754   -6.2840   -1.8492 C.ar      1 <0>        -0.0728
     21 C15        13.2923   -6.0696   -0.5380 C.ar      1 <0>        -0.1174
     22 C16        12.1116   -5.4086   -0.2597 C.ar      1 <0>         0.0185
     23 Cl1        11.6311   -5.1409    1.3869 Cl        1 <0>        -0.0219
     24 H1         -0.9592    1.9054    0.0170 H         1 <0>         0.1256
     25 H2          1.1563    3.1654    0.0081 H         1 <0>         0.1271
     26 H3          3.3051    1.9634   -0.0207 H         1 <0>         0.1273
     27 H4          1.2231   -1.7587   -0.0199 H         1 <0>         0.1273
     28 H5         -0.9258   -0.5567    0.0079 H         1 <0>         0.1271
     29 H6          4.4679   -0.1107    0.4703 H         1 <0>         0.1088
     30 H7          3.5990   -1.6641    0.4703 H         1 <0>         0.1088
     31 H8          9.5371   -3.9661   -2.9498 H         1 <0>         0.4266
     32 H9         11.0755   -4.8395   -3.4429 H         1 <0>         0.1345
     33 H10        13.1860   -6.0097   -3.9129 H         1 <0>         0.1405
     34 H11        14.5990   -6.8019   -2.0614 H         1 <0>         0.1418
     35 H12        13.9173   -6.4198    0.2701 H         1 <0>         0.1452
@<TRIPOS>BOND
     1    1    6 ar
     2    1    2 ar
     3    1   24 1
     4    2    3 ar
     5    2   25 1
     6    3    4 ar
     7    3   26 1
     8    4    5 ar
     9    4    7 1
    10    5    6 ar
    11    5   27 1
    12    6   28 1
    13    7    8 1
    14    7   29 1
    15    7   30 1
    16    8    9 1
    17    9   13 1
    18    9   10 2
    19   10   11 1
    20   11   12 2
    21   12   13 1
    22   12   14 1
    23   14   15 am
    24   14   31 1
    25   15   16 2
    26   15   17 1
    27   17   22 ar
    28   17   18 ar
    29   18   19 ar
    30   18   32 1
    31   19   20 ar
    32   19   33 1
    33   20   21 ar
    34   20   34 1
    35   21   22 ar
    36   21   35 1
    37   22   23 1
@<TRIPOS>MOLECULE
ZINC08823113
   35    37     0     0     0
SMALL
USER_CHARGES
N-[5-[(3-chlorophenyl)methylsulfanyl]-1,3,4-thiadiazol-2-yl]-4-fluoro-benzamide
@<TRIPOS>ATOM
      1 C1          2.5682  -12.9692    1.1011 C.ar      1 <0>        -0.1047
      2 C2          2.2903  -11.6148    1.1106 C.ar      1 <0>        -0.0927
      3 C3          2.1408  -10.9311   -0.0813 C.ar      1 <0>        -0.0721
      4 C4          2.2642  -11.6021   -1.2836 C.ar      1 <0>        -0.0894
      5 C5          2.5474  -12.9561   -1.2938 C.ar      1 <0>        -0.0350
      6 C6          2.6965  -13.6401   -0.1002 C.ar      1 <0>        -0.0988
      7 Cl1         2.7085  -13.7982   -2.8032 Cl        1 <0>        -0.0623
      8 C7          1.8370   -9.4550   -0.0701 C.3       1 <0>        -0.0727
      9 S1          3.3902   -8.5180   -0.0780 S.3       1 <0>         0.0632
     10 C8          2.8721   -6.8339   -0.0637 C.2       1 <0>         0.0114
     11 N1          1.6516   -6.3182   -0.0499 N.2       1 <0>        -0.2567
     12 N2          1.4541   -5.0726   -0.0410 N.2       1 <0>        -0.2687
     13 C9          2.4524   -4.2042   -0.0450 C.2       1 <0>         0.2829
     14 S2          3.8443   -5.3303   -0.0718 S.3       1 <0>         0.0486
     15 N3          2.4276   -2.8127   -0.0368 N.am      1 <0>        -0.6091
     16 C10         1.2487   -2.1598   -0.0220 C.2       1 <0>         0.5602
     17 O1          0.2067   -2.7864   -0.0158 O.2       1 <0>        -0.4588
     18 C11         1.2224   -0.6833   -0.0133 C.ar      1 <0>        -0.1485
     19 C12         0.0021   -0.0041    0.0020 C.ar      1 <0>        -0.0210
     20 C13        -0.0166    1.3741    0.0096 C.ar      1 <0>        -0.1582
     21 C14         1.1731    2.0862    0.0021 C.ar      1 <0>         0.1355
     22 C15         2.3874    1.4170   -0.0132 C.ar      1 <0>        -0.1585
     23 C16         2.4178    0.0391   -0.0209 C.ar      1 <0>        -0.0554
     24 F1          1.1491    3.4370    0.0091 F         1 <0>        -0.1288
     25 H1          2.6846  -13.5030    2.0327 H         1 <0>         0.1384
     26 H2          2.1898  -11.0909    2.0496 H         1 <0>         0.1353
     27 H3          2.1433  -11.0686   -2.2148 H         1 <0>         0.1388
     28 H4          2.9128  -14.6982   -0.1075 H         1 <0>         0.1375
     29 H5          1.2681   -9.2080    0.8262 H         1 <0>         0.1134
     30 H6          1.2529   -9.1976   -0.9537 H         1 <0>         0.1120
     31 H7          3.2589   -2.3128   -0.0418 H         1 <0>         0.4283
     32 H8         -0.9252   -0.5577    0.0083 H         1 <0>         0.1519
     33 H9         -0.9597    1.9003    0.0169 H         1 <0>         0.1491
     34 H10         3.3112    1.9766   -0.0187 H         1 <0>         0.1478
     35 H11         3.3642   -0.4812   -0.0324 H         1 <0>         0.1368
@<TRIPOS>BOND
     1    1    6 ar
     2    1    2 ar
     3    1   25 1
     4    2    3 ar
     5    2   26 1
     6    3    4 ar
     7    3    8 1
     8    4    5 ar
     9    4   27 1
    10    5    6 ar
    11    5    7 1
    12    6   28 1
    13    8    9 1
    14    8   29 1
    15    8   30 1
    16    9   10 1
    17   10   14 1
    18   10   11 2
    19   11   12 1
    20   12   13 2
    21   13   14 1
    22   13   15 1
    23   15   16 am
    24   15   31 1
    25   16   17 2
    26   16   18 1
    27   18   23 ar
    28   18   19 ar
    29   19   20 ar
    30   19   32 1
    31   20   21 ar
    32   20   33 1
    33   21   22 ar
    34   21   24 1
    35   22   23 ar
    36   22   34 1
    37   23   35 1
@<TRIPOS>MOLECULE
ZINC06339673
   35    37     0     0     0
SMALL
USER_CHARGES
N-(5-benzylsulfanyl-1,3,4-thiadiazol-2-yl)-4-chloro-benzamide
@<TRIPOS>ATOM
      1 C1          2.7035  -13.6385   -0.1043 C.ar      1 <0>        -0.1076
      2 C2          2.5747  -12.9687    1.0981 C.ar      1 <0>        -0.1195
      3 C3          2.2959  -11.6148    1.1087 C.ar      1 <0>        -0.0972
      4 C4          2.1453  -10.9308   -0.0830 C.ar      1 <0>        -0.0860
      5 C5          2.2684  -11.6017   -1.2854 C.ar      1 <0>        -0.0972
      6 C6          2.5530  -12.9544   -1.2961 C.ar      1 <0>        -0.1195
      7 C7          1.8408   -9.4549   -0.0714 C.3       1 <0>        -0.0703
      8 S1          3.3936   -8.5171   -0.0800 S.3       1 <0>         0.0598
      9 C8          2.8747   -6.8333   -0.0652 C.2       1 <0>         0.0138
     10 N1          1.6540   -6.3181   -0.0506 N.2       1 <0>        -0.2583
     11 N2          1.4559   -5.0726   -0.0410 N.2       1 <0>        -0.2682
     12 C9          2.4539   -4.2038   -0.0450 C.2       1 <0>         0.2810
     13 S2          3.8462   -5.3292   -0.0719 S.3       1 <0>         0.0465
     14 N3          2.4285   -2.8123   -0.0368 N.am      1 <0>        -0.6087
     15 C10         1.2492   -2.1599   -0.0220 C.2       1 <0>         0.5586
     16 O1          0.2076   -2.7870   -0.0158 O.2       1 <0>        -0.4576
     17 C11         1.2223   -0.6828   -0.0133 C.ar      1 <0>        -0.1318
     18 C12         0.0021   -0.0041    0.0020 C.ar      1 <0>        -0.0382
     19 C13        -0.0166    1.3747    0.0096 C.ar      1 <0>        -0.1144
     20 C14         1.1717    2.0863    0.0021 C.ar      1 <0>        -0.0055
     21 C15         2.3853    1.4187   -0.0132 C.ar      1 <0>        -0.1149
     22 C16         2.4169    0.0401   -0.0209 C.ar      1 <0>        -0.0728
     23 Cl1         1.1400    3.8220    0.0118 Cl        1 <0>        -0.0528
     24 H1          2.9221  -14.6961   -0.1126 H         1 <0>         0.1257
     25 H2          2.6923  -13.5031    2.0292 H         1 <0>         0.1272
     26 H3          2.1952  -11.0916    2.0481 H         1 <0>         0.1274
     27 H4          2.1465  -11.0681   -2.2164 H         1 <0>         0.1273
     28 H5          2.6539  -13.4776   -2.2355 H         1 <0>         0.1272
     29 H6          1.2723   -9.2082    0.8252 H         1 <0>         0.1090
     30 H7          1.2561   -9.1976   -0.9546 H         1 <0>         0.1090
     31 H8          3.2595   -2.3121   -0.0418 H         1 <0>         0.4282
     32 H9         -0.9251   -0.5578    0.0083 H         1 <0>         0.1511
     33 H10        -0.9598    1.9008    0.0169 H         1 <0>         0.1469
     34 H11         3.3085    1.9789   -0.0187 H         1 <0>         0.1455
     35 H12         3.3637   -0.4793   -0.0324 H         1 <0>         0.1362
@<TRIPOS>BOND
     1    1    6 ar
     2    1    2 ar
     3    1   24 1
     4    2    3 ar
     5    2   25 1
     6    3    4 ar
     7    3   26 1
     8    4    5 ar
     9    4    7 1
    10    5    6 ar
    11    5   27 1
    12    6   28 1
    13    7    8 1
    14    7   29 1
    15    7   30 1
    16    8    9 1
    17    9   13 1
    18    9   10 2
    19   10   11 1
    20   11   12 2
    21   12   13 1
    22   12   14 1
    23   14   15 am
    24   14   31 1
    25   15   16 2
    26   15   17 1
    27   17   22 ar
    28   17   18 ar
    29   18   19 ar
    30   18   32 1
    31   19   20 ar
    32   19   33 1
    33   20   21 ar
    34   20   23 1
    35   21   22 ar
    36   21   34 1
    37   22   35 1
@<TRIPOS>MOLECULE
ZINC03245914
   35    37     0     0     0
SMALL
USER_CHARGES
2-chloro-N-[5-[(4-fluorophenyl)methylsulfanyl]-1,3,4-thiadiazol-2-yl]-benzamide
@<TRIPOS>ATOM
      1 C1          1.3337  -12.7107   -2.8080 C.ar      1 <0>        -0.1209
      2 C2          1.3540  -13.6153   -1.7605 C.ar      1 <0>        -0.0726
      3 C3          1.3604  -13.1681   -0.4520 C.ar      1 <0>        -0.1173
      4 C4          1.3461  -11.8134   -0.1821 C.ar      1 <0>         0.0186
      5 C5          1.3255  -10.8954   -1.2352 C.ar      1 <0>        -0.1319
      6 C6          1.3138  -11.3556   -2.5536 C.ar      1 <0>        -0.0745
      7 C7          1.3101   -9.4450   -0.9552 C.2       1 <0>         0.5506
      8 O1          1.3153   -9.0476    0.1938 O.2       1 <0>        -0.4375
      9 N1          1.2903   -8.5623   -1.9735 N.am      1 <0>        -0.6092
     10 C8          1.2758   -7.1959   -1.7097 C.2       1 <0>         0.2862
     11 N2          1.2776   -6.5530   -0.5533 N.2       1 <0>        -0.2685
     12 N3          1.2621   -5.2935   -0.4887 N.2       1 <0>        -0.2562
     13 C9          1.2430   -4.5364   -1.5761 C.2       1 <0>         0.0112
     14 S1          1.2404   -5.8063   -2.8384 S.3       1 <0>         0.0445
     15 S2          1.2193   -2.7817   -1.7344 S.3       1 <0>         0.0590
     16 C10         1.2273   -2.1863   -0.0209 C.3       1 <0>        -0.0705
     17 C11         1.2082   -0.6795   -0.0127 C.ar      1 <0>        -0.0965
     18 C12         0.0021   -0.0041    0.0020 C.ar      1 <0>        -0.0669
     19 C13        -0.0167    1.3778    0.0096 C.ar      1 <0>        -0.1532
     20 C14         1.1732    2.0858    0.0021 C.ar      1 <0>         0.1114
     21 C15         2.3806    1.4083   -0.0131 C.ar      1 <0>        -0.1532
     22 C16         2.3969    0.0264   -0.0202 C.ar      1 <0>        -0.0669
     23 F1          1.1561    3.4366    0.0090 F         1 <0>        -0.1355
     24 Cl1         1.3530  -11.2531    1.4610 Cl        1 <0>        -0.0219
     25 H1          1.3288  -13.0673   -3.8274 H         1 <0>         0.1406
     26 H2          1.3646  -14.6755   -1.9661 H         1 <0>         0.1419
     27 H3          1.3763  -13.8794    0.3605 H         1 <0>         0.1452
     28 H4          1.2931  -10.6515   -3.3723 H         1 <0>         0.1345
     29 H5          1.2862   -8.8794   -2.8902 H         1 <0>         0.4268
     30 H6          2.1265   -2.5411    0.4828 H         1 <0>         0.1114
     31 H7          0.3467   -2.5637    0.4990 H         1 <0>         0.1114
     32 H8         -0.9259   -0.5565    0.0079 H         1 <0>         0.1389
     33 H9         -0.9591    1.9052    0.0169 H         1 <0>         0.1410
     34 H10         3.3093    1.9595   -0.0194 H         1 <0>         0.1410
     35 H11         3.3385   -0.5023   -0.0313 H         1 <0>         0.1389
@<TRIPOS>BOND
     1    1    6 ar
     2    1    2 ar
     3    1   25 1
     4    2    3 ar
     5    2   26 1
     6    3    4 ar
     7    3   27 1
     8    4    5 ar
     9    4   24 1
    10    5    6 ar
    11    5    7 1
    12    6   28 1
    13    7    8 2
    14    7    9 am
    15    9   10 1
    16    9   29 1
    17   10   14 1
    18   10   11 2
    19   11   12 1
    20   12   13 2
    21   13   14 1
    22   13   15 1
    23   15   16 1
    24   16   17 1
    25   16   30 1
    26   16   31 1
    27   17   22 ar
    28   17   18 ar
    29   18   19 ar
    30   18   32 1
    31   19   20 ar
    32   19   33 1
    33   20   21 ar
    34   20   23 1
    35   21   22 ar
    36   21   34 1
    37   22   35 1
@<TRIPOS>MOLECULE
ZINC16052729
   53    57     0     0     0
SMALL
USER_CHARGES
N-cyclopropyl-6-[(6,7-dimethoxy-4-quinolyl)oxy]naphthalene-1-carboxamide
@<TRIPOS>ATOM
      1 C1          2.2883    1.8769    4.8172 C.3       1 <0>         0.0223
      2 O1          3.4330    2.7289    4.7408 O.3       1 <0>        -0.2991
      3 C2          3.9092    3.0131    3.4993 C.ar      1 <0>         0.1297
      4 C3          3.2913    2.4869    2.4018 C.ar      1 <0>        -0.1686
      5 C4          3.7825    2.7806    1.1209 C.ar      1 <0>        -0.1023
      6 C5          3.1691    2.2541   -0.0380 C.ar      1 <0>         0.1425
      7 C6          3.7065    2.5927   -1.2673 C.ar      1 <0>        -0.1794
      8 C7          4.8192    3.4222   -1.3277 C.ar      1 <0>         0.1404
      9 N1          5.3847    3.9013   -0.2447 N.ar      1 <0>        -0.4674
     10 C8          4.9176    3.6150    0.9764 C.ar      1 <0>         0.1527
     11 C9          5.5352    4.1366    2.1252 C.ar      1 <0>        -0.1720
     12 C10         5.0299    3.8441    3.3592 C.ar      1 <0>         0.1455
     13 O2          5.6277    4.3559    4.4670 O.3       1 <0>        -0.2993
     14 C11         6.7653    5.1958    4.2608 C.3       1 <0>         0.0207
     15 O3          2.0836    1.4464    0.0515 O.3       1 <0>        -0.2519
     16 C12         0.8582    2.0297    0.1184 C.ar      1 <0>         0.1267
     17 C13         0.7599    3.4219    0.1999 C.ar      1 <0>        -0.1744
     18 C14        -0.4544    4.0338    0.2677 C.ar      1 <0>        -0.0731
     19 C15        -1.6245    3.2617    0.2558 C.ar      1 <0>        -0.0357
     20 C16        -1.5301    1.8512    0.1678 C.ar      1 <0>        -0.0235
     21 C17        -0.2626    1.2484    0.1046 C.ar      1 <0>        -0.1455
     22 C18        -2.7037    1.0771    0.1612 C.ar      1 <0>        -0.0776
     23 C19        -3.9228    1.6826    0.2282 C.ar      1 <0>        -0.1191
     24 C20        -4.0357    3.0647    0.3092 C.ar      1 <0>        -0.0790
     25 C21        -2.9042    3.8671    0.3244 C.ar      1 <0>        -0.1160
     26 C22        -3.0315    5.3337    0.4106 C.2       1 <0>         0.5673
     27 O4         -2.0437    6.0364    0.3145 O.2       1 <0>        -0.5279
     28 N2         -4.2426    5.8954    0.5958 N.am      1 <0>        -0.6961
     29 C23        -4.3690    7.3524    0.6814 C.3       1 <0>         0.0761
     30 C24        -5.2766    7.9197    1.7747 C.3       1 <0>        -0.1912
     31 C25        -5.7199    7.9673    0.3103 C.3       1 <0>        -0.1871
     32 H1          1.4569    2.3364    4.2827 H         1 <0>         0.0578
     33 H2          2.5222    0.9128    4.3655 H         1 <0>         0.0590
     34 H3          2.0127    1.7314    5.8618 H         1 <0>         0.1066
     35 H4          2.4284    1.8480    2.5189 H         1 <0>         0.1457
     36 H5          3.2630    2.2133   -2.1761 H         1 <0>         0.1478
     37 H6          5.2305    3.6795   -2.2926 H         1 <0>         0.1693
     38 H7          6.3990    4.7781    2.0318 H         1 <0>         0.1550
     39 H8          6.4764    6.0576    3.6593 H         1 <0>         0.0610
     40 H9          7.1451    5.5359    5.2242 H         1 <0>         0.1064
     41 H10         7.5421    4.6344    3.7417 H         1 <0>         0.0610
     42 H11         1.6592    4.0199    0.2090 H         1 <0>         0.1285
     43 H12        -0.5160    5.1102    0.3300 H         1 <0>         0.1749
     44 H13        -0.1748    0.1739    0.0409 H         1 <0>         0.1412
     45 H14        -2.6391    0.0009    0.0984 H         1 <0>         0.1357
     46 H15        -4.8170    1.0771    0.2178 H         1 <0>         0.1341
     47 H16        -5.0141    3.5190    0.3612 H         1 <0>         0.1276
     48 H17        -5.0305    5.3348    0.6725 H         1 <0>         0.4021
     49 H18        -3.4721    7.9178    0.4283 H         1 <0>         0.1409
     50 H19        -5.7797    7.2089    2.4302 H         1 <0>         0.0980
     51 H20        -4.9771    8.8585    2.2405 H         1 <0>         0.1050
     52 H21        -5.7118    8.9374   -0.1866 H         1 <0>         0.1063
     53 H22        -6.5145    7.2878    0.0021 H         1 <0>         0.0984
@<TRIPOS>BOND
     1    1    2 1
     2    1   32 1
     3    1   33 1
     4    1   34 1
     5    2    3 1
     6    3   12 ar
     7    3    4 ar
     8    4    5 ar
     9    4   35 1
    10    5   10 ar
    11    5    6 ar
    12    6    7 ar
    13    6   15 1
    14    7    8 ar
    15    7   36 1
    16    8    9 ar
    17    8   37 1
    18    9   10 ar
    19   10   11 ar
    20   11   12 ar
    21   11   38 1
    22   12   13 1
    23   13   14 1
    24   14   39 1
    25   14   40 1
    26   14   41 1
    27   15   16 1
    28   16   21 ar
    29   16   17 ar
    30   17   18 ar
    31   17   42 1
    32   18   19 ar
    33   18   43 1
    34   19   25 ar
    35   19   20 ar
    36   20   21 ar
    37   20   22 ar
    38   21   44 1
    39   22   23 ar
    40   22   45 1
    41   23   24 ar
    42   23   46 1
    43   24   25 ar
    44   24   47 1
    45   25   26 1
    46   26   27 2
    47   26   28 am
    48   28   29 1
    49   28   48 1
    50   29   31 1
    51   29   30 1
    52   29   49 1
    53   30   31 1
    54   30   50 1
    55   30   51 1
    56   31   52 1
    57   31   53 1
@<TRIPOS>MOLECULE
ZINC04078319
   35    37     0     0     0
SMALL
USER_CHARGES
4-fluoro-N-[5-[(3-fluorophenyl)methylsulfanyl]-1,3,4-thiadiazol-2-yl]-benzamide
@<TRIPOS>ATOM
      1 C1          2.5686  -12.9690    1.1019 C.ar      1 <0>        -0.0882
      2 C2          2.2903  -11.6147    1.1107 C.ar      1 <0>        -0.1078
      3 C3          2.1408  -10.9311   -0.0813 C.ar      1 <0>        -0.0559
      4 C4          2.2642  -11.6019   -1.2835 C.ar      1 <0>        -0.1334
      5 C5          2.5480  -12.9568   -1.2935 C.ar      1 <0>         0.1011
      6 C6          2.6976  -13.6407   -0.0987 C.ar      1 <0>        -0.1423
      7 F1          2.6738  -13.6125   -2.4680 F         1 <0>        -0.1355
      8 C7          1.8370   -9.4550   -0.0701 C.3       1 <0>        -0.0741
      9 S1          3.3902   -8.5180   -0.0780 S.3       1 <0>         0.0643
     10 C8          2.8721   -6.8339   -0.0637 C.2       1 <0>         0.0110
     11 N1          1.6516   -6.3182   -0.0499 N.2       1 <0>        -0.2566
     12 N2          1.4541   -5.0726   -0.0410 N.2       1 <0>        -0.2687
     13 C9          2.4524   -4.2042   -0.0450 C.2       1 <0>         0.2830
     14 S2          3.8443   -5.3303   -0.0718 S.3       1 <0>         0.0491
     15 N3          2.4276   -2.8127   -0.0368 N.am      1 <0>        -0.6091
     16 C10         1.2487   -2.1598   -0.0220 C.2       1 <0>         0.5602
     17 O1          0.2067   -2.7864   -0.0158 O.2       1 <0>        -0.4588
     18 C11         1.2224   -0.6833   -0.0133 C.ar      1 <0>        -0.1485
     19 C12         0.0021   -0.0041    0.0020 C.ar      1 <0>        -0.0210
     20 C13        -0.0166    1.3741    0.0096 C.ar      1 <0>        -0.1582
     21 C14         1.1731    2.0862    0.0021 C.ar      1 <0>         0.1355
     22 C15         2.3874    1.4170   -0.0132 C.ar      1 <0>        -0.1585
     23 C16         2.4178    0.0391   -0.0209 C.ar      1 <0>        -0.0554
     24 F2          1.1491    3.4370    0.0091 F         1 <0>        -0.1287
     25 H1          2.6849  -13.5022    2.0339 H         1 <0>         0.1391
     26 H2          2.1893  -11.0906    2.0496 H         1 <0>         0.1360
     27 H3          2.1432  -11.0684   -2.2147 H         1 <0>         0.1410
     28 H4          2.9146  -14.6986   -0.1052 H         1 <0>         0.1396
     29 H5          1.2681   -9.2080    0.8262 H         1 <0>         0.1143
     30 H6          1.2529   -9.1976   -0.9537 H         1 <0>         0.1125
     31 H7          3.2589   -2.3128   -0.0418 H         1 <0>         0.4283
     32 H8         -0.9252   -0.5577    0.0083 H         1 <0>         0.1519
     33 H9         -0.9597    1.9003    0.0169 H         1 <0>         0.1491
     34 H10         3.3112    1.9766   -0.0187 H         1 <0>         0.1478
     35 H11         3.3642   -0.4812   -0.0324 H         1 <0>         0.1368
@<TRIPOS>BOND
     1    1    6 ar
     2    1    2 ar
     3    1   25 1
     4    2    3 ar
     5    2   26 1
     6    3    4 ar
     7    3    8 1
     8    4    5 ar
     9    4   27 1
    10    5    6 ar
    11    5    7 1
    12    6   28 1
    13    8    9 1
    14    8   29 1
    15    8   30 1
    16    9   10 1
    17   10   14 1
    18   10   11 2
    19   11   12 1
    20   12   13 2
    21   13   14 1
    22   13   15 1
    23   15   16 am
    24   15   31 1
    25   16   17 2
    26   16   18 1
    27   18   23 ar
    28   18   19 ar
    29   19   20 ar
    30   19   32 1
    31   20   21 ar
    32   20   33 1
    33   21   22 ar
    34   21   24 1
    35   22   23 ar
    36   22   34 1
    37   23   35 1
@<TRIPOS>MOLECULE
ZINC29127585
   35    37     0     0     0
SMALL
USER_CHARGES
4-chloro-N-[5-[(3-chlorophenyl)methylsulfanyl]-1,3,4-thiadiazol-2-yl]benzamide
@<TRIPOS>ATOM
      1 C1          2.5743  -12.9689    1.0988 C.ar      1 <0>        -0.1048
      2 C2          2.2958  -11.6146    1.1087 C.ar      1 <0>        -0.0930
      3 C3          2.1453  -10.9308   -0.0830 C.ar      1 <0>        -0.0713
      4 C4          2.2684  -11.6016   -1.2855 C.ar      1 <0>        -0.0896
      5 C5          2.5521  -12.9554   -1.2960 C.ar      1 <0>        -0.0349
      6 C6          2.7022  -13.6396   -0.1026 C.ar      1 <0>        -0.0991
      7 Cl1         2.7128  -13.7972   -2.8057 Cl        1 <0>        -0.0625
      8 C7          1.8408   -9.4549   -0.0714 C.3       1 <0>        -0.0749
      9 S1          3.3936   -8.5171   -0.0800 S.3       1 <0>         0.0613
     10 C8          2.8747   -6.8333   -0.0652 C.2       1 <0>         0.0099
     11 N1          1.6540   -6.3181   -0.0506 N.2       1 <0>        -0.2563
     12 N2          1.4559   -5.0726   -0.0410 N.2       1 <0>        -0.2739
     13 C9          2.4539   -4.2038   -0.0450 C.2       1 <0>         0.2901
     14 S2          3.8462   -5.3292   -0.0719 S.3       1 <0>         0.0428
     15 N3          2.4285   -2.8123   -0.0368 N.am      1 <0>        -0.6229
     16 C10         1.2492   -2.1599   -0.0220 C.2       1 <0>         0.5604
     17 O1          0.2076   -2.7870   -0.0158 O.2       1 <0>        -0.4613
     18 C11         1.2223   -0.6828   -0.0133 C.ar      1 <0>        -0.1296
     19 C12         0.0021   -0.0041    0.0020 C.ar      1 <0>        -0.0396
     20 C13        -0.0166    1.3747    0.0096 C.ar      1 <0>        -0.1139
     21 C14         1.1717    2.0863    0.0021 C.ar      1 <0>        -0.0064
     22 C15         2.3853    1.4187   -0.0132 C.ar      1 <0>        -0.1148
     23 C16         2.4169    0.0401   -0.0209 C.ar      1 <0>        -0.0727
     24 Cl2         1.1400    3.8220    0.0118 Cl        1 <0>        -0.0530
     25 H1          2.6914  -13.5028    2.0303 H         1 <0>         0.1383
     26 H2          2.1955  -11.0910    2.0479 H         1 <0>         0.1352
     27 H3          2.1467  -11.0680   -2.2165 H         1 <0>         0.1387
     28 H4          2.9190  -14.6976   -0.1102 H         1 <0>         0.1374
     29 H5          1.2507   -9.1953   -0.9627 H         1 <0>         0.1131
     30 H6          1.2671   -9.2060    0.8335 H         1 <0>         0.1144
     31 H7          3.3709   -2.2450   -0.0424 H         1 <0>         0.4544
     32 H8         -0.9251   -0.5578    0.0083 H         1 <0>         0.1505
     33 H9         -0.9598    1.9008    0.0169 H         1 <0>         0.1464
     34 H10         3.3085    1.9789   -0.0187 H         1 <0>         0.1454
     35 H11         3.3637   -0.4793   -0.0324 H         1 <0>         0.1359
@<TRIPOS>BOND
     1    1    6 ar
     2    1    2 ar
     3    1   25 1
     4    2    3 ar
     5    2   26 1
     6    3    4 ar
     7    3    8 1
     8    4    5 ar
     9    4   27 1
    10    5    6 ar
    11    5    7 1
    12    6   28 1
    13    8    9 1
    14    8   29 1
    15    8   30 1
    16    9   10 1
    17   10   14 1
    18   10   11 2
    19   11   12 1
    20   12   13 2
    21   13   14 1
    22   13   15 1
    23   15   16 am
    24   15   31 1
    25   16   17 2
    26   16   18 1
    27   18   23 ar
    28   18   19 ar
    29   19   20 ar
    30   19   32 1
    31   20   21 ar
    32   20   33 1
    33   21   22 ar
    34   21   24 1
    35   22   23 ar
    36   22   34 1
    37   23   35 1
@<TRIPOS>MOLECULE
ZINC29127585
   34    36     0     0     0
SMALL
USER_CHARGES
4-chloro-N-[5-[(3-chlorophenyl)methylsulfanyl]-1,3,4-thiadiazol-2-yl]benzamide
@<TRIPOS>ATOM
      1 C1          2.5743  -12.9689    1.0988 C.ar      1 <0>        -0.1069
      2 C2          2.2958  -11.6146    1.1087 C.ar      1 <0>        -0.0962
      3 C3          2.1453  -10.9308   -0.0830 C.ar      1 <0>        -0.0542
      4 C4          2.2684  -11.6016   -1.2855 C.ar      1 <0>        -0.0924
      5 C5          2.5521  -12.9554   -1.2960 C.ar      1 <0>        -0.0343
      6 C6          2.7022  -13.6396   -0.1026 C.ar      1 <0>        -0.1094
      7 Cl1         2.7128  -13.7972   -2.8057 Cl        1 <0>        -0.0719
      8 C7          1.8408   -9.4549   -0.0714 C.3       1 <0>        -0.0716
      9 S1          3.3936   -8.5171   -0.0800 S.3       1 <0>         0.0066
     10 C8          2.8747   -6.8333   -0.0652 C.2       1 <0>        -0.0799
     11 N1          1.6540   -6.3181   -0.0506 N.2       1 <0>        -0.2357
     12 N2          1.4559   -5.0726   -0.0410 N.2       1 <0>        -0.3730
     13 C9          2.4539   -4.2038   -0.0450 C.2       1 <0>         0.3729
     14 S2          3.8462   -5.3292   -0.0719 S.3       1 <0>        -0.0754
     15 N3          2.4285   -2.8123   -0.0368 N.2       1 <0>        -0.6463
     16 C10         1.2492   -2.1599   -0.0220 C.2       1 <0>         0.5010
     17 O1          0.2076   -2.7870   -0.0158 O.3       1 <0>        -0.5616
     18 C11         1.2223   -0.6828   -0.0133 C.ar      1 <0>        -0.0800
     19 C12         0.0021   -0.0041    0.0020 C.ar      1 <0>        -0.0668
     20 C13        -0.0166    1.3747    0.0096 C.ar      1 <0>        -0.1256
     21 C14         1.1717    2.0863    0.0021 C.ar      1 <0>        -0.0280
     22 C15         2.3853    1.4187   -0.0132 C.ar      1 <0>        -0.1283
     23 C16         2.4169    0.0401   -0.0209 C.ar      1 <0>        -0.0562
     24 Cl2         1.1400    3.8220    0.0118 Cl        1 <0>        -0.0842
     25 H1          2.6914  -13.5028    2.0303 H         1 <0>         0.1341
     26 H2          2.1955  -11.0910    2.0479 H         1 <0>         0.1342
     27 H3          2.1467  -11.0680   -2.2165 H         1 <0>         0.1378
     28 H4          2.9190  -14.6976   -0.1102 H         1 <0>         0.1326
     29 H5          1.2507   -9.1953   -0.9627 H         1 <0>         0.1035
     30 H6          1.2671   -9.2060    0.8335 H         1 <0>         0.1048
     31 H7         -0.9251   -0.5578    0.0083 H         1 <0>         0.1391
     32 H8         -0.9598    1.9008    0.0169 H         1 <0>         0.1316
     33 H9          3.3085    1.9789   -0.0187 H         1 <0>         0.1319
     34 H10         3.3637   -0.4793   -0.0324 H         1 <0>         0.1479
@<TRIPOS>BOND
     1    1    6 ar
     2    1    2 ar
     3    1   25 1
     4    2    3 ar
     5    2   26 1
     6    3    4 ar
     7    3    8 1
     8    4    5 ar
     9    4   27 1
    10    5    6 ar
    11    5    7 1
    12    6   28 1
    13    8    9 1
    14    8   29 1
    15    8   30 1
    16    9   10 1
    17   10   14 1
    18   10   11 2
    19   11   12 1
    20   12   13 2
    21   13   14 1
    22   13   15 1
    23   15   16 2
    24   16   17 1
    25   16   18 1
    26   18   23 ar
    27   18   19 ar
    28   19   20 ar
    29   19   31 1
    30   20   21 ar
    31   20   32 1
    32   21   22 ar
    33   21   24 1
    34   22   23 ar
    35   22   33 1
    36   23   34 1
@<TRIPOS>MOLECULE
ZINC21985310
   36    38     0     0     0
SMALL
USER_CHARGES
4-methyl-N'-[4-(3-pyridyl)pyrimidin-2-yl]benzene-1,3-diamine
@<TRIPOS>ATOM
      1 C1         -2.3547    3.5822    1.2950 C.3       1 <0>        -0.1047
      2 C2         -1.1447    3.0018    0.6093 C.ar      1 <0>        -0.1865
      3 C3          0.0409    3.7109    0.5846 C.ar      1 <0>        -0.0476
      4 C4          1.1522    3.1828   -0.0432 C.ar      1 <0>        -0.2250
      5 C5          1.0812    1.9351   -0.6516 C.ar      1 <0>         0.2421
      6 C6         -0.1078    1.2203   -0.6283 C.ar      1 <0>        -0.2122
      7 C7         -1.2240    1.7564   -0.0016 C.ar      1 <0>         0.2179
      8 N1         -2.4254    1.0417    0.0196 N.pl3     1 <0>        -0.6433
      9 C8         -2.4121   -0.3391   -0.0920 C.ar      1 <0>         0.5682
     10 N2         -1.2493   -0.9751   -0.0995 N.ar      1 <0>        -0.5512
     11 C9         -1.1945   -2.2932   -0.2044 C.ar      1 <0>         0.1914
     12 C10        -2.3715   -3.0135   -0.3077 C.ar      1 <0>        -0.2749
     13 C11        -3.5820   -2.3158   -0.2971 C.ar      1 <0>         0.2642
     14 N3         -3.5611   -0.9897   -0.1831 N.ar      1 <0>        -0.5617
     15 C12        -4.8706   -3.0420   -0.4046 C.ar      1 <0>        -0.1143
     16 C13        -6.0823   -2.3445   -0.3940 C.ar      1 <0>        -0.0283
     17 C14        -7.2573   -3.0685   -0.4970 C.ar      1 <0>        -0.1783
     18 C15        -7.1959   -4.4460   -0.6061 C.ar      1 <0>         0.1154
     19 N4         -6.0375   -5.0767   -0.6132 N.ar      1 <0>        -0.4849
     20 C16        -4.8933   -4.4301   -0.5235 C.ar      1 <0>         0.1321
     21 N5          2.2053    1.4018   -1.2863 N.pl3     1 <0>        -0.8977
     22 H1         -2.1007    4.5661    1.7161 H         1 <0>         0.0664
     23 H2         -2.6760    2.9091    2.1035 H         1 <0>         0.0600
     24 H3         -3.1705    3.6949    0.5658 H         1 <0>         0.0585
     25 H4          0.0988    4.6804    1.0570 H         1 <0>         0.1216
     26 H5          2.0774    3.7397   -0.0610 H         1 <0>         0.1160
     27 H6         -0.1657    0.2508   -1.1006 H         1 <0>         0.1454
     28 H7         -3.3813    1.5757    0.1249 H         1 <0>         0.4476
     29 H8         -0.2414   -2.8011   -0.2098 H         1 <0>         0.1728
     30 H9         -2.3549   -4.0899   -0.3949 H         1 <0>         0.1486
     31 H10        -6.1008   -1.2681   -0.3073 H         1 <0>         0.1466
     32 H11        -8.2119   -2.5633   -0.4926 H         1 <0>         0.1421
     33 H12        -8.1109   -5.0141   -0.6870 H         1 <0>         0.1615
     34 H13        -3.9646   -4.9812   -0.5376 H         1 <0>         0.1623
     35 H14         2.1485    0.4143   -1.7676 H         1 <0>         0.4144
     36 H15         3.1474    1.9693   -1.3049 H         1 <0>         0.4151
@<TRIPOS>BOND
     1    1    2 1
     2    1   22 1
     3    1   23 1
     4    1   24 1
     5    2    7 ar
     6    2    3 ar
     7    3    4 ar
     8    3   25 1
     9    4    5 ar
    10    4   26 1
    11    5    6 ar
    12    5   21 1
    13    6    7 ar
    14    6   27 1
    15    7    8 1
    16    8    9 1
    17    8   28 1
    18    9   14 ar
    19    9   10 ar
    20   10   11 ar
    21   11   12 ar
    22   11   29 1
    23   12   13 ar
    24   12   30 1
    25   13   14 ar
    26   13   15 1
    27   15   20 ar
    28   15   16 ar
    29   16   17 ar
    30   16   31 1
    31   17   18 ar
    32   17   32 1
    33   18   19 ar
    34   18   33 1
    35   19   20 ar
    36   20   34 1
    37   21   35 1
    38   21   36 1
@<TRIPOS>MOLECULE
ZINC03073318
   36    38     0     0     0
SMALL
USER_CHARGES
[5-(2-amino-6-oxo-1H-purin-9-yl)-3,4-dihydroxy-tetrahydrofuran-2-yl]methoxyphosphonic acid
@<TRIPOS>ATOM
      1 C1          0.9744    6.9648   -3.8387 C.2       1 <0>         0.2513
      2 N1          0.5772    7.6381   -4.8786 N.2       1 <0>        -0.4307
      3 C2          0.1547    8.8642   -4.4847 C.2       1 <0>        -0.1225
      4 C3         -0.3656    9.9916   -5.1624 C.2       1 <0>         0.5936
      5 O1         -0.5143    9.9795   -6.3724 O.2       1 <0>        -0.5138
      6 N2         -0.6941   11.0823   -4.4352 N.am      1 <0>        -0.6417
      7 H1         -1.0637   11.8917   -4.8916 H         1 <0>         0.4264
      8 C4         -0.5241   11.0847   -3.0828 C.2       1 <0>         0.5848
      9 N3         -0.0414   10.0439   -2.4415 N.2       1 <0>        -0.5397
     10 C5          0.3055    8.9288   -3.0949 C.2       1 <0>         0.2828
     11 N4          0.8196    7.7196   -2.7122 N.pl3     1 <0>        -0.4408
     12 C6          1.1494    7.3121   -1.3442 C.3       1 <0>         0.3009
     13 H2          0.4479    7.7555   -0.6374 H         1 <0>         0.1183
     14 C7          2.5979    7.7205   -0.9958 C.3       1 <0>         0.0362
     15 H3          3.1947    7.8216   -1.9023 H         1 <0>         0.0856
     16 C8          3.1201    6.5512   -0.1314 C.3       1 <0>         0.0480
     17 H4          3.3866    6.9025    0.8655 H         1 <0>         0.0904
     18 C9          1.9253    5.5746   -0.0597 C.3       1 <0>         0.0880
     19 H5          1.3437    5.7498    0.8454 H         1 <0>         0.0988
     20 O2          1.1346    5.8724   -1.2310 O.3       1 <0>        -0.3300
     21 C10         2.4176    4.1267   -0.1033 C.3       1 <0>         0.1468
     22 O3          1.3018    3.2407    0.0070 O.3       1 <0>        -0.7567
     23 P1          1.4507    1.6376   -0.0030 P.3       1 <0>         2.1339
     24 O4          2.1794    1.2174   -1.2207 O.2       1 <0>        -1.1633
     25 O5          4.2410    5.9258   -0.7595 O.3       1 <0>        -0.5308
     26 O6          2.6088    8.9390   -0.2492 O.3       1 <0>        -0.5444
     27 N5         -0.8665   12.2063   -2.3702 N.pl3     1 <0>        -0.7477
     28 H6          1.3650    5.9582   -3.8628 H         1 <0>         0.2324
     29 H7          3.1042    3.9512    0.7249 H         1 <0>         0.0551
     30 H8          2.9328    3.9463   -1.0468 H         1 <0>         0.0565
     31 H9          5.0198    6.4946   -0.8309 H         1 <0>         0.3712
     32 H10         3.4937    9.2419   -0.0037 H         1 <0>         0.3810
     33 H11        -0.3256   12.9835   -2.6918 H         1 <0>         0.3672
     34 H12        -0.7513   12.2231   -1.4072 H         1 <0>         0.3936
     35 O7         -0.0110    0.9628    0.0073 O.3       1 <0>        -1.1793
     36 O8          2.2685    1.1664    1.3013 O.3       1 <0>        -1.2015
@<TRIPOS>BOND
     1    1   11 1
     2    1    2 2
     3    1   28 1
     4    2    3 1
     5    3   10 2
     6    3    4 1
     7    4    5 2
     8    4    6 am
     9    6    7 1
    10    6    8 1
    11    8    9 2
    12    8   27 1
    13    9   10 1
    14   10   11 1
    15   11   12 1
    16   12   13 1
    17   12   20 1
    18   12   14 1
    19   14   15 1
    20   14   16 1
    21   14   26 1
    22   16   17 1
    23   16   18 1
    24   16   25 1
    25   18   19 1
    26   18   20 1
    27   18   21 1
    28   21   22 1
    29   21   29 1
    30   21   30 1
    31   22   23 1
    32   23   24 2
    33   23   35 1
    34   23   36 1
    35   25   31 1
    36   26   32 1
    37   27   33 1
    38   27   34 1
@<TRIPOS>MOLECULE
ZINC03869963
   36    38     0     0     0
SMALL
USER_CHARGES
[5-(2-amino-6-oxo-3H-purin-9-yl)-3,4-dihydroxy-tetrahydrofuran-2-yl]methoxyphosphonic acid
@<TRIPOS>ATOM
      1 C1         -0.0164    1.3597    0.0095 C.2       1 <0>         0.2684
      2 N1          1.2047    1.8120    0.0003 N.2       1 <0>        -0.4412
      3 C2          2.0649    0.7674   -0.0135 C.2       1 <0>        -0.1140
      4 C3          1.3053   -0.3962   -0.0125 C.2       1 <0>         0.2620
      5 N2          0.0021   -0.0041    0.0020 N.pl3     1 <0>        -0.4212
      6 C4         -1.1676   -0.8861    0.0084 C.3       1 <0>         0.2980
      7 H1         -0.9648   -1.7798    0.5985 H         1 <0>         0.1173
      8 C5         -1.5580   -1.2722   -1.4355 C.3       1 <0>         0.0360
      9 H2         -1.1622   -2.2559   -1.6880 H         1 <0>         0.0835
     10 C6         -3.1044   -1.2973   -1.4105 C.3       1 <0>         0.0457
     11 H3         -3.4726   -2.2942   -1.6527 H         1 <0>         0.0845
     12 C7         -3.4628   -0.9270    0.0458 C.3       1 <0>         0.0863
     13 H4         -3.6143   -1.8270    0.6417 H         1 <0>         0.0964
     14 O1         -2.3198   -0.1894    0.5309 O.3       1 <0>        -0.3319
     15 C8         -4.7160   -0.0500    0.0794 C.3       1 <0>         0.1483
     16 O2         -5.0545    0.2455    1.4359 O.3       1 <0>        -0.7573
     17 P1         -6.3222    1.1490    1.8466 P.3       1 <0>         2.1346
     18 O3         -6.2396    2.4567    1.1583 O.2       1 <0>        -1.1635
     19 O4         -3.6400   -0.3328   -2.3187 O.3       1 <0>        -0.5195
     20 O5         -1.0886   -0.2896   -2.3608 O.3       1 <0>        -0.5300
     21 N3          1.9486   -1.6071   -0.0251 N.2       1 <0>        -0.5488
     22 H5          5.0568   -0.6912   -0.0496 H         1 <0>         0.4270
     23 C9          3.3058   -1.6676   -0.0383 C.2       1 <0>         0.5697
     24 N4          4.0619   -0.5909   -0.0397 N.am      1 <0>        -0.6180
     25 C10         3.5254    0.6393   -0.0281 C.2       1 <0>         0.5887
     26 O6          4.2383    1.6306   -0.0292 O.2       1 <0>        -0.5090
     27 N5          3.9099   -2.8963   -0.0506 N.pl3     1 <0>        -0.7487
     28 H6         -0.9070    1.9706    0.0213 H         1 <0>         0.2278
     29 H7         -4.5240    0.8789   -0.4578 H         1 <0>         0.0567
     30 H8         -5.5428   -0.5794   -0.3943 H         1 <0>         0.0533
     31 H9         -3.4447   -0.5165   -3.2478 H         1 <0>         0.3664
     32 H10        -1.3063   -0.4821   -3.2831 H         1 <0>         0.3755
     33 H11         4.4720   -2.9831   -0.8731 H         1 <0>         0.3668
     34 H12         3.3700   -3.7022   -0.0496 H         1 <0>         0.3922
     35 O7         -7.6790    0.3988    1.4126 O.3       1 <0>        -1.2021
     36 O8         -6.3228    1.3803    3.4399 O.3       1 <0>        -1.1799
@<TRIPOS>BOND
     1    1   28 1
     2    1    5 1
     3    1    2 2
     4    2    3 1
     5    3    4 2
     6    3   25 1
     7    4    5 1
     8    4   21 1
     9    5    6 1
    10    6    7 1
    11    6   14 1
    12    6    8 1
    13    8    9 1
    14    8   10 1
    15    8   20 1
    16   10   11 1
    17   10   12 1
    18   10   19 1
    19   12   13 1
    20   12   14 1
    21   12   15 1
    22   15   16 1
    23   15   29 1
    24   15   30 1
    25   16   17 1
    26   17   18 2
    27   17   35 1
    28   17   36 1
    29   19   31 1
    30   20   32 1
    31   21   23 2
    32   22   24 1
    33   23   24 1
    34   23   27 1
    35   24   25 am
    36   25   26 2
    37   27   34 1
    38   27   33 1
