@<TRIPOS>MOLECULE
ZINC13819928
   40    42     0     0     0
SMALL
USER_CHARGES
1-[(5R)-3-(2-hydroxyphenyl)-5-(m-tolyl)-4,5-dihydropyrazol-1-yl]ethanone
@<TRIPOS>ATOM
      1 C1          3.7112   -0.7073   -0.0378 C.3       1 <0>        -0.1155
      2 C2          2.3961    0.0283   -0.0212 C.ar      1 <0>        -0.0827
      3 C3          2.3773    1.4107   -0.0141 C.ar      1 <0>        -0.1153
      4 C4          1.1711    2.0854    0.0021 C.ar      1 <0>        -0.1130
      5 C5         -0.0167    1.3779    0.0096 C.ar      1 <0>        -0.1076
      6 C6          0.0021   -0.0041    0.0020 C.ar      1 <0>        -0.0866
      7 C7          1.2086   -0.6790   -0.0136 C.ar      1 <0>        -0.1008
      8 C8         -1.2926   -0.7753    0.0103 C.3       1 <0>         0.1483
      9 H1         -1.1293   -1.8003   -0.3226 H         1 <0>         0.1013
     10 C9         -1.9289   -0.7521    1.4142 C.3       1 <0>        -0.1242
     11 C10        -3.2557   -0.0590    1.2014 C.2       1 <0>         0.1354
     12 N1         -3.3815    0.2577   -0.0411 N.2       1 <0>        -0.2135
     13 N2         -2.2970   -0.1101   -0.8349 N.am      1 <0>        -0.4682
     14 C11        -2.1861    0.1073   -2.1604 C.2       1 <0>         0.5499
     15 O1         -1.1930   -0.2574   -2.7539 O.2       1 <0>        -0.5166
     16 C12        -3.2960    0.8035   -2.9051 C.3       1 <0>        -0.1592
     17 C13        -4.2518    0.2122    2.2532 C.ar      1 <0>        -0.0641
     18 C14        -4.0084   -0.1845    3.5701 C.ar      1 <0>        -0.0741
     19 C15        -4.9424    0.0769    4.5504 C.ar      1 <0>        -0.1305
     20 C16        -6.1259    0.7214    4.2330 C.ar      1 <0>        -0.0848
     21 C17        -6.3811    1.1139    2.9326 C.ar      1 <0>        -0.1495
     22 C18        -5.4513    0.8643    1.9365 C.ar      1 <0>         0.1454
     23 O2         -5.7012    1.2496    0.6584 O.3       1 <0>        -0.4799
     24 H2          4.0184   -0.8792   -1.0694 H         1 <0>         0.0720
     25 H3          4.4677   -0.1107    0.4720 H         1 <0>         0.0675
     26 H4          3.5987   -1.6642    0.4720 H         1 <0>         0.0670
     27 H5          3.3052    1.9634   -0.0204 H         1 <0>         0.1234
     28 H6          1.1565    3.1653    0.0081 H         1 <0>         0.1230
     29 H7         -0.9592    1.9051    0.0170 H         1 <0>         0.1136
     30 H8          1.2233   -1.7589   -0.0196 H         1 <0>         0.1226
     31 H9         -2.0822   -1.7669    1.7813 H         1 <0>         0.1079
     32 H10        -1.3074   -0.1839    2.1063 H         1 <0>         0.1072
     33 H11        -3.4458    1.7988   -2.4866 H         1 <0>         0.0936
     34 H12        -3.0290    0.8888   -3.9585 H         1 <0>         0.0913
     35 H13        -4.2158    0.2267   -2.8089 H         1 <0>         0.0922
     36 H14        -3.0884   -0.6915    3.8210 H         1 <0>         0.1329
     37 H15        -4.7516   -0.2261    5.5694 H         1 <0>         0.1325
     38 H16        -6.8537    0.9190    5.0061 H         1 <0>         0.1315
     39 H17        -7.3066    1.6162    2.6928 H         1 <0>         0.1349
     40 H18        -6.1554    0.5809    0.1277 H         1 <0>         0.3927
@<TRIPOS>BOND
     1    1    2 1
     2    1   24 1
     3    1   25 1
     4    1   26 1
     5    2    7 ar
     6    2    3 ar
     7    3    4 ar
     8    3   27 1
     9    4    5 ar
    10    4   28 1
    11    5    6 ar
    12    5   29 1
    13    6    7 ar
    14    6    8 1
    15    7   30 1
    16    8    9 1
    17    8   13 1
    18    8   10 1
    19   10   11 1
    20   10   31 1
    21   10   32 1
    22   11   12 2
    23   11   17 1
    24   12   13 1
    25   13   14 am
    26   14   15 2
    27   14   16 1
    28   16   33 1
    29   16   34 1
    30   16   35 1
    31   17   22 ar
    32   17   18 ar
    33   18   19 ar
    34   18   36 1
    35   19   20 ar
    36   19   37 1
    37   20   21 ar
    38   20   38 1
    39   21   22 ar
    40   21   39 1
    41   22   23 1
    42   23   40 1
@<TRIPOS>MOLECULE
ZINC13819930
   40    42     0     0     0
SMALL
USER_CHARGES
1-[(5S)-3-(2-hydroxyphenyl)-5-(m-tolyl)-4,5-dihydropyrazol-1-yl]ethanone
@<TRIPOS>ATOM
      1 C1          1.2290   -2.1858   -0.0219 C.3       1 <0>        -0.1158
      2 C2          1.2086   -0.6790   -0.0136 C.ar      1 <0>        -0.0819
      3 C3          0.0021   -0.0041    0.0020 C.ar      1 <0>        -0.1158
      4 C4         -0.0167    1.3779    0.0096 C.ar      1 <0>        -0.1129
      5 C5          1.1711    2.0854    0.0021 C.ar      1 <0>        -0.1079
      6 C6          2.3773    1.4107   -0.0141 C.ar      1 <0>        -0.0851
      7 C7          2.3961    0.0283   -0.0212 C.ar      1 <0>        -0.1018
      8 C8          3.6720    2.1819   -0.0223 C.3       1 <0>         0.1473
      9 H1          4.4857    1.5591   -0.3940 H         1 <0>         0.1009
     10 C9          3.9960    2.7131    1.3880 C.3       1 <0>        -0.1233
     11 C10         4.0109    4.2184    1.2119 C.2       1 <0>         0.1357
     12 N1          3.7578    4.5112   -0.0170 N.2       1 <0>        -0.2142
     13 N2          3.5423    3.4028   -0.8335 N.am      1 <0>        -0.4673
     14 C11         3.2607    3.4425   -2.1509 C.2       1 <0>         0.5503
     15 O1          3.0907    2.4109   -2.7662 O.2       1 <0>        -0.5174
     16 C12         3.1569    4.7684   -2.8596 C.3       1 <0>        -0.1619
     17 C13         4.2760    5.1966    2.2819 C.ar      1 <0>        -0.0640
     18 C14         4.5397    4.7606    3.5824 C.ar      1 <0>        -0.0740
     19 C15         4.7870    5.6811    4.5790 C.ar      1 <0>        -0.1304
     20 C16         4.7745    7.0364    4.2963 C.ar      1 <0>        -0.0846
     21 C17         4.5153    7.4804    3.0135 C.ar      1 <0>        -0.1495
     22 C18         4.2706    6.5692    1.9991 C.ar      1 <0>         0.1454
     23 O2          4.0209    7.0045    0.7371 O.3       1 <0>        -0.4797
     24 H2          1.2237   -2.5436   -1.0515 H         1 <0>         0.0721
     25 H3          2.1290   -2.5397    0.4811 H         1 <0>         0.0671
     26 H4          0.3492   -2.5640    0.4987 H         1 <0>         0.0676
     27 H5         -0.9258   -0.5567    0.0079 H         1 <0>         0.1234
     28 H6         -0.9592    1.9051    0.0170 H         1 <0>         0.1228
     29 H7          1.1565    3.1653    0.0081 H         1 <0>         0.1129
     30 H8          3.3386   -0.4989   -0.0331 H         1 <0>         0.1228
     31 H9          3.2210    2.4177    2.0953 H         1 <0>         0.1076
     32 H10         4.9716    2.3549    1.7167 H         1 <0>         0.1077
     33 H11         4.1359    5.0514   -3.2463 H         1 <0>         0.0966
     34 H12         2.4504    4.6846   -3.6855 H         1 <0>         0.0926
     35 H13         2.8092    5.5283   -2.1598 H         1 <0>         0.0906
     36 H14         4.5497    3.7043    3.8072 H         1 <0>         0.1330
     37 H15         4.9908    5.3433    5.5844 H         1 <0>         0.1325
     38 H16         4.9688    7.7506    5.0827 H         1 <0>         0.1315
     39 H17         4.5076    8.5392    2.8007 H         1 <0>         0.1349
     40 H18         3.0850    7.1647    0.5543 H         1 <0>         0.3922
@<TRIPOS>BOND
     1    1    2 1
     2    1   24 1
     3    1   25 1
     4    1   26 1
     5    2    7 ar
     6    2    3 ar
     7    3    4 ar
     8    3   27 1
     9    4    5 ar
    10    4   28 1
    11    5    6 ar
    12    5   29 1
    13    6    7 ar
    14    6    8 1
    15    7   30 1
    16    8    9 1
    17    8   13 1
    18    8   10 1
    19   10   11 1
    20   10   31 1
    21   10   32 1
    22   11   12 2
    23   11   17 1
    24   12   13 1
    25   13   14 am
    26   14   15 2
    27   14   16 1
    28   16   33 1
    29   16   34 1
    30   16   35 1
    31   17   22 ar
    32   17   18 ar
    33   18   19 ar
    34   18   36 1
    35   19   20 ar
    36   19   37 1
    37   20   21 ar
    38   20   38 1
    39   21   22 ar
    40   21   39 1
    41   22   23 1
    42   23   40 1
@<TRIPOS>MOLECULE
ZINC08034829
   12    11     0     0     0
SMALL
USER_CHARGES
1-aminoguanidine
@<TRIPOS>ATOM
      1 C1         -0.7124    2.5578   -0.9728 C.cat     1 <0>         0.7432
      2 N1         -1.4909    2.6294   -2.1037 N.pl3     1 <0>        -0.8045
      3 N2         -0.3443    1.3330   -0.4682 N.pl3     1 <0>        -0.5422
      4 N3          0.4292    1.2618    0.6555 N.3       1 <0>        -0.6005
      5 H1         -0.5313    4.5620   -0.6588 H         1 <0>         0.4523
      6 H2         -1.7804    1.8159   -2.5455 H         1 <0>         0.4401
      7 H3         -1.7506    3.4935   -2.4598 H         1 <0>         0.4425
      8 H4         -0.6339    0.5195   -0.9100 H         1 <0>         0.4372
      9 H5          0.6172    0.3024    0.9049 H         1 <0>         0.3992
     10 H6          1.2871    1.7795    0.5372 H         1 <0>         0.3590
     11 N4         -0.2847    3.6307   -0.3234 N.pl3     1 <0>        -0.7864
     12 H7          0.2950    3.5247    0.5174 H         1 <0>         0.4602
@<TRIPOS>BOND
     1    1    2 1
     2    1    3 1
     3    1   11 2
     4    2    6 1
     5    2    7 1
     6    3    4 1
     7    3    8 1
     8    4    9 1
     9    4   10 1
    10    5   11 1
    11   11   12 1
@<TRIPOS>MOLECULE
ZINC27181667
   19    19     0     0     0
SMALL
USER_CHARGES
(Z)-3-(1H-imidazol-4-yl)prop-2-en-1-amine
@<TRIPOS>ATOM
      1 C1         -1.4622   -1.7530    2.6972 C.2       1 <0>        -0.0058
      2 C2         -0.9540   -0.7463    1.9352 C.2       1 <0>        -0.0216
      3 N1         -0.1777   -1.3058    0.9831 N.2       1 <0>        -0.5146
      4 C3         -0.1928   -2.6012    1.1253 C.2       1 <0>         0.2211
      5 N2         -0.9806   -2.9206    2.1757 N.pl3     1 <0>        -0.5717
      6 H1         -1.2633   -3.8828    2.6277 H         1 <0>         0.4657
      7 C4         -1.2019    0.6987    2.1207 C.2       1 <0>         0.0014
      8 C5         -0.7399    1.5698    1.2342 C.2       1 <0>        -0.2306
      9 C6         -0.1823    1.0846   -0.0791 C.3       1 <0>        -0.0015
     10 N3          1.2296    1.4757   -0.1860 N.4       1 <0>        -0.6757
     11 H2         -2.1202   -1.6493    3.5473 H         1 <0>         0.1874
     12 H3          0.3390   -3.3062    0.5035 H         1 <0>         0.2147
     13 H4         -1.7697    1.0516    2.9942 H         1 <0>         0.1465
     14 H5         -0.7636    2.6467    1.4574 H         1 <0>         0.1347
     15 H6         -0.2641   -0.0112   -0.1297 H         1 <0>         0.1839
     16 H7         -0.7508    1.5333   -0.9070 H         1 <0>         0.1168
     17 H8          1.6366    1.1215   -1.1446 H         1 <0>         0.4520
     18 H9          1.7981    1.0269    0.6419 H         1 <0>         0.4526
     19 H10         1.3114    2.5715   -0.1354 H         1 <0>         0.4446
@<TRIPOS>BOND
     1    1    5 1
     2    1    2 2
     3    1   11 1
     4    2    3 1
     5    2    7 1
     6    3    4 2
     7    4    5 1
     8    4   12 1
     9    5    6 1
    10    7    8 2
    11    7   13 1
    12    8    9 1
    13    8   14 1
    14    9   10 1
    15    9   15 1
    16    9   16 1
    17   10   17 1
    18   10   18 1
    19   10   19 1
@<TRIPOS>MOLECULE
ZINC04942474
   40    42     0     0     0
SMALL
USER_CHARGES

@<TRIPOS>ATOM
      1 C1         -0.0184    1.5028    0.0103 C.3       1 <0>        -0.1203
      2 C2          0.0021   -0.0041    0.0020 C.ar      1 <0>        -0.0730
      3 C3          0.0057   -0.6888   -1.1991 C.ar      1 <0>        -0.1181
      4 C4          0.0245   -2.0707   -1.2067 C.ar      1 <0>        -0.1116
      5 C5          0.0400   -2.7685   -0.0132 C.ar      1 <0>        -0.1223
      6 C6          0.0373   -2.0840    1.1875 C.ar      1 <0>        -0.0941
      7 C7          0.0229   -0.7015    1.1951 C.ar      1 <0>        -0.0908
      8 C8          0.0252    0.0449    2.5043 C.3       1 <0>         0.1479
      9 H1         -0.6525    0.8975    2.4596 H         1 <0>         0.1040
     10 C9          1.4520    0.5043    2.8642 C.3       1 <0>        -0.1229
     11 C10         1.7438   -0.2019    4.1689 C.2       1 <0>         0.1379
     12 N1          0.7269   -0.9167    4.5082 N.2       1 <0>        -0.2146
     13 N2         -0.3424   -0.8513    3.6120 N.am      1 <0>        -0.4694
     14 C11        -1.5164   -1.5010    3.7382 C.2       1 <0>         0.5491
     15 O1         -2.3766   -1.3690    2.8930 O.2       1 <0>        -0.5170
     16 C12        -1.7606   -2.3916    4.9291 C.3       1 <0>        -0.1677
     17 C13         2.9983   -0.0904    4.9343 C.ar      1 <0>        -0.0643
     18 C14         4.0347    0.7225    4.4694 C.ar      1 <0>        -0.0739
     19 C15         5.2058    0.8228    5.1906 C.ar      1 <0>        -0.1304
     20 C16         5.3590    0.1211    6.3743 C.ar      1 <0>        -0.0845
     21 C17         4.3410   -0.6865    6.8449 C.ar      1 <0>        -0.1494
     22 C18         3.1559   -0.7947    6.1357 C.ar      1 <0>         0.1458
     23 O2          2.1529   -1.5839    6.6000 O.3       1 <0>        -0.4800
     24 H2          1.0042    1.8801    0.0026 H         1 <0>         0.0741
     25 H3         -0.5455    1.8639   -0.8728 H         1 <0>         0.0707
     26 H4         -0.5286    1.8543    0.9071 H         1 <0>         0.0663
     27 H5         -0.0064   -0.1437   -2.1314 H         1 <0>         0.1250
     28 H6          0.0266   -2.6056   -2.1449 H         1 <0>         0.1239
     29 H7          0.0540   -3.8484   -0.0191 H         1 <0>         0.1219
     30 H8          0.0491   -2.6290    2.1199 H         1 <0>         0.1127
     31 H9          2.1591    0.1940    2.0950 H         1 <0>         0.1073
     32 H10         1.4828    1.5855    2.9995 H         1 <0>         0.1074
     33 H11        -0.8820   -2.3848    5.5741 H         1 <0>         0.0939
     34 H12        -2.6230   -2.0251    5.4861 H         1 <0>         0.0964
     35 H13        -1.9536   -3.4089    4.5886 H         1 <0>         0.0952
     36 H14         3.9192    1.2712    3.5464 H         1 <0>         0.1329
     37 H15         6.0069    1.4512    4.8305 H         1 <0>         0.1326
     38 H16         6.2795    0.2050    6.9328 H         1 <0>         0.1316
     39 H17         4.4680   -1.2308    7.7690 H         1 <0>         0.1350
     40 H18         2.1958   -2.4984    6.2886 H         1 <0>         0.3925
@<TRIPOS>BOND
     1    1    2 1
     2    1   24 1
     3    1   25 1
     4    1   26 1
     5    2    7 ar
     6    2    3 ar
     7    3    4 ar
     8    3   27 1
     9    4    5 ar
    10    4   28 1
    11    5    6 ar
    12    5   29 1
    13    6    7 ar
    14    6   30 1
    15    7    8 1
    16    8    9 1
    17    8   13 1
    18    8   10 1
    19   10   11 1
    20   10   31 1
    21   10   32 1
    22   11   12 2
    23   11   17 1
    24   12   13 1
    25   13   14 am
    26   14   15 2
    27   14   16 1
    28   16   33 1
    29   16   34 1
    30   16   35 1
    31   17   22 ar
    32   17   18 ar
    33   18   19 ar
    34   18   36 1
    35   19   20 ar
    36   19   37 1
    37   20   21 ar
    38   20   38 1
    39   21   22 ar
    40   21   39 1
    41   22   23 1
    42   23   40 1
@<TRIPOS>MOLECULE
ZINC04942475
   40    42     0     0     0
SMALL
USER_CHARGES

@<TRIPOS>ATOM
      1 C1         -0.0184    1.5028    0.0103 C.3       1 <0>        -0.1199
      2 C2          0.0021   -0.0041    0.0020 C.ar      1 <0>        -0.0721
      3 C3          0.0057   -0.6888   -1.1991 C.ar      1 <0>        -0.1183
      4 C4          0.0245   -2.0707   -1.2067 C.ar      1 <0>        -0.1112
      5 C5          0.0400   -2.7685   -0.0132 C.ar      1 <0>        -0.1220
      6 C6          0.0373   -2.0840    1.1875 C.ar      1 <0>        -0.0955
      7 C7          0.0229   -0.7015    1.1951 C.ar      1 <0>        -0.0910
      8 C8          0.0252    0.0449    2.5043 C.3       1 <0>         0.1487
      9 H1          0.6077    0.9624    2.4204 H         1 <0>         0.1032
     10 C9         -1.4161    0.3566    2.9536 C.3       1 <0>        -0.1243
     11 C10        -1.5523   -0.3717    4.2716 C.2       1 <0>         0.1380
     12 N1         -0.4483   -0.9772    4.5449 N.2       1 <0>        -0.2146
     13 N2          0.5509   -0.8053    3.5842 N.am      1 <0>        -0.4689
     14 C11         1.7911   -1.3306    3.6351 C.2       1 <0>         0.5497
     15 O1          2.5790   -1.1137    2.7386 O.2       1 <0>        -0.5170
     16 C12         2.1989   -2.1876    4.8058 C.3       1 <0>        -0.1675
     17 C13        -2.7613   -0.3864    5.1142 C.ar      1 <0>        -0.0644
     18 C14        -3.9061    0.3055    4.7120 C.ar      1 <0>        -0.0739
     19 C15        -5.0342    0.2874    5.5048 C.ar      1 <0>        -0.1304
     20 C16        -5.0374   -0.4140    6.6985 C.ar      1 <0>        -0.0844
     21 C17        -3.9111   -1.1026    7.1076 C.ar      1 <0>        -0.1495
     22 C18        -2.7709   -1.0994    6.3208 C.ar      1 <0>         0.1459
     23 O2         -1.6653   -1.7800    6.7194 O.3       1 <0>        -0.4801
     24 H2          1.0042    1.8801    0.0026 H         1 <0>         0.0740
     25 H3         -0.5455    1.8639   -0.8728 H         1 <0>         0.0713
     26 H4         -0.5286    1.8543    0.9071 H         1 <0>         0.0650
     27 H5         -0.0064   -0.1437   -2.1314 H         1 <0>         0.1250
     28 H6          0.0266   -2.6056   -2.1449 H         1 <0>         0.1239
     29 H7          0.0540   -3.8484   -0.0191 H         1 <0>         0.1221
     30 H8          0.0491   -2.6290    2.1199 H         1 <0>         0.1135
     31 H9         -1.5493    1.4293    3.0940 H         1 <0>         0.1077
     32 H10        -2.1340   -0.0272    2.2288 H         1 <0>         0.1072
     33 H11         1.3659   -2.2690    5.5040 H         1 <0>         0.0938
     34 H12         2.4738   -3.1808    4.4507 H         1 <0>         0.0956
     35 H13         3.0519   -1.7327    5.3093 H         1 <0>         0.0958
     36 H14        -3.9075    0.8541    3.7817 H         1 <0>         0.1329
     37 H15        -5.9189    0.8229    5.1934 H         1 <0>         0.1326
     38 H16        -5.9250   -0.4228    7.3137 H         1 <0>         0.1316
     39 H17        -3.9212   -1.6474    8.0401 H         1 <0>         0.1350
     40 H18        -1.0570   -1.2592    7.2613 H         1 <0>         0.3926
@<TRIPOS>BOND
     1    1    2 1
     2    1   24 1
     3    1   25 1
     4    1   26 1
     5    2    7 ar
     6    2    3 ar
     7    3    4 ar
     8    3   27 1
     9    4    5 ar
    10    4   28 1
    11    5    6 ar
    12    5   29 1
    13    6    7 ar
    14    6   30 1
    15    7    8 1
    16    8    9 1
    17    8   13 1
    18    8   10 1
    19   10   11 1
    20   10   31 1
    21   10   32 1
    22   11   12 2
    23   11   17 1
    24   12   13 1
    25   13   14 am
    26   14   15 2
    27   14   16 1
    28   16   33 1
    29   16   34 1
    30   16   35 1
    31   17   22 ar
    32   17   18 ar
    33   18   19 ar
    34   18   36 1
    35   19   20 ar
    36   19   37 1
    37   20   21 ar
    38   20   38 1
    39   21   22 ar
    40   21   39 1
    41   22   23 1
    42   23   40 1
@<TRIPOS>MOLECULE
ZINC29414525
   21    20     0     0     0
SMALL
USER_CHARGES
(4R)-2,2-difluorohex-5-yne-1,4-diamine
@<TRIPOS>ATOM
      1 C1         -1.2925    1.9623   -2.1356 C.1       1 <0>        -0.1554
      2 C2         -0.7246    1.5734   -1.1845 C.1       1 <0>        -0.2202
      3 C3         -0.0127    1.0858    0.0080 C.3       1 <0>         0.1977
      4 H1         -0.0392   -0.0139    0.0041 H         1 <0>         0.1119
      5 C4          1.4227    1.6154   -0.0028 C.3       1 <0>        -0.1983
      6 C5          2.1988    1.0094    1.1682 C.3       1 <0>         0.2729
      7 C6          3.6341    1.5389    1.1573 C.3       1 <0>        -0.0376
      8 N1          4.3793    0.9571    2.2817 N.4       1 <0>        -0.6886
      9 F1          1.5798    1.3645    2.3715 F         1 <0>        -0.1767
     10 F2          2.2149   -0.3842    1.0456 F         1 <0>        -0.1767
     11 N2         -0.7003    1.5596    1.2166 N.3       1 <0>        -0.8286
     12 H2         -1.8246    2.3267   -3.0267 H         1 <0>         0.2389
     13 H3          1.9094    1.3362   -0.9489 H         1 <0>         0.1192
     14 H4          1.4100    2.7111    0.0936 H         1 <0>         0.1147
     15 H5          4.1208    1.2596    0.2112 H         1 <0>         0.1647
     16 H6          3.6215    2.6346    1.2536 H         1 <0>         0.1637
     17 H7          5.4113    1.3379    2.2738 H         1 <0>         0.4720
     18 H8          4.3920   -0.1386    2.1854 H         1 <0>         0.4650
     19 H9         -0.1683    1.1952    2.1078 H         1 <0>         0.3511
     20 H10        -0.7152    2.6595    1.2226 H         1 <0>         0.3461
     21 H11         3.8926    1.2364    3.2278 H         1 <0>         0.4643
@<TRIPOS>BOND
     1    1    2 3
     2    1   12 1
     3    2    3 1
     4    3    4 1
     5    3    5 1
     6    3   11 1
     7    5    6 1
     8    5   13 1
     9    5   14 1
    10    6    7 1
    11    6    9 1
    12    6   10 1
    13    7    8 1
    14    7   15 1
    15    7   16 1
    16    8   17 1
    17    8   18 1
    18    8   21 1
    19   11   19 1
    20   11   20 1
@<TRIPOS>MOLECULE
ZINC29414525
   20    19     0     0     0
SMALL
USER_CHARGES
(4R)-2,2-difluorohex-5-yne-1,4-diamine
@<TRIPOS>ATOM
      1 C1         -1.2925    1.9623   -2.1356 C.1       1 <0>        -0.1879
      2 C2         -0.7246    1.5734   -1.1845 C.1       1 <0>        -0.1933
      3 C3         -0.0127    1.0858    0.0080 C.3       1 <0>         0.1902
      4 H1         -0.0392   -0.0139    0.0041 H         1 <0>         0.1093
      5 C4          1.4227    1.6154   -0.0028 C.3       1 <0>        -0.1936
      6 C5          2.1988    1.0094    1.1682 C.3       1 <0>         0.2960
      7 C6          3.6341    1.5389    1.1573 C.3       1 <0>         0.0077
      8 N1          4.3793    0.9571    2.2817 N.3       1 <0>        -0.8279
      9 F1          1.5798    1.3645    2.3715 F         1 <0>        -0.1929
     10 F2          2.2149   -0.3842    1.0456 F         1 <0>        -0.1839
     11 N2         -0.7003    1.5596    1.2166 N.3       1 <0>        -0.8324
     12 H2         -1.8246    2.3267   -3.0267 H         1 <0>         0.2344
     13 H3          1.9094    1.3362   -0.9489 H         1 <0>         0.1070
     14 H4          1.4100    2.7111    0.0936 H         1 <0>         0.1013
     15 H5          4.1208    1.2596    0.2112 H         1 <0>         0.1054
     16 H6          3.6215    2.6346    1.2536 H         1 <0>         0.0612
     17 H7          5.4113    1.3379    2.2738 H         1 <0>         0.3544
     18 H8         -0.1683    1.1952    2.1078 H         1 <0>         0.3581
     19 H9          3.8926    1.2364    3.2278 H         1 <0>         0.3481
     20 H10        -0.7152    2.6595    1.2226 H         1 <0>         0.3389
@<TRIPOS>BOND
     1    1    2 3
     2    1   12 1
     3    2    3 1
     4    3    4 1
     5    3    5 1
     6    3   11 1
     7    5    6 1
     8    5   13 1
     9    5   14 1
    10    6    7 1
    11    6    9 1
    12    6   10 1
    13    7    8 1
    14    7   15 1
    15    7   16 1
    16    8   17 1
    17    8   19 1
    18   11   18 1
    19   11   20 1
@<TRIPOS>MOLECULE
ZINC29414525
   21    20     0     0     0
SMALL
USER_CHARGES
(4R)-2,2-difluorohex-5-yne-1,4-diamine
@<TRIPOS>ATOM
      1 C1         -1.2925    1.9623   -2.1356 C.1       1 <0>        -0.0516
      2 C2         -0.7246    1.5734   -1.1845 C.1       1 <0>        -0.3065
      3 C3         -0.0127    1.0858    0.0080 C.3       1 <0>         0.1805
      4 H1         -0.0392   -0.0139    0.0041 H         1 <0>         0.1587
      5 C4          1.4227    1.6154   -0.0028 C.3       1 <0>        -0.1823
      6 C5          2.1988    1.0094    1.1682 C.3       1 <0>         0.2848
      7 C6          3.6341    1.5389    1.1573 C.3       1 <0>         0.0064
      8 N1          4.3793    0.9571    2.2817 N.3       1 <0>        -0.8297
      9 F1          1.5798    1.3645    2.3715 F         1 <0>        -0.1972
     10 F2          2.2149   -0.3842    1.0456 F         1 <0>        -0.1715
     11 N2         -0.7003    1.5596    1.2166 N.4       1 <0>        -0.6943
     12 H2         -1.8246    2.3267   -3.0267 H         1 <0>         0.2551
     13 H3          1.9094    1.3362   -0.9489 H         1 <0>         0.1493
     14 H4          1.4100    2.7111    0.0936 H         1 <0>         0.1278
     15 H5          4.1208    1.2596    0.2112 H         1 <0>         0.1143
     16 H6          3.6215    2.6346    1.2536 H         1 <0>         0.0683
     17 H7          5.4113    1.3379    2.2738 H         1 <0>         0.3679
     18 H8         -0.1683    1.1952    2.1078 H         1 <0>         0.4557
     19 H9         -1.7323    1.1789    1.2244 H         1 <0>         0.4612
     20 H10         3.8926    1.2364    3.2278 H         1 <0>         0.3489
     21 H11        -0.7152    2.6595    1.2226 H         1 <0>         0.4541
@<TRIPOS>BOND
     1    1    2 3
     2    1   12 1
     3    2    3 1
     4    3    4 1
     5    3    5 1
     6    3   11 1
     7    5    6 1
     8    5   13 1
     9    5   14 1
    10    6    7 1
    11    6    9 1
    12    6   10 1
    13    7    8 1
    14    7   15 1
    15    7   16 1
    16    8   17 1
    17    8   20 1
    18   11   18 1
    19   11   19 1
    20   11   21 1
@<TRIPOS>MOLECULE
ZINC29414528
   21    20     0     0     0
SMALL
USER_CHARGES
(4S)-2,2-difluorohex-5-yne-1,4-diamine
@<TRIPOS>ATOM
      1 C1          0.4214    0.5279    3.4053 C.1       1 <0>        -0.1558
      2 C2         -0.0890    0.9944    2.4565 C.1       1 <0>        -0.2214
      3 C3         -0.7288    1.5792    1.2668 C.3       1 <0>         0.1956
      4 H1         -1.7912    1.2939    1.2669 H         1 <0>         0.0674
      5 C4         -0.0127    1.0858    0.0080 C.3       1 <0>        -0.1540
      6 C5         -0.7527    1.5927   -1.2315 C.3       1 <0>         0.2711
      7 C6         -0.0366    1.0992   -2.4903 C.3       1 <0>        -0.0372
      8 N1         -0.7471    1.5859   -3.6804 N.4       1 <0>        -0.6885
      9 F1         -2.0652    1.1084   -1.2216 F         1 <0>        -0.1820
     10 F2         -0.7717    2.9915   -1.2238 F         1 <0>        -0.1703
     11 N2         -0.6445    3.0442    1.3358 N.3       1 <0>        -0.8380
     12 H2          0.8996    0.0908    4.2943 H         1 <0>         0.2390
     13 H3          1.0193    1.4665    0.0002 H         1 <0>         0.1228
     14 H4          0.0022   -0.0141    0.0019 H         1 <0>         0.1167
     15 H5          0.9954    1.4799   -2.4981 H         1 <0>         0.1652
     16 H6         -0.0217   -0.0007   -2.4963 H         1 <0>         0.1640
     17 H7         -0.2323    1.2311   -4.5854 H         1 <0>         0.4716
     18 H8         -0.7619    2.6858   -3.6743 H         1 <0>         0.4645
     19 H9         -1.1226    3.4812    0.4468 H         1 <0>         0.3482
     20 H10        -1.1595    3.3989    2.2408 H         1 <0>         0.3573
     21 H11        -1.7791    1.2052   -3.6725 H         1 <0>         0.4638
@<TRIPOS>BOND
     1    1    2 3
     2    1   12 1
     3    2    3 1
     4    3    4 1
     5    3    5 1
     6    3   11 1
     7    5    6 1
     8    5   13 1
     9    5   14 1
    10    6    7 1
    11    6    9 1
    12    6   10 1
    13    7    8 1
    14    7   15 1
    15    7   16 1
    16    8   17 1
    17    8   18 1
    18    8   21 1
    19   11   19 1
    20   11   20 1
@<TRIPOS>MOLECULE
ZINC29414528
   20    19     0     0     0
SMALL
USER_CHARGES
(4S)-2,2-difluorohex-5-yne-1,4-diamine
@<TRIPOS>ATOM
      1 C1          0.4214    0.5279    3.4053 C.1       1 <0>        -0.1880
      2 C2         -0.0890    0.9944    2.4565 C.1       1 <0>        -0.1947
      3 C3         -0.7288    1.5792    1.2668 C.3       1 <0>         0.1903
      4 H1         -1.7912    1.2939    1.2669 H         1 <0>         0.0640
      5 C4         -0.0127    1.0858    0.0080 C.3       1 <0>        -0.1517
      6 C5         -0.7527    1.5927   -1.2315 C.3       1 <0>         0.2943
      7 C6         -0.0366    1.0992   -2.4903 C.3       1 <0>         0.0079
      8 N1         -0.7471    1.5859   -3.6804 N.3       1 <0>        -0.8280
      9 F1         -2.0652    1.1084   -1.2216 F         1 <0>        -0.2002
     10 F2         -0.7717    2.9915   -1.2238 F         1 <0>        -0.1753
     11 N2         -0.6445    3.0442    1.3358 N.3       1 <0>        -0.8376
     12 H2          0.8996    0.0908    4.2943 H         1 <0>         0.2345
     13 H3          1.0193    1.4665    0.0002 H         1 <0>         0.1112
     14 H4          0.0022   -0.0141    0.0019 H         1 <0>         0.1031
     15 H5          0.9954    1.4799   -2.4981 H         1 <0>         0.1061
     16 H6         -0.0217   -0.0007   -2.4963 H         1 <0>         0.0616
     17 H7         -0.2323    1.2311   -4.5854 H         1 <0>         0.3538
     18 H8         -1.1226    3.4812    0.4468 H         1 <0>         0.3578
     19 H9         -1.7791    1.2052   -3.6725 H         1 <0>         0.3473
     20 H10        -1.1595    3.3989    2.2408 H         1 <0>         0.3435
@<TRIPOS>BOND
     1    1    2 3
     2    1   12 1
     3    2    3 1
     4    3    4 1
     5    3    5 1
     6    3   11 1
     7    5    6 1
     8    5   13 1
     9    5   14 1
    10    6    7 1
    11    6    9 1
    12    6   10 1
    13    7    8 1
    14    7   15 1
    15    7   16 1
    16    8   17 1
    17    8   19 1
    18   11   18 1
    19   11   20 1
@<TRIPOS>MOLECULE
ZINC29414528
   21    20     0     0     0
SMALL
USER_CHARGES
(4S)-2,2-difluorohex-5-yne-1,4-diamine
@<TRIPOS>ATOM
      1 C1          0.4214    0.5279    3.4053 C.1       1 <0>        -0.0519
      2 C2         -0.0890    0.9944    2.4565 C.1       1 <0>        -0.3064
      3 C3         -0.7288    1.5792    1.2668 C.3       1 <0>         0.1808
      4 H1         -1.7912    1.2939    1.2669 H         1 <0>         0.1577
      5 C4         -0.0127    1.0858    0.0080 C.3       1 <0>        -0.1825
      6 C5         -0.7527    1.5927   -1.2315 C.3       1 <0>         0.2849
      7 C6         -0.0366    1.0992   -2.4903 C.3       1 <0>         0.0056
      8 N1         -0.7471    1.5859   -3.6804 N.3       1 <0>        -0.8323
      9 F1         -2.0652    1.1084   -1.2216 F         1 <0>        -0.1831
     10 F2         -0.7717    2.9915   -1.2238 F         1 <0>        -0.1853
     11 N2         -0.6445    3.0442    1.3358 N.4       1 <0>        -0.6945
     12 H2          0.8996    0.0908    4.2943 H         1 <0>         0.2551
     13 H3          1.0193    1.4665    0.0002 H         1 <0>         0.1296
     14 H4          0.0022   -0.0141    0.0019 H         1 <0>         0.1475
     15 H5          0.9954    1.4799   -2.4981 H         1 <0>         0.1109
     16 H6         -0.0217   -0.0007   -2.4963 H         1 <0>         0.0722
     17 H7         -0.2323    1.2311   -4.5854 H         1 <0>         0.3673
     18 H8         -1.1226    3.4812    0.4468 H         1 <0>         0.4561
     19 H9          0.4117    3.3494    1.3715 H         1 <0>         0.4548
     20 H10        -1.7791    1.2052   -3.6725 H         1 <0>         0.3527
     21 H11        -1.1595    3.3989    2.2408 H         1 <0>         0.4609
@<TRIPOS>BOND
     1    1    2 3
     2    1   12 1
     3    2    3 1
     4    3    4 1
     5    3    5 1
     6    3   11 1
     7    5    6 1
     8    5   13 1
     9    5   14 1
    10    6    7 1
    11    6    9 1
    12    6   10 1
    13    7    8 1
    14    7   15 1
    15    7   16 1
    16    8   17 1
    17    8   20 1
    18   11   18 1
    19   11   19 1
    20   11   21 1
@<TRIPOS>MOLECULE
ZINC13608478
   22    22     0     0     0
SMALL
USER_CHARGES
4-(aminomethyl)-N-methyl-pyridin-3-amine
@<TRIPOS>ATOM
      1 C1         -0.0127    1.0858    0.0080 C.3       1 <0>         0.0772
      2 N1         -0.6984    1.5583    1.2133 N.pl3     1 <0>        -0.7443
      3 C2         -0.2045    1.2205    2.4758 C.ar      1 <0>         0.1844
      4 C3          0.9329    0.4324    2.6001 C.ar      1 <0>         0.0494
      5 N2          1.4049    0.1166    3.7893 N.ar      1 <0>        -0.4169
      6 C4          0.8186    0.5207    4.8994 C.ar      1 <0>         0.0501
      7 C5         -0.3203    1.3029    4.8573 C.ar      1 <0>        -0.0935
      8 C6         -0.8482    1.6640    3.6284 C.ar      1 <0>        -0.2097
      9 C7         -2.0886    2.5153    3.5410 C.3       1 <0>         0.0578
     10 H1          0.0021   -0.0041    0.0020 H         1 <0>         0.0679
     11 H2          1.0099    1.4631    0.0003 H         1 <0>         0.0675
     12 H3         -0.5399    1.4469   -0.8751 H         1 <0>         0.0872
     13 H4         -1.4954    2.1056    1.1349 H         1 <0>         0.3922
     14 H5          1.4379    0.0789    1.7133 H         1 <0>         0.1654
     15 H6          1.2344    0.2367    5.8549 H         1 <0>         0.1672
     16 H7         -0.7930    1.6291    5.7719 H         1 <0>         0.1471
     17 H8         -2.2343    3.0430    4.4835 H         1 <0>         0.1496
     18 H9         -1.9768    3.2386    2.7332 H         1 <0>         0.1333
     19 H10        -3.3397    0.9391    3.9754 H         1 <0>         0.4406
     20 H11        -4.0972    2.2071    3.2110 H         1 <0>         0.4414
     21 N3         -3.2455    1.6498    3.2517 N.4       1 <0>        -0.6474
     22 H12        -3.1035    1.1883    2.3455 H         1 <0>         0.4332
@<TRIPOS>BOND
     1    1    2 1
     2    1   10 1
     3    1   11 1
     4    1   12 1
     5    2    3 1
     6    2   13 1
     7    3    8 ar
     8    3    4 ar
     9    4    5 ar
    10    4   14 1
    11    5    6 ar
    12    6    7 ar
    13    6   15 1
    14    7    8 ar
    15    7   16 1
    16    8    9 1
    17    9   17 1
    18    9   18 1
    19    9   21 1
    20   19   21 1
    21   20   21 1
    22   21   22 1
@<TRIPOS>MOLECULE
ZINC13608474
   19    19     0     0     0
SMALL
USER_CHARGES
4-(aminomethyl)pyridin-3-amine
@<TRIPOS>ATOM
      1 C1          1.2296   -0.6452   -0.0131 C.ar      1 <0>        -0.0941
      2 C2          2.3869    0.1115   -0.0201 C.ar      1 <0>         0.0515
      3 N1          2.3351    1.4290   -0.0130 N.ar      1 <0>        -0.4168
      4 C3          1.1885    2.0791    0.0019 C.ar      1 <0>         0.0500
      5 C4         -0.0168    1.3889    0.0097 C.ar      1 <0>         0.1873
      6 C5          0.0021   -0.0041    0.0020 C.ar      1 <0>        -0.2104
      7 C6         -1.2814   -0.7937    0.0095 C.3       1 <0>         0.0574
      8 N2         -1.2302    2.0814    0.0192 N.pl3     1 <0>        -0.8677
      9 H1          1.2823   -1.7239   -0.0191 H         1 <0>         0.1474
     10 H2          3.3466   -0.3835   -0.0320 H         1 <0>         0.1676
     11 H3          1.1862    3.1590    0.0073 H         1 <0>         0.1661
     12 H4         -1.0817   -1.8085    0.3538 H         1 <0>         0.1495
     13 H5         -1.9973   -0.3172    0.6793 H         1 <0>         0.1341
     14 H6         -1.1669   -1.2169   -2.0020 H         1 <0>         0.4406
     15 H7         -2.6988   -1.3625   -1.3711 H         1 <0>         0.4417
     16 H8         -2.0678    1.5922    0.0206 H         1 <0>         0.3918
     17 H9         -1.2350    3.0513    0.0245 H         1 <0>         0.4178
     18 N3         -1.8409   -0.8134   -1.3535 N.4       1 <0>        -0.6473
     19 H10        -2.0525    0.1480   -1.6454 H         1 <0>         0.4334
@<TRIPOS>BOND
     1    1    6 ar
     2    1    2 ar
     3    1    9 1
     4    2    3 ar
     5    2   10 1
     6    3    4 ar
     7    4    5 ar
     8    4   11 1
     9    5    6 ar
    10    5    8 1
    11    6    7 1
    12    7   12 1
    13    7   13 1
    14    7   18 1
    15    8   16 1
    16    8   17 1
    17   14   18 1
    18   15   18 1
    19   18   19 1
@<TRIPOS>MOLECULE
ZINC13608474
   20    20     0     0     0
SMALL
USER_CHARGES
4-(aminomethyl)pyridin-3-amine
@<TRIPOS>ATOM
      1 C1          1.2296   -0.6452   -0.0131 C.ar      1 <0>        -0.0434
      2 C2          2.3869    0.1115   -0.0201 C.ar      1 <0>         0.0946
      3 C3          1.1885    2.0791    0.0019 C.ar      1 <0>         0.0749
      4 C4         -0.0168    1.3889    0.0097 C.ar      1 <0>         0.2321
      5 C5          0.0021   -0.0041    0.0020 C.ar      1 <0>        -0.1298
      6 C6         -1.2814   -0.7937    0.0095 C.3       1 <0>         0.0410
      7 N1         -1.2302    2.0814    0.0192 N.pl3     1 <0>        -0.8346
      8 H1          1.2823   -1.7239   -0.0191 H         1 <0>         0.1992
      9 H2          3.3466   -0.3835   -0.0320 H         1 <0>         0.2104
     10 H3          1.1862    3.1590    0.0073 H         1 <0>         0.2072
     11 H4         -1.0817   -1.8085    0.3538 H         1 <0>         0.1711
     12 H5         -1.9973   -0.3172    0.6793 H         1 <0>         0.1535
     13 H6         -1.1669   -1.2169   -2.0020 H         1 <0>         0.4461
     14 H7         -2.6988   -1.3625   -1.3711 H         1 <0>         0.4577
     15 H8         -2.0678    1.5922    0.0206 H         1 <0>         0.4150
     16 H9         -1.2350    3.0513    0.0245 H         1 <0>         0.4337
     17 N2         -1.8409   -0.8134   -1.3535 N.4       1 <0>        -0.6484
     18 H10        -2.0525    0.1480   -1.6454 H         1 <0>         0.4366
     19 N3          2.4034    1.4706   -0.0135 N.ar      1 <0>        -0.4102
     20 H11         3.2803    2.0049   -0.0197 H         1 <0>         0.4932
@<TRIPOS>BOND
     1    1    5 ar
     2    1    2 ar
     3    1    8 1
     4    2    9 1
     5    2   19 ar
     6    3    4 ar
     7    3   10 1
     8    3   19 ar
     9    4    5 ar
    10    4    7 1
    11    5    6 1
    12    6   11 1
    13    6   12 1
    14    6   17 1
    15    7   15 1
    16    7   16 1
    17   13   17 1
    18   14   17 1
    19   17   18 1
    20   19   20 1
@<TRIPOS>MOLECULE
ZINC13608489
   26    27     0     0     0
SMALL
USER_CHARGES
4-(aminomethyl)-N-cyclopropyl-pyridin-3-amine
@<TRIPOS>ATOM
      1 C1          1.1977   -0.6985   -0.0136 C.ar      1 <0>        -0.0925
      2 C2          0.0021   -0.0041    0.0020 C.ar      1 <0>         0.0507
      3 N1         -0.0158    1.3143    0.0093 N.ar      1 <0>        -0.4162
      4 C3          1.0949    2.0241    0.0025 C.ar      1 <0>         0.0498
      5 C4          2.3350    1.3987   -0.0127 C.ar      1 <0>         0.1903
      6 C5          2.3896    0.0067   -0.0212 C.ar      1 <0>        -0.2091
      7 C6          3.7130   -0.7140   -0.0387 C.3       1 <0>         0.0573
      8 N2          3.5100    2.1543   -0.0203 N.pl3     1 <0>        -0.7096
      9 C7          3.4400    3.6176   -0.0113 C.3       1 <0>         0.0674
     10 C8          4.3780    4.3756   -0.9528 C.3       1 <0>        -0.1880
     11 C9          4.6405    4.3789    0.5545 C.3       1 <0>        -0.1832
     12 H1          1.2019   -1.7785   -0.0201 H         1 <0>         0.1476
     13 H2         -0.9302   -0.5492    0.0080 H         1 <0>         0.1675
     14 H3          1.0402    3.1027    0.0084 H         1 <0>         0.1657
     15 H4          3.5668   -1.7337   -0.3949 H         1 <0>         0.1505
     16 H5          4.4020   -0.1924   -0.7030 H         1 <0>         0.1327
     17 H6          3.6231   -1.1665    1.9677 H         1 <0>         0.4410
     18 H7          5.1599   -1.2236    1.3344 H         1 <0>         0.4415
     19 H8          4.3722    1.7101   -0.0316 H         1 <0>         0.3918
     20 H9          2.4498    4.0398    0.1606 H         1 <0>         0.1398
     21 H10         5.0472    3.7855   -1.5790 H         1 <0>         0.0994
     22 H11         4.0050    5.2967   -1.4007 H         1 <0>         0.1112
     23 H12         4.4402    5.3021    1.0982 H         1 <0>         0.1124
     24 H13         5.4824    3.7910    0.9200 H         1 <0>         0.0967
     25 N3          4.2743   -0.7203    1.3238 N.4       1 <0>        -0.6478
     26 H14         4.4352    0.2473    1.6270 H         1 <0>         0.4331
@<TRIPOS>BOND
     1    1    6 ar
     2    1    2 ar
     3    1   12 1
     4    2    3 ar
     5    2   13 1
     6    3    4 ar
     7    4    5 ar
     8    4   14 1
     9    5    6 ar
    10    5    8 1
    11    6    7 1
    12    7   15 1
    13    7   16 1
    14    7   25 1
    15    8    9 1
    16    8   19 1
    17    9   11 1
    18    9   10 1
    19    9   20 1
    20   10   11 1
    21   10   21 1
    22   10   22 1
    23   11   23 1
    24   11   24 1
    25   17   25 1
    26   18   25 1
    27   25   26 1
@<TRIPOS>MOLECULE
ZINC13608481
   25    25     0     0     0
SMALL
USER_CHARGES
4-(aminomethyl)-N-ethyl-pyridin-3-amine
@<TRIPOS>ATOM
      1 C1          0.9418    3.6428    0.0126 C.3       1 <0>        -0.1693
      2 C2          1.2417    2.1425    0.0017 C.3       1 <0>         0.1077
      3 N1         -0.0169    1.3929    0.0097 N.pl3     1 <0>        -0.7406
      4 C3          0.0021   -0.0041    0.0020 C.ar      1 <0>         0.1866
      5 C4          1.2086   -0.6927   -0.0132 C.ar      1 <0>         0.0488
      6 N2          1.2302   -2.0104   -0.0205 N.ar      1 <0>        -0.4167
      7 C5          0.1210   -2.7237   -0.0133 C.ar      1 <0>         0.0494
      8 C6         -1.1179   -2.1106    0.0023 C.ar      1 <0>        -0.0931
      9 C7         -1.1882   -0.7271    0.0153 C.ar      1 <0>        -0.2102
     10 C8         -2.5198   -0.0218    0.0382 C.3       1 <0>         0.0577
     11 H1          0.3583    3.9031   -0.8704 H         1 <0>         0.0619
     12 H2          0.3752    3.8936    0.9094 H         1 <0>         0.0647
     13 H3          1.8783    4.2006    0.0067 H         1 <0>         0.0857
     14 H4          1.8253    1.8823    0.8848 H         1 <0>         0.0743
     15 H5          1.8083    1.8918   -0.8951 H         1 <0>         0.0745
     16 H6         -0.8634    1.8664    0.0163 H         1 <0>         0.3904
     17 H7          2.1381   -0.1427   -0.0195 H         1 <0>         0.1646
     18 H8          0.1813   -3.8020   -0.0193 H         1 <0>         0.1668
     19 H9         -2.0206   -2.7034    0.0081 H         1 <0>         0.1468
     20 H10        -3.2877   -0.7070    0.3972 H         1 <0>         0.1497
     21 H11        -2.4629    0.8405    0.7026 H         1 <0>         0.1331
     22 H12        -2.8552   -0.3460   -1.9669 H         1 <0>         0.4406
     23 H13        -3.7490    0.9034   -1.3298 H         1 <0>         0.4413
     24 N3         -2.8403    0.4430   -1.3228 N.4       1 <0>        -0.6476
     25 H14        -2.1236    1.1117   -1.6287 H         1 <0>         0.4331
@<TRIPOS>BOND
     1    1    2 1
     2    1   11 1
     3    1   12 1
     4    1   13 1
     5    2    3 1
     6    2   14 1
     7    2   15 1
     8    3    4 1
     9    3   16 1
    10    4    9 ar
    11    4    5 ar
    12    5    6 ar
    13    5   17 1
    14    6    7 ar
    15    7    8 ar
    16    7   18 1
    17    8    9 ar
    18    8   19 1
    19    9   10 1
    20   10   20 1
    21   10   21 1
    22   10   24 1
    23   22   24 1
    24   23   24 1
    25   24   25 1
