@<TRIPOS>MOLECULE
ZINC49114528
   52    56     0     0     0
SMALL
USER_CHARGES

@<TRIPOS>ATOM
      1 C1         -0.1945    1.5410    1.0932 C.3       1 <0>        -0.1140
      2 C2         -0.1408    0.0380    0.9973 C.ar      1 <0>        -0.1306
      3 C3          0.0794   -0.5654   -0.2227 C.ar      1 <0>        -0.0227
      4 C4          0.1294   -1.9579   -0.3039 C.ar      1 <0>        -0.2529
      5 C5         -0.0399   -2.7402    0.8502 C.ar      1 <0>         0.1801
      6 C6         -0.2636   -2.1117    2.0672 C.ar      1 <0>        -0.1600
      7 C7         -0.3073   -0.7334    2.1364 C.ar      1 <0>        -0.0150
      8 C8         -0.5439   -0.0608    3.4641 C.3       1 <0>        -0.1248
      9 O1          0.0178   -4.0909    0.7863 O.3       1 <0>        -0.2966
     10 C9         -0.2362   -4.7281   -0.4650 C.3       1 <0>         0.1311
     11 C10        -1.7003   -4.5209   -0.8586 C.3       1 <0>        -0.1627
     12 C11        -2.6050   -5.1096    0.2286 C.3       1 <0>         0.1187
     13 N1         -2.2307   -6.5137    0.4457 N.am      1 <0>        -0.6036
     14 C12        -0.8275   -6.8333    0.7418 C.3       1 <0>         0.0994
     15 C13         0.0582   -6.2248   -0.3501 C.3       1 <0>        -0.1192
     16 C14        -3.1569   -7.4902    0.3740 C.2       1 <0>         0.5650
     17 O2         -4.3269   -7.2070    0.2027 O.2       1 <0>        -0.5335
     18 C15        -2.7512   -8.9024    0.5034 C.ar      1 <0>        -0.1577
     19 C16        -2.0171   -9.3221    1.6090 C.ar      1 <0>        -0.0346
     20 C17        -1.6334  -10.6466    1.7361 C.ar      1 <0>        -0.1667
     21 C18        -1.9701  -11.5714    0.7730 C.ar      1 <0>        -0.0110
     22 C19        -2.7076  -11.1770   -0.3480 C.ar      1 <0>        -0.1855
     23 C20        -3.1084   -9.8349   -0.4864 C.ar      1 <0>         0.1713
     24 N2         -3.8077   -9.7496   -1.6558 N.pl3     1 <0>        -0.5005
     25 H1         -4.2049   -8.9410   -2.0155 H         1 <0>         0.4435
     26 N3         -3.8596  -11.0131   -2.2532 N.2       1 <0>        -0.2437
     27 C21        -3.2176  -11.8791   -1.5224 C.2       1 <0>         0.0824
     28 C22         0.6687   -4.1144   -1.5427 C.3       1 <0>        -0.1931
     29 C23         0.3567   -2.6291   -1.5959 C.2       1 <0>         0.4025
     30 O3          0.2973   -2.0268   -2.6471 O.2       1 <0>        -0.4431
     31 H2          0.8065    1.9290    1.2819 H         1 <0>         0.0716
     32 H3         -0.5729    1.9516    0.1571 H         1 <0>         0.0678
     33 H4         -0.8559    1.8295    1.9102 H         1 <0>         0.0711
     34 H5          0.2121    0.0357   -1.1101 H         1 <0>         0.1357
     35 H6         -0.3997   -2.7013    2.9618 H         1 <0>         0.1381
     36 H7         -1.6147    0.0738    3.6174 H         1 <0>         0.0798
     37 H8         -0.1376   -0.6810    4.2631 H         1 <0>         0.0732
     38 H9         -0.0507    0.9112    3.4721 H         1 <0>         0.0763
     39 H10        -1.9019   -3.4547   -0.9617 H         1 <0>         0.0832
     40 H11        -1.8967   -5.0223   -1.8063 H         1 <0>         0.0889
     41 H12        -2.4756   -4.5495    1.1546 H         1 <0>         0.0770
     42 H13        -3.6453   -5.0542   -0.0922 H         1 <0>         0.0986
     43 H14        -0.5539   -6.4142    1.7101 H         1 <0>         0.0852
     44 H15        -0.6950   -7.9151    0.7591 H         1 <0>         0.1007
     45 H16        -0.1525   -6.7113   -1.3025 H         1 <0>         0.0927
     46 H17         1.1069   -6.3704   -0.0909 H         1 <0>         0.0957
     47 H18        -1.7445   -8.6094    2.3733 H         1 <0>         0.1370
     48 H19        -1.0637  -10.9573    2.5994 H         1 <0>         0.1374
     49 H20        -1.6643  -12.6014    0.8832 H         1 <0>         0.1367
     50 H21        -3.0952  -12.9299   -1.7396 H         1 <0>         0.2029
     51 H22         1.7155   -4.2648   -1.2786 H         1 <0>         0.1167
     52 H23         0.4590   -4.5729   -2.5091 H         1 <0>         0.1112
@<TRIPOS>BOND
     1    1    2 1
     2    1   31 1
     3    1   32 1
     4    1   33 1
     5    2    7 ar
     6    2    3 ar
     7    3    4 ar
     8    3   34 1
     9    4   29 1
    10    4    5 ar
    11    5    6 ar
    12    5    9 1
    13    6    7 ar
    14    6   35 1
    15    7    8 1
    16    8   36 1
    17    8   37 1
    18    8   38 1
    19    9   10 1
    20   10   15 1
    21   10   11 1
    22   10   28 1
    23   11   12 1
    24   11   39 1
    25   11   40 1
    26   12   13 1
    27   12   41 1
    28   12   42 1
    29   13   14 1
    30   13   16 am
    31   14   15 1
    32   14   43 1
    33   14   44 1
    34   15   45 1
    35   15   46 1
    36   16   17 2
    37   16   18 1
    38   18   23 ar
    39   18   19 ar
    40   19   20 ar
    41   19   47 1
    42   20   21 ar
    43   20   48 1
    44   21   22 ar
    45   21   49 1
    46   22   27 1
    47   22   23 ar
    48   23   24 1
    49   24   25 1
    50   24   26 1
    51   26   27 2
    52   27   50 1
    53   28   29 1
    54   28   51 1
    55   28   52 1
    56   29   30 2
@<TRIPOS>MOLECULE
ZINC49067414
   49    53     0     0     0
SMALL
USER_CHARGES

@<TRIPOS>ATOM
      1 C1          0.1592    1.5559   -1.0783 C.3       1 <0>        -0.1127
      2 C2          0.1464    0.0511   -0.9975 C.ar      1 <0>        -0.1290
      3 C3          0.3386   -0.7043   -2.1439 C.ar      1 <0>        -0.0501
      4 C4          0.3282   -2.0834   -2.0894 C.ar      1 <0>        -0.1566
      5 C5          0.1251   -2.7305   -0.8779 C.ar      1 <0>         0.1756
      6 C6         -0.0655   -1.9648    0.2834 C.ar      1 <0>        -0.2468
      7 C7         -0.0507   -0.5703    0.2169 C.ar      1 <0>        -0.0274
      8 C8         -0.2710   -2.6551    1.5690 C.2       1 <0>         0.4019
      9 O1         -0.2247   -2.0624    2.6263 O.2       1 <0>        -0.4416
     10 C9         -0.5442   -4.1473    1.5007 C.3       1 <0>        -0.1934
     11 C10         0.3765   -4.7272    0.4171 C.3       1 <0>         0.1313
     12 O2          0.1095   -4.0829   -0.8274 O.3       1 <0>        -0.2967
     13 C11         1.8344   -4.4919    0.8169 C.3       1 <0>        -0.1626
     14 C12         2.7565   -5.0519   -0.2706 C.3       1 <0>         0.1187
     15 N1          2.4131   -6.4617   -0.5016 N.am      1 <0>        -0.6038
     16 C13         1.0184   -6.8076   -0.8081 C.3       1 <0>         0.0993
     17 C14         0.1156   -6.2289    0.2859 C.3       1 <0>        -0.1193
     18 C15         3.3593   -7.4191   -0.4342 C.2       1 <0>         0.5651
     19 O3          4.5224   -7.1129   -0.2549 O.2       1 <0>        -0.5335
     20 C16         2.9840   -8.8382   -0.5777 C.ar      1 <0>        -0.1578
     21 C17         2.2642   -9.2636   -1.6906 C.ar      1 <0>        -0.0346
     22 C18         1.9090  -10.5947   -1.8310 C.ar      1 <0>        -0.1667
     23 C19         2.2604  -11.5207   -0.8743 C.ar      1 <0>        -0.0109
     24 C20         2.9841  -11.1206    0.2537 C.ar      1 <0>        -0.1855
     25 C21         3.3559   -9.7717    0.4057 C.ar      1 <0>         0.1713
     26 N2          4.0477   -9.6819    1.5793 N.pl3     1 <0>        -0.5006
     27 H1          4.4261   -8.8684    1.9479 H         1 <0>         0.4435
     28 N3          4.1232  -10.9493    2.1660 N.2       1 <0>        -0.2437
     29 C22         3.5031  -11.8222    1.4246 C.2       1 <0>         0.0825
     30 H2          1.1766    1.9189   -0.9330 H         1 <0>         0.0718
     31 H3         -0.2025    1.8703   -2.0573 H         1 <0>         0.0692
     32 H4         -0.4874    1.9668   -0.3029 H         1 <0>         0.0679
     33 H5          0.4978   -0.2082   -3.0900 H         1 <0>         0.1355
     34 H6          0.4780   -2.6599   -2.9903 H         1 <0>         0.1388
     35 H7         -0.1967    0.0178    1.1109 H         1 <0>         0.1355
     36 H8         -0.3229   -4.6098    2.4626 H         1 <0>         0.1116
     37 H9         -1.5867   -4.3221    1.2347 H         1 <0>         0.1170
     38 H10         2.0125   -3.4224    0.9294 H         1 <0>         0.0830
     39 H11         2.0383   -4.9961    1.7616 H         1 <0>         0.0891
     40 H12         2.6197   -4.4866   -1.1925 H         1 <0>         0.0771
     41 H13         3.7939   -4.9772    0.0558 H         1 <0>         0.0987
     42 H14         0.7404   -6.3841   -1.7732 H         1 <0>         0.0853
     43 H15         0.9086   -7.8917   -0.8370 H         1 <0>         0.1008
     44 H16         0.3331   -6.7201    1.2344 H         1 <0>         0.0928
     45 H17        -0.9286   -6.3949    0.0212 H         1 <0>         0.0957
     46 H18         1.9804   -8.5502   -2.4501 H         1 <0>         0.1370
     47 H19         1.3502  -10.9098   -2.6998 H         1 <0>         0.1374
     48 H20         1.9769  -12.5558   -0.9949 H         1 <0>         0.1367
     49 H21         3.4017  -12.8772    1.6321 H         1 <0>         0.2029
@<TRIPOS>BOND
     1    1    2 1
     2    1   30 1
     3    1   31 1
     4    1   32 1
     5    2    7 ar
     6    2    3 ar
     7    3    4 ar
     8    3   33 1
     9    4    5 ar
    10    4   34 1
    11    5   12 1
    12    5    6 ar
    13    6    7 ar
    14    6    8 1
    15    7   35 1
    16    8    9 2
    17    8   10 1
    18   10   11 1
    19   10   36 1
    20   10   37 1
    21   11   17 1
    22   11   12 1
    23   11   13 1
    24   13   14 1
    25   13   38 1
    26   13   39 1
    27   14   15 1
    28   14   40 1
    29   14   41 1
    30   15   16 1
    31   15   18 am
    32   16   17 1
    33   16   42 1
    34   16   43 1
    35   17   44 1
    36   17   45 1
    37   18   19 2
    38   18   20 1
    39   20   25 ar
    40   20   21 ar
    41   21   22 ar
    42   21   46 1
    43   22   23 ar
    44   22   47 1
    45   23   24 ar
    46   23   48 1
    47   24   29 1
    48   24   25 ar
    49   25   26 1
    50   26   27 1
    51   26   28 1
    52   28   29 2
    53   29   49 1
