@<TRIPOS>MOLECULE
ZINC02382960
   24    25     0     0     0
SMALL
USER_CHARGES
2-phenylpyridin-4-amine
@<TRIPOS>ATOM
      1 C1          1.1860    6.3303    0.0248 C.ar      1 <0>        -0.0720
      2 C2          2.3861    5.6425    0.0096 C.ar      1 <0>        -0.1103
      3 C3          2.3934    4.2624    0.0021 C.ar      1 <0>        -0.0918
      4 C4          1.1888    3.5618    0.0098 C.ar      1 <0>        -0.1194
      5 C5         -0.0172    4.2599    0.0193 C.ar      1 <0>        -0.0686
      6 C6         -0.0126    5.6400    0.0326 C.ar      1 <0>        -0.1127
      7 C7          1.1903    2.0782    0.0019 C.ar      1 <0>         0.2678
      8 C8         -0.0168    1.3882    0.0097 C.ar      1 <0>        -0.2128
      9 C9          0.0021   -0.0041    0.0020 C.ar      1 <0>         0.3349
     10 C10         1.2392   -0.6503   -0.0133 C.ar      1 <0>        -0.2131
     11 C11         2.3942    0.1040   -0.0202 C.ar      1 <0>         0.1808
     12 N1         -1.1835   -0.7335    0.0099 N.pl3     1 <0>        -0.8076
     13 H1          1.1849    7.4103    0.0310 H         1 <0>         0.1412
     14 H2          3.3190    6.1865    0.0033 H         1 <0>         0.1417
     15 H3          3.3309    3.7264   -0.0094 H         1 <0>         0.1235
     16 H4         -0.9537    3.7219    0.0209 H         1 <0>         0.1380
     17 H5         -0.9467    6.1820    0.0444 H         1 <0>         0.1428
     18 H6         -0.9546    1.9239    0.0170 H         1 <0>         0.1790
     19 H7          1.2916   -1.7290   -0.0199 H         1 <0>         0.1820
     20 H8          3.3534   -0.3920   -0.0317 H         1 <0>         0.1963
     21 H9         -2.0367   -0.2722    0.0208 H         1 <0>         0.4234
     22 H10        -1.1564   -1.7031    0.0044 H         1 <0>         0.4245
     23 N2          2.4130    1.4634   -0.0131 N.ar      1 <0>        -0.5338
     24 H11         3.2907    1.9961   -0.0187 H         1 <0>         0.4666
@<TRIPOS>BOND
     1    1    6 ar
     2    1    2 ar
     3    1   13 1
     4    2    3 ar
     5    2   14 1
     6    3    4 ar
     7    3   15 1
     8    4    5 ar
     9    4    7 1
    10    5    6 ar
    11    5   16 1
    12    6   17 1
    13    7    8 ar
    14    7   23 ar
    15    8    9 ar
    16    8   18 1
    17    9   10 ar
    18    9   12 1
    19   10   11 ar
    20   10   19 1
    21   11   20 1
    22   11   23 ar
    23   12   21 1
    24   12   22 1
    25   23   24 1
@<TRIPOS>MOLECULE
ZINC04340269
   23    23     0     0     0
SMALL
USER_CHARGES

@<TRIPOS>ATOM
      1 C1          0.0541    1.3093    0.0511 C.ar      1 <0>        -0.0998
      2 C2          1.2379    2.0581   -0.0359 C.ar      1 <0>         0.4638
      3 N1          2.4129    1.4496    0.0702 N.ar      1 <0>        -0.5674
      4 C3          2.4640    0.1373    0.2579 C.ar      1 <0>         0.4601
      5 C4          1.2815   -0.6064    0.3442 C.ar      1 <0>        -0.0071
      6 N2          0.1144   -0.0080    0.2397 N.ar      1 <0>        -0.2998
      7 Cl1         1.3549   -2.3233    0.5899 Cl        1 <0>        -0.0262
      8 N3          3.6896   -0.4980    0.3683 N.pl3     1 <0>        -0.8179
      9 N4          1.1804    3.4267   -0.2323 N.pl3     1 <0>        -0.8085
     10 C5         -1.2563    1.9814   -0.0602 C.2       1 <0>         0.5976
     11 O1         -1.3142    3.1971   -0.1232 O.2       1 <0>        -0.5581
     12 N5         -2.3824    1.2540   -0.0918 N.2       1 <0>        -0.6703
     13 C6         -3.3650    1.5181    0.7551 C.2       1 <0>         0.7012
     14 N6         -3.1890    2.4512    1.7344 N.pl3     1 <0>        -0.8655
     15 N7         -4.5534    0.8571    0.6484 N.pl3     1 <0>        -0.8245
     16 H1          4.5097    0.0166    0.3083 H         1 <0>         0.4132
     17 H2          3.7280   -1.4575    0.5055 H         1 <0>         0.4179
     18 H3          0.3235    3.8812   -0.2317 H         1 <0>         0.4284
     19 H4          1.9971    3.9316   -0.3704 H         1 <0>         0.4028
     20 H5         -5.2734    1.0506    1.2690 H         1 <0>         0.4111
     21 H6         -2.3709    2.9712    1.7674 H         1 <0>         0.4205
     22 H7         -4.6786    0.1935   -0.0480 H         1 <0>         0.4267
     23 H8         -3.8820    2.5947    2.3977 H         1 <0>         0.4016
@<TRIPOS>BOND
     1    1    6 ar
     2    1    2 ar
     3    1   10 1
     4    2    3 ar
     5    2    9 1
     6    3    4 ar
     7    4    5 ar
     8    4    8 1
     9    5    6 ar
    10    5    7 1
    11    8   16 1
    12    8   17 1
    13    9   18 1
    14    9   19 1
    15   10   12 1
    16   10   11 2
    17   12   13 2
    18   13   14 1
    19   13   15 1
    20   14   21 1
    21   14   23 1
    22   15   22 1
    23   15   20 1
