@<TRIPOS>MOLECULE
ZINC03872335
   31    31     0     0     0
SMALL
USER_CHARGES

@<TRIPOS>ATOM
      1 C1         -0.0167    1.3781    0.0096 C.ar      1 <0>        -0.1272
      2 C2          1.1709    2.0855    0.0021 C.ar      1 <0>        -0.1174
      3 C3          2.3773    1.4107   -0.0130 C.ar      1 <0>        -0.1135
      4 C4          2.3960    0.0285   -0.0201 C.ar      1 <0>        -0.0768
      5 C5          1.2084   -0.6789   -0.0117 C.ar      1 <0>        -0.1195
      6 C6          0.0021   -0.0041    0.0020 C.ar      1 <0>        -0.1201
      7 C7          3.7112   -0.7071   -0.0376 C.3       1 <0>        -0.0562
      8 C8          4.1714   -0.9633    1.3989 C.3       1 <0>        -0.0855
      9 H1          4.2087   -0.0191    1.9423 H         1 <0>         0.1072
     10 C9          3.1871   -1.9101    2.0886 C.3       1 <0>        -0.0744
     11 S1          3.6492   -2.0971    3.8327 S.3       1 <0>        -0.2155
     12 C10         5.5425   -1.5884    1.3832 C.2       1 <0>         0.5003
     13 O1          6.0971   -1.8074    0.3271 O.2       1 <0>        -0.5619
     14 N1          6.1525   -1.9040    2.5428 N.am      1 <0>        -0.6810
     15 C11         7.4855   -2.5117    2.5276 C.3       1 <0>         0.0474
     16 C12         7.9387   -2.7640    3.9425 C.2       1 <0>         0.4891
     17 O2          7.2154   -2.4640    4.8770 O.co2     1 <0>        -0.6823
     18 O3          9.0288   -3.2681    4.1527 O.co2     1 <0>        -0.6937
     19 H2         -0.9591    1.9053    0.0259 H         1 <0>         0.1184
     20 H3          1.1563    3.1654    0.0076 H         1 <0>         0.1207
     21 H4          3.3051    1.9634   -0.0196 H         1 <0>         0.1243
     22 H5          1.2231   -1.7588   -0.0176 H         1 <0>         0.1209
     23 H6         -0.9258   -0.5567    0.0082 H         1 <0>         0.1191
     24 H7          3.5884   -1.6586   -0.5549 H         1 <0>         0.0825
     25 H8          4.4573   -0.1052   -0.5563 H         1 <0>         0.0906
     26 H9          2.1799   -1.4989    2.0217 H         1 <0>         0.0963
     27 H10         3.2154   -2.8834    1.5988 H         1 <0>         0.0871
     28 H11         2.7241   -2.9397    4.3259 H         1 <0>         0.0791
     29 H12         5.7090   -1.7288    3.3875 H         1 <0>         0.4138
     30 H13         7.4482   -3.4558    1.9842 H         1 <0>         0.0641
     31 H14         8.1867   -1.8372    2.0363 H         1 <0>         0.0640
@<TRIPOS>BOND
     1    1    6 ar
     2    1    2 ar
     3    1   19 1
     4    2    3 ar
     5    2   20 1
     6    3    4 ar
     7    3   21 1
     8    4    5 ar
     9    4    7 1
    10    5    6 ar
    11    5   22 1
    12    6   23 1
    13    7    8 1
    14    7   24 1
    15    7   25 1
    16    8    9 1
    17    8   10 1
    18    8   12 1
    19   10   11 1
    20   10   26 1
    21   10   27 1
    22   11   28 1
    23   12   13 2
    24   12   14 am
    25   14   15 1
    26   14   29 1
    27   15   16 1
    28   15   30 1
    29   15   31 1
    30   16   17 2
    31   16   18 1
@<TRIPOS>MOLECULE
ZINC03872336
   31    31     0     0     0
SMALL
USER_CHARGES

@<TRIPOS>ATOM
      1 C1          2.6440   -5.2211    3.5972 C.ar      1 <0>        -0.1212
      2 C2          1.8857   -4.0804    3.7836 C.ar      1 <0>        -0.1206
      3 C3          2.0088   -3.0179    2.9080 C.ar      1 <0>        -0.1134
      4 C4          2.8905   -3.0957    1.8463 C.ar      1 <0>        -0.0882
      5 C5          3.6495   -4.2360    1.6604 C.ar      1 <0>        -0.1056
      6 C6          3.5254   -5.2991    2.5352 C.ar      1 <0>        -0.1162
      7 C7          3.0240   -1.9378    0.8911 C.3       1 <0>        -0.0676
      8 C8          4.0524   -0.9440    1.4350 C.3       1 <0>        -0.0844
      9 H1          3.7721   -0.6478    2.4458 H         1 <0>         0.0995
     10 C9          4.0930    0.2921    0.5342 C.3       1 <0>        -0.0511
     11 S1          2.5044    1.1626    0.6300 S.3       1 <0>        -0.2429
     12 C10         5.4126   -1.5921    1.4603 C.2       1 <0>         0.5147
     13 O1          5.9284   -1.9600    0.4261 O.2       1 <0>        -0.5596
     14 N1          6.0560   -1.7629    2.6322 N.am      1 <0>        -0.6892
     15 C11         7.3784   -2.3929    2.6568 C.3       1 <0>         0.0513
     16 C12         7.8746   -2.4640    4.0780 C.2       1 <0>         0.4902
     17 O2          7.1873   -2.0288    4.9861 O.co2     1 <0>        -0.6900
     18 O3          8.9633   -2.9568    4.3197 O.co2     1 <0>        -0.6896
     19 H2          2.5511   -6.0495    4.2839 H         1 <0>         0.1182
     20 H3          1.1968   -4.0196    4.6131 H         1 <0>         0.1193
     21 H4          1.4157   -2.1270    3.0532 H         1 <0>         0.1221
     22 H5          4.3382   -4.2970    0.8306 H         1 <0>         0.1208
     23 H6          4.1182   -6.1902    2.3897 H         1 <0>         0.1190
     24 H7          3.3524   -2.3048   -0.0813 H         1 <0>         0.0829
     25 H8          2.0595   -1.4411    0.7852 H         1 <0>         0.0933
     26 H9          4.8918    0.9562    0.8645 H         1 <0>         0.0885
     27 H10         4.2778   -0.0145   -0.4953 H         1 <0>         0.0961
     28 H11         2.6604    2.2156   -0.1921 H         1 <0>         0.0859
     29 H12         5.6435   -1.4686    3.4593 H         1 <0>         0.4084
     30 H13         7.3088   -3.3999    2.2454 H         1 <0>         0.0650
     31 H14         8.0730   -1.8032    2.0585 H         1 <0>         0.0645
@<TRIPOS>BOND
     1    1    6 ar
     2    1    2 ar
     3    1   19 1
     4    2    3 ar
     5    2   20 1
     6    3    4 ar
     7    3   21 1
     8    4    5 ar
     9    4    7 1
    10    5    6 ar
    11    5   22 1
    12    6   23 1
    13    7    8 1
    14    7   24 1
    15    7   25 1
    16    8    9 1
    17    8   10 1
    18    8   12 1
    19   10   11 1
    20   10   26 1
    21   10   27 1
    22   11   28 1
    23   12   13 2
    24   12   14 am
    25   14   15 1
    26   14   29 1
    27   15   16 1
    28   15   30 1
    29   15   31 1
    30   16   17 2
    31   16   18 1
@<TRIPOS>MOLECULE
ZINC26022692
   22    22     0     0     0
SMALL
USER_CHARGES
2-[(3R)-2-oxo-3-(sulfanylmethyl)pyrrolidin-1-yl]acetic acid
@<TRIPOS>ATOM
      1 C1         -0.7981    1.6165   -1.2118 C.3       1 <0>        -0.1158
      2 C2         -0.0127    1.0858    0.0080 C.3       1 <0>         0.1079
      3 N1         -0.7366    1.5774    1.1863 N.am      1 <0>        -0.5905
      4 C3         -1.9810    1.9753    0.8616 C.2       1 <0>         0.5227
      5 O1         -2.7947    2.4175    1.6447 O.2       1 <0>        -0.5143
      6 C4         -2.2165    1.7919   -0.6215 C.3       1 <0>        -0.1066
      7 H1         -2.7684    2.6389   -1.0551 H         1 <0>         0.1183
      8 C5         -3.0619    0.5430   -0.8790 C.3       1 <0>        -0.0438
      9 S1         -4.7592    0.8335   -0.3084 S.3       1 <0>        -0.1540
     10 C6         -0.1762    1.6284    2.5389 C.3       1 <0>         0.0821
     11 C7          0.5002    2.9580    2.7527 C.2       1 <0>         0.4496
     12 O2          0.5128    3.7788    1.8662 O.co2     1 <0>        -0.6276
     13 O3          1.0885    3.2304    3.9280 O.co2     1 <0>        -0.7706
     14 H2         -0.8345    0.9021   -2.0474 H         1 <0>         0.0867
     15 H3         -0.4295    2.5871   -1.5751 H         1 <0>         0.0926
     16 H4          0.0089   -0.0136   -0.0199 H         1 <0>         0.0633
     17 H5          1.0163    1.4736   -0.0214 H         1 <0>         0.0811
     18 H6         -3.0701    0.3216   -1.9564 H         1 <0>         0.0906
     19 H7         -2.6323   -0.3097   -0.3327 H         1 <0>         0.0818
     20 H8         -5.5170    0.0428   -0.4114 H         1 <0>        -0.0223
     21 H9         -0.9840    1.5054    3.2753 H         1 <0>         0.0879
     22 H10         0.5586    0.8192    2.6621 H         1 <0>         0.0809
@<TRIPOS>BOND
     1    1    6 1
     2    1    2 1
     3    1   14 1
     4    1   15 1
     5    2    3 1
     6    2   16 1
     7    2   17 1
     8    3    4 am
     9    3   10 1
    10    4    5 2
    11    4    6 1
    12    6    7 1
    13    6    8 1
    14    8    9 1
    15    8   18 1
    16    8   19 1
    17    9   20 1
    18   10   11 1
    19   10   21 1
    20   10   22 1
    21   11   12 2
    22   11   13 1
@<TRIPOS>MOLECULE
ZINC26022698
   22    22     0     0     0
SMALL
USER_CHARGES
2-[(3S)-2-oxo-3-(sulfanylmethyl)pyrrolidin-1-yl]acetic acid
@<TRIPOS>ATOM
      1 C1         -0.0127    1.0858    0.0080 C.3       1 <0>        -0.1182
      2 C2         -0.8338    1.6341   -1.1801 C.3       1 <0>         0.1063
      3 N1         -1.5208    2.8244   -0.6651 N.am      1 <0>        -0.5896
      4 C3         -1.5287    2.8404    0.6789 C.2       1 <0>         0.5213
      5 O1         -2.0362    3.7059    1.3603 O.2       1 <0>        -0.5146
      6 C4         -0.8117    1.6218    1.2186 C.3       1 <0>        -0.1051
      7 H1         -0.1798    1.8691    2.0843 H         1 <0>         0.1160
      8 C5         -1.8202    0.5766    1.6996 C.3       1 <0>        -0.0473
      9 S1         -2.6365    1.1725    3.2060 S.3       1 <0>        -0.1554
     10 C6         -2.1205    3.8620   -1.5077 C.3       1 <0>         0.0824
     11 C7         -3.5565    3.5073   -1.7958 C.2       1 <0>         0.4499
     12 O2         -4.0304    2.4919   -1.3438 O.co2     1 <0>        -0.6288
     13 O3         -4.3092    4.3194   -2.5547 O.co2     1 <0>        -0.7710
     14 H2          1.0138    1.4796    0.0428 H         1 <0>         0.0877
     15 H3          0.0148   -0.0133    0.0444 H         1 <0>         0.0886
     16 H4         -0.1558    1.8881   -2.0082 H         1 <0>         0.0757
     17 H5         -1.5505    0.8695   -1.5144 H         1 <0>         0.0723
     18 H6         -2.5740    0.4069    0.9167 H         1 <0>         0.0914
     19 H7         -1.2965   -0.3665    1.9149 H         1 <0>         0.0887
     20 H8         -3.3985    0.5523    3.7007 H         1 <0>        -0.0198
     21 H9         -2.0795    4.8285   -0.9841 H         1 <0>         0.0881
     22 H10        -1.5636    3.9335   -2.4536 H         1 <0>         0.0813
@<TRIPOS>BOND
     1    1    6 1
     2    1    2 1
     3    1   14 1
     4    1   15 1
     5    2    3 1
     6    2   16 1
     7    2   17 1
     8    3    4 am
     9    3   10 1
    10    4    5 2
    11    4    6 1
    12    6    7 1
    13    6    8 1
    14    8    9 1
    15    8   18 1
    16    8   19 1
    17    9   20 1
    18   10   11 1
    19   10   21 1
    20   10   22 1
    21   11   12 2
    22   11   13 1
@<TRIPOS>MOLECULE
ZINC05134411
   25    25     0     0     0
SMALL
USER_CHARGES
2-[2-oxo-3-(sulfanylmethyl)-1-piperidyl]acetic acid
@<TRIPOS>ATOM
      1 C1         -2.7013    1.5636   -2.6288 C.3       1 <0>        -0.1332
      2 C2         -1.8404    2.3386   -3.6336 C.3       1 <0>        -0.1102
      3 C3         -1.0288    3.3867   -2.8682 C.3       1 <0>        -0.0866
      4 H1         -1.6938    4.1783   -2.5230 H         1 <0>         0.1115
      5 C4         -0.3565    2.7492   -1.6863 C.2       1 <0>         0.5094
      6 O1          0.5673    3.3373   -1.1652 O.2       1 <0>        -0.5208
      7 N1         -0.7213    1.5711   -1.1789 N.am      1 <0>        -0.5775
      8 C5         -1.7767    0.7334   -1.7344 C.3       1 <0>         0.1181
      9 C6         -0.0127    1.0858    0.0080 C.3       1 <0>         0.0657
     10 C7         -0.7181    1.5718    1.2479 C.2       1 <0>         0.4539
     11 O2         -1.7108    2.2536    1.1502 O.co2     1 <0>        -0.6308
     12 C8          0.0319    3.9825   -3.7960 C.3       1 <0>        -0.0551
     13 S1          0.8900    5.3345   -2.9438 S.3       1 <0>        -0.1858
     14 H2         -3.2728    2.2642   -2.0200 H         1 <0>         0.0783
     15 H3         -3.3837    0.9035   -3.1644 H         1 <0>         0.0809
     16 H4         -2.4826    2.8325   -4.3629 H         1 <0>         0.0743
     17 H5         -1.1648    1.6526   -4.1447 H         1 <0>         0.0698
     18 H6         -1.3288   -0.0695   -2.3200 H         1 <0>         0.0564
     19 H7         -2.3587    0.3003   -0.9209 H         1 <0>         0.0750
     20 H8          0.0021   -0.0041    0.0020 H         1 <0>         0.0759
     21 H9          1.0099    1.4631    0.0003 H         1 <0>         0.0920
     22 H10         0.7513    3.2103   -4.0686 H         1 <0>         0.0806
     23 H11        -0.4473    4.3667   -4.6964 H         1 <0>         0.0868
     24 H12         1.7853    5.7722   -3.8470 H         1 <0>         0.0440
     25 O3         -0.2435    1.2473    2.4608 O.co2     1 <0>        -0.7726
@<TRIPOS>BOND
     1    1    8 1
     2    1    2 1
     3    1   14 1
     4    1   15 1
     5    2    3 1
     6    2   16 1
     7    2   17 1
     8    3    4 1
     9    3    5 1
    10    3   12 1
    11    5    6 2
    12    5    7 am
    13    7    8 1
    14    7    9 1
    15    8   18 1
    16    8   19 1
    17    9   10 1
    18    9   20 1
    19    9   21 1
    20   10   11 2
    21   10   25 1
    22   12   13 1
    23   12   22 1
    24   12   23 1
    25   13   24 1
@<TRIPOS>MOLECULE
ZINC05134600
   25    25     0     0     0
SMALL
USER_CHARGES
2-[2-oxo-3-(sulfanylmethyl)-1-piperidyl]acetic acid
@<TRIPOS>ATOM
      1 C1          0.1256    5.5364    1.1566 C.3       1 <0>        -0.1336
      2 C2          0.7786    6.3426    0.0274 C.3       1 <0>        -0.1100
      3 C3          0.5157    5.6210   -1.2968 C.3       1 <0>        -0.0865
      4 H1         -0.5366    5.7228   -1.5619 H         1 <0>         0.1117
      5 C4          0.8629    4.1660   -1.1619 C.2       1 <0>         0.5090
      6 O1          1.0306    3.5194   -2.1742 O.2       1 <0>        -0.5204
      7 N1          0.9914    3.5458    0.0116 N.am      1 <0>        -0.5774
      8 C5          0.8698    4.2087    1.3040 C.3       1 <0>         0.1181
      9 C6          1.2786    2.1093    0.0012 C.3       1 <0>         0.0657
     10 C7         -0.0161    1.3381    0.0094 C.2       1 <0>         0.4538
     11 O2         -1.0706    1.9279    0.0176 O.co2     1 <0>        -0.6308
     12 C8          1.3792    6.2443   -2.3953 C.3       1 <0>        -0.0555
     13 S1          0.9624    5.4914   -3.9922 S.3       1 <0>        -0.1848
     14 H2         -0.9193    5.3449    0.9122 H         1 <0>         0.0782
     15 H3          0.1886    6.0965    2.0895 H         1 <0>         0.0810
     16 H4          0.3460    7.3424   -0.0074 H         1 <0>         0.0745
     17 H5          1.8526    6.4127    0.2002 H         1 <0>         0.0698
     18 H6          0.3218    3.5628    1.9901 H         1 <0>         0.0756
     19 H7          1.8648    4.3995    1.7061 H         1 <0>         0.0559
     20 H8          1.8621    1.8490    0.8842 H         1 <0>         0.0757
     21 H9          1.8451    1.8585   -0.8956 H         1 <0>         0.0923
     22 H10         1.1921    7.3172   -2.4397 H         1 <0>         0.0866
     23 H11         2.4318    6.0679   -2.1741 H         1 <0>         0.0805
     24 H12         1.7748    6.1118   -4.8664 H         1 <0>         0.0432
     25 O3          0.0021   -0.0041    0.0020 O.co2     1 <0>        -0.7726
@<TRIPOS>BOND
     1    1    8 1
     2    1    2 1
     3    1   14 1
     4    1   15 1
     5    2    3 1
     6    2   16 1
     7    2   17 1
     8    3    4 1
     9    3    5 1
    10    3   12 1
    11    5    6 2
    12    5    7 am
    13    7    8 1
    14    7    9 1
    15    8   18 1
    16    8   19 1
    17    9   10 1
    18    9   20 1
    19    9   21 1
    20   10   11 2
    21   10   25 1
    22   12   13 1
    23   12   22 1
    24   12   23 1
    25   13   24 1
@<TRIPOS>MOLECULE
ZINC00057001
   28    28     0     0     0
SMALL
USER_CHARGES

@<TRIPOS>ATOM
      1 C1         -0.0187    1.5258    0.0104 C.3       1 <0>        -0.1499
      2 C2          0.0021   -0.0041    0.0020 C.3       1 <0>        -0.0861
      3 H1         -1.0205   -0.3814    0.0098 H         1 <0>         0.0991
      4 C3          0.7421   -0.5109    1.2415 C.3       1 <0>        -0.0413
      5 S1         -0.1871   -0.0517    2.7303 S.3       1 <0>        -0.2560
      6 C4          0.7074   -0.4901   -1.2379 C.2       1 <0>         0.5406
      7 O1          1.7039   -1.1744   -1.1398 O.2       1 <0>        -0.5341
      8 N1          0.2309   -0.1642   -2.4557 N.am      1 <0>        -0.5870
      9 C5         -0.9612    0.6622   -2.7190 C.3       1 <0>         0.1001
     10 C6         -1.4323    0.2395   -4.1329 C.3       1 <0>        -0.1344
     11 C7         -0.0792    0.0101   -4.8565 C.3       1 <0>        -0.1069
     12 C8          0.8176   -0.5687   -3.7417 C.3       1 <0>         0.0652
     13 H2          0.8397   -1.6561   -3.8134 H         1 <0>         0.0661
     14 C9          2.2140   -0.0156   -3.8646 C.2       1 <0>         0.4962
     15 O2          2.9386   -0.3858   -4.7726 O.co2     1 <0>        -0.7023
     16 O3          2.6192    0.8020   -3.0561 O.co2     1 <0>        -0.6788
     17 H3          1.0039    1.9031    0.0027 H         1 <0>         0.0664
     18 H4         -0.5459    1.8868   -0.8726 H         1 <0>         0.0680
     19 H5         -0.5289    1.8773    0.9072 H         1 <0>         0.0715
     20 H6          0.8346   -1.5958    1.1912 H         1 <0>         0.0908
     21 H7          1.7350   -0.0630    1.2804 H         1 <0>         0.0927
     22 H8          0.5521   -0.5447    3.7401 H         1 <0>         0.0864
     23 H9         -1.7373    0.4540   -1.9825 H         1 <0>         0.0699
     24 H10        -0.6995    1.7202   -2.7069 H         1 <0>         0.0682
     25 H11        -2.0144   -0.6812   -4.0917 H         1 <0>         0.0709
     26 H12        -2.0003    1.0379   -4.6104 H         1 <0>         0.0779
     27 H13        -0.1941   -0.7041   -5.6719 H         1 <0>         0.0749
     28 H14         0.3271    0.9530   -5.2227 H         1 <0>         0.0719
@<TRIPOS>BOND
     1    1    2 1
     2    1   17 1
     3    1   18 1
     4    1   19 1
     5    2    3 1
     6    2    4 1
     7    2    6 1
     8    4    5 1
     9    4   20 1
    10    4   21 1
    11    5   22 1
    12    6    7 2
    13    6    8 am
    14    8   12 1
    15    8    9 1
    16    9   10 1
    17    9   23 1
    18    9   24 1
    19   10   11 1
    20   10   25 1
    21   10   26 1
    22   11   12 1
    23   11   27 1
    24   11   28 1
    25   12   13 1
    26   12   14 1
    27   14   15 2
    28   14   16 1
@<TRIPOS>MOLECULE
ZINC13285181
   50    51     0     0     0
SMALL
USER_CHARGES
(2S)-2-[[(1S)-1-[[3-[(3,5-dichlorophenyl)methyl]imidazol-4-yl]methyl]-2-hydroxy-2-oxo-ethyl]amino]-4-methyl-pentanoic acid
@<TRIPOS>ATOM
      1 C1         -2.2347   -1.6156   -3.5859 C.3       1 <0>        -0.1423
      2 C2         -3.5811   -1.1918   -2.9957 C.3       1 <0>        -0.1086
      3 C3         -4.6096   -2.3014   -3.2233 C.3       1 <0>        -0.1414
      4 C4         -3.4239   -0.9422   -1.4944 C.3       1 <0>        -0.1090
      5 C5         -2.4545    0.2199   -1.2694 C.3       1 <0>        -0.0214
      6 H1         -1.5212    0.0217   -1.7963 H         1 <0>         0.1310
      7 C6         -3.0666    1.4934   -1.7935 C.2       1 <0>         0.4641
      8 O1         -3.2586    2.4234   -1.0465 O.co2     1 <0>        -0.6048
      9 C7         -0.8836    1.0027    0.3986 C.3       1 <0>        -0.0204
     10 H2         -0.7462    1.8137   -0.3165 H         1 <0>         0.1388
     11 C8         -0.8368    1.5637    1.8213 C.3       1 <0>        -0.0516
     12 C9         -1.8547    2.6663    1.9602 C.2       1 <0>        -0.0289
     13 C10        -3.1610    2.5206    2.2533 C.2       1 <0>        -0.0214
     14 N1         -3.7178    3.7404    2.2847 N.2       1 <0>        -0.4777
     15 C11        -2.8062    4.6365    2.0221 C.2       1 <0>         0.1994
     16 N2         -1.6280    4.0087    1.8185 N.pl3     1 <0>        -0.4398
     17 C12        -0.3470    4.6454    1.5024 C.3       1 <0>         0.1472
     18 C13        -0.1463    4.6561    0.0089 C.ar      1 <0>        -0.0978
     19 C14         0.4957    3.5998   -0.6095 C.ar      1 <0>        -0.0921
     20 C15         0.6752    3.6064   -1.9814 C.ar      1 <0>        -0.0148
     21 C16         0.2217    4.6757   -2.7328 C.ar      1 <0>        -0.0909
     22 C17        -0.4157    5.7352   -2.1127 C.ar      1 <0>        -0.0192
     23 C18        -0.5993    5.7250   -0.7413 C.ar      1 <0>        -0.0851
     24 Cl1        -0.9857    7.0773   -3.0549 Cl        1 <0>        -0.0620
     25 Cl2         1.4752    2.2763   -2.7588 Cl        1 <0>        -0.0315
     26 C19         0.2153   -0.0135    0.2230 C.2       1 <0>         0.4625
     27 O2         -0.0225   -1.1902    0.3597 O.co2     1 <0>        -0.6175
     28 H3         -2.3565   -1.8380   -4.6460 H         1 <0>         0.0521
     29 H4         -1.5141   -0.8068   -3.4648 H         1 <0>         0.0554
     30 H5         -1.8741   -2.5040   -3.0674 H         1 <0>         0.0468
     31 H6         -3.9196   -0.2773   -3.4826 H         1 <0>         0.1265
     32 H7         -5.5689   -1.9995   -2.8028 H         1 <0>         0.0500
     33 H8         -4.7216   -2.4793   -4.2928 H         1 <0>         0.0540
     34 H9         -4.2712   -3.2160   -2.7364 H         1 <0>         0.0467
     35 H10        -3.0324   -1.8399   -1.0159 H         1 <0>         0.0714
     36 H11        -4.3942   -0.6946   -1.0637 H         1 <0>         0.0695
     37 H12        -1.0623    0.7694    2.5327 H         1 <0>         0.1020
     38 H13         0.1582    1.9604    2.0228 H         1 <0>         0.1072
     39 H14        -3.6709    1.5854    2.4319 H         1 <0>         0.1598
     40 H15        -2.9664    5.7037    1.9795 H         1 <0>         0.2021
     41 H16        -0.3481    5.6693    1.8763 H         1 <0>         0.1101
     42 H17         0.4621    4.0874    1.9737 H         1 <0>         0.1051
     43 H18         0.8533    2.7669   -0.0223 H         1 <0>         0.1583
     44 H19         0.3649    4.6830   -3.8032 H         1 <0>         0.1428
     45 H20        -1.0969    6.5522   -0.2571 H         1 <0>         0.1358
     46 O3         -3.3985    1.5944   -3.0902 O.co2     1 <0>        -0.7082
     47 N3         -2.1916    0.3583    0.1755 N.4       1 <0>        -0.4838
     48 H21        -2.1894   -0.5720    0.6099 H         1 <0>         0.4139
     49 H22        -2.9291    0.9327    0.6004 H         1 <0>         0.4152
     50 O4          1.4570    0.3882   -0.0908 O.co2     1 <0>        -0.6975
@<TRIPOS>BOND
     1    1    2 1
     2    1   28 1
     3    1   29 1
     4    1   30 1
     5    2    3 1
     6    2    4 1
     7    2   31 1
     8    3   32 1
     9    3   33 1
    10    3   34 1
    11    4    5 1
    12    4   35 1
    13    4   36 1
    14    5    6 1
    15    5    7 1
    16    5   47 1
    17    7    8 2
    18    7   46 1
    19    9   10 1
    20    9   11 1
    21    9   26 1
    22    9   47 1
    23   11   12 1
    24   11   37 1
    25   11   38 1
    26   12   16 1
    27   12   13 2
    28   13   14 1
    29   13   39 1
    30   14   15 2
    31   15   16 1
    32   15   40 1
    33   16   17 1
    34   17   18 1
    35   17   41 1
    36   17   42 1
    37   18   23 ar
    38   18   19 ar
    39   19   20 ar
    40   19   43 1
    41   20   21 ar
    42   20   25 1
    43   21   22 ar
    44   21   44 1
    45   22   23 ar
    46   22   24 1
    47   23   45 1
    48   26   27 2
    49   26   50 1
    50   47   48 1
    51   47   49 1
@<TRIPOS>MOLECULE
ZINC13285181
   51    52     0     0     0
SMALL
USER_CHARGES
(2S)-2-[[(1S)-1-[[3-[(3,5-dichlorophenyl)methyl]imidazol-4-yl]methyl]-2-hydroxy-2-oxo-ethyl]amino]-4-methyl-pentanoic acid
@<TRIPOS>ATOM
      1 C1         -2.2347   -1.6156   -3.5859 C.3       1 <0>        -0.1451
      2 C2         -3.5811   -1.1918   -2.9957 C.3       1 <0>        -0.1077
      3 C3         -4.6096   -2.3014   -3.2233 C.3       1 <0>        -0.1437
      4 C4         -3.4239   -0.9422   -1.4944 C.3       1 <0>        -0.1103
      5 C5         -2.4545    0.2199   -1.2694 C.3       1 <0>        -0.0237
      6 H1         -1.5212    0.0217   -1.7963 H         1 <0>         0.1389
      7 C6         -3.0666    1.4934   -1.7935 C.2       1 <0>         0.4715
      8 O1         -3.2586    2.4234   -1.0465 O.co2     1 <0>        -0.6368
      9 C7         -0.8836    1.0027    0.3986 C.3       1 <0>        -0.0278
     10 H2         -0.7462    1.8137   -0.3165 H         1 <0>         0.1439
     11 C8         -0.8368    1.5637    1.8213 C.3       1 <0>        -0.0690
     12 C9         -1.8547    2.6663    1.9602 C.2       1 <0>         0.0517
     13 C10        -3.1610    2.5206    2.2533 C.2       1 <0>        -0.0026
     14 C11        -2.8062    4.6365    2.0221 C.cat     1 <0>         0.3050
     15 N1         -1.6280    4.0087    1.8185 N.pl3     1 <0>        -0.3942
     16 C12        -0.3470    4.6454    1.5024 C.3       1 <0>         0.1412
     17 C13        -0.1463    4.6561    0.0089 C.ar      1 <0>        -0.1259
     18 C14         0.4957    3.5998   -0.6095 C.ar      1 <0>        -0.0889
     19 C15         0.6752    3.6064   -1.9814 C.ar      1 <0>        -0.0145
     20 C16         0.2217    4.6757   -2.7328 C.ar      1 <0>        -0.0755
     21 C17        -0.4157    5.7352   -2.1127 C.ar      1 <0>        -0.0193
     22 C18        -0.5993    5.7250   -0.7413 C.ar      1 <0>        -0.0836
     23 Cl1        -0.9857    7.0773   -3.0549 Cl        1 <0>        -0.0465
     24 Cl2         1.4752    2.2763   -2.7588 Cl        1 <0>        -0.0157
     25 C19         0.2153   -0.0135    0.2230 C.2       1 <0>         0.4598
     26 O2         -0.0225   -1.1902    0.3597 O.co2     1 <0>        -0.6031
     27 H3         -2.3565   -1.8380   -4.6460 H         1 <0>         0.0566
     28 H4         -1.5141   -0.8068   -3.4648 H         1 <0>         0.0538
     29 H5         -1.8741   -2.5040   -3.0674 H         1 <0>         0.0497
     30 H6         -3.9196   -0.2773   -3.4826 H         1 <0>         0.1246
     31 H7         -5.5689   -1.9995   -2.8028 H         1 <0>         0.0502
     32 H8         -4.7216   -2.4793   -4.2928 H         1 <0>         0.0580
     33 H9         -4.2712   -3.2160   -2.7364 H         1 <0>         0.0494
     34 H10        -3.0324   -1.8399   -1.0159 H         1 <0>         0.0763
     35 H11        -4.3942   -0.6946   -1.0637 H         1 <0>         0.0695
     36 H12        -1.0623    0.7694    2.5327 H         1 <0>         0.1278
     37 H13         0.1582    1.9604    2.0228 H         1 <0>         0.1327
     38 H14        -3.6709    1.5854    2.4319 H         1 <0>         0.2152
     39 H15        -2.9664    5.7037    1.9795 H         1 <0>         0.2592
     40 H16        -0.3481    5.6693    1.8763 H         1 <0>         0.1362
     41 H17         0.4621    4.0874    1.9737 H         1 <0>         0.1341
     42 H18         0.8533    2.7669   -0.0223 H         1 <0>         0.1610
     43 H19         0.3649    4.6830   -3.8032 H         1 <0>         0.1501
     44 H20        -1.0969    6.5522   -0.2571 H         1 <0>         0.1391
     45 O3         -3.3985    1.5944   -3.0902 O.co2     1 <0>        -0.6864
     46 N2         -2.1916    0.3583    0.1755 N.4       1 <0>        -0.4845
     47 H21        -2.1894   -0.5720    0.6099 H         1 <0>         0.4218
     48 H22        -2.9291    0.9327    0.6004 H         1 <0>         0.4007
     49 O4          1.4570    0.3882   -0.0908 O.co2     1 <0>        -0.6833
     50 N3         -3.7165    3.7401    2.2844 N.pl3     1 <0>        -0.4698
     51 H23        -4.7042    3.9377    2.4837 H         1 <0>         0.4801
@<TRIPOS>BOND
     1    1    2 1
     2    1   27 1
     3    1   28 1
     4    1   29 1
     5    2    3 1
     6    2    4 1
     7    2   30 1
     8    3   31 1
     9    3   32 1
    10    3   33 1
    11    4    5 1
    12    4   34 1
    13    4   35 1
    14    5    6 1
    15    5    7 1
    16    5   46 1
    17    7    8 2
    18    7   45 1
    19    9   10 1
    20    9   11 1
    21    9   25 1
    22    9   46 1
    23   11   12 1
    24   11   36 1
    25   11   37 1
    26   12   15 1
    27   12   13 2
    28   13   38 1
    29   13   50 1
    30   14   15 1
    31   14   39 1
    32   14   50 2
    33   15   16 1
    34   16   17 1
    35   16   40 1
    36   16   41 1
    37   17   22 ar
    38   17   18 ar
    39   18   19 ar
    40   18   42 1
    41   19   20 ar
    42   19   24 1
    43   20   21 ar
    44   20   43 1
    45   21   22 ar
    46   21   23 1
    47   22   44 1
    48   25   26 2
    49   25   49 1
    50   46   47 1
    51   46   48 1
    52   50   51 1
@<TRIPOS>MOLECULE
ZINC03812851
   48    49     0     0     0
SMALL
USER_CHARGES

@<TRIPOS>ATOM
      1 C1         -1.4456   -0.3077    0.0442 C.3       1 <0>        -0.1742
      2 C2          0.0722   -0.1534    0.1596 C.3       1 <0>         0.0100
      3 H1          0.3177    0.8911    0.3515 H         1 <0>         0.1708
      4 C3          0.5789   -1.0052    1.2949 C.2       1 <0>         0.5276
      5 O1          1.3873   -1.8834    1.0802 O.2       1 <0>        -0.5254
      6 N1          0.1335   -0.7910    2.5488 N.am      1 <0>        -0.5683
      7 C4         -0.8487    0.2330    2.9486 C.3       1 <0>         0.0882
      8 C5         -0.5618    0.4936    4.4484 C.3       1 <0>        -0.1335
      9 C6         -0.2014   -0.9302    4.9486 C.3       1 <0>        -0.1074
     10 C7          0.5421   -1.5442    3.7435 C.3       1 <0>         0.0637
     11 H2          1.6185   -1.4533    3.8889 H         1 <0>         0.0738
     12 C8          0.1636   -2.9947    3.5892 C.2       1 <0>         0.4996
     13 O2          0.5749   -3.8203    4.3866 O.co2     1 <0>        -0.6928
     14 O3         -0.5540   -3.3427    2.6670 O.co2     1 <0>        -0.6829
     15 N2          0.7048   -0.5827   -1.0948 N.4       1 <0>        -0.4643
     16 C9          2.1416   -0.2803   -1.0471 C.3       1 <0>        -0.0600
     17 H3          2.5739   -0.7118   -0.1443 H         1 <0>         0.1486
     18 C10         2.8293   -0.8764   -2.2771 C.3       1 <0>        -0.1097
     19 C11         2.7349   -2.4025   -2.2247 C.3       1 <0>        -0.0932
     20 C12         3.4122   -2.9896   -3.4361 C.ar      1 <0>        -0.0771
     21 C13         2.6890   -3.2102   -4.5934 C.ar      1 <0>        -0.1190
     22 C14         3.3103   -3.7487   -5.7046 C.ar      1 <0>        -0.1195
     23 C15         4.6549   -4.0662   -5.6587 C.ar      1 <0>        -0.1259
     24 C16         5.3783   -3.8448   -4.5018 C.ar      1 <0>        -0.1170
     25 C17         4.7580   -3.3023   -3.3919 C.ar      1 <0>        -0.1119
     26 C18         2.3404    1.2135   -1.0350 C.2       1 <0>         0.4980
     27 O4          1.3875    1.9566   -1.1964 O.co2     1 <0>        -0.6788
     28 O5          3.4543    1.6788   -0.8637 O.co2     1 <0>        -0.6404
     29 H4         -1.8224    0.3699   -0.7219 H         1 <0>         0.0871
     30 H5         -1.6867   -1.3350   -0.2289 H         1 <0>         0.0811
     31 H6         -1.9090   -0.0678    1.0012 H         1 <0>         0.1053
     32 H7         -0.7023    1.1453    2.3703 H         1 <0>         0.0765
     33 H8         -1.8634   -0.1424    2.8161 H         1 <0>         0.0757
     34 H9          0.2792    1.1758    4.5725 H         1 <0>         0.0762
     35 H10        -1.4488    0.8730    4.9557 H         1 <0>         0.0832
     36 H11         0.4498   -0.8791    5.8212 H         1 <0>         0.0800
     37 H12        -1.1032   -1.5003    5.1719 H         1 <0>         0.0746
     38 H13         0.5740   -1.5759   -1.2147 H         1 <0>         0.4113
     39 H14         2.3383   -0.5127   -3.1797 H         1 <0>         0.0758
     40 H15         3.8774   -0.5773   -2.2879 H         1 <0>         0.1081
     41 H16         3.2258   -2.7662   -1.3220 H         1 <0>         0.0921
     42 H17         1.6868   -2.7016   -2.2138 H         1 <0>         0.0645
     43 H18         1.6385   -2.9621   -4.6292 H         1 <0>         0.1194
     44 H19         2.7452   -3.9217   -6.6085 H         1 <0>         0.1204
     45 H20         5.1402   -4.4876   -6.5267 H         1 <0>         0.1196
     46 H21         6.4288   -4.0932   -4.4658 H         1 <0>         0.1219
     47 H22         5.3240   -3.1259   -2.4892 H         1 <0>         0.1250
     48 H23         0.2834   -0.0920   -1.8691 H         1 <0>         0.4233
@<TRIPOS>BOND
     1    1    2 1
     2    1   29 1
     3    1   30 1
     4    1   31 1
     5    2    3 1
     6    2    4 1
     7    2   15 1
     8    4    5 2
     9    4    6 am
    10    6   10 1
    11    6    7 1
    12    7    8 1
    13    7   32 1
    14    7   33 1
    15    8    9 1
    16    8   34 1
    17    8   35 1
    18    9   10 1
    19    9   36 1
    20    9   37 1
    21   10   11 1
    22   10   12 1
    23   12   13 2
    24   12   14 1
    25   15   16 1
    26   15   38 1
    27   15   48 1
    28   16   17 1
    29   16   18 1
    30   16   26 1
    31   18   19 1
    32   18   39 1
    33   18   40 1
    34   19   20 1
    35   19   41 1
    36   19   42 1
    37   20   25 ar
    38   20   21 ar
    39   21   22 ar
    40   21   43 1
    41   22   23 ar
    42   22   44 1
    43   23   24 ar
    44   23   45 1
    45   24   25 ar
    46   24   46 1
    47   25   47 1
    48   26   27 2
    49   26   28 1
@<TRIPOS>MOLECULE
ZINC06491423
   48    49     0     0     0
SMALL
USER_CHARGES
1-[2-(1-carboxy-3-phenyl-propyl)aminopropanoyl]pyrrolidine-2-carboxylic acid
@<TRIPOS>ATOM
      1 C1         -4.1287    4.3894   -1.0493 C.3       1 <0>        -0.1778
      2 C2         -4.1950    4.9499    0.3727 C.3       1 <0>         0.0181
      3 H1         -5.1013    4.5932    0.8620 H         1 <0>         0.1556
      4 C3         -4.2128    6.4558    0.3187 C.2       1 <0>         0.5287
      5 O1         -3.2830    7.0899    0.7709 O.2       1 <0>        -0.5137
      6 N1         -5.2619    7.0981   -0.2320 N.am      1 <0>        -0.5763
      7 C4         -6.4844    6.4586   -0.7514 C.3       1 <0>         0.0824
      8 C5         -7.0518    7.4618   -1.7832 C.3       1 <0>        -0.1332
      9 C6         -6.7278    8.8216   -1.1099 C.3       1 <0>        -0.1051
     10 C7         -5.3739    8.5519   -0.4201 C.3       1 <0>         0.0908
     11 H2         -4.5592    8.9080   -1.0506 H         1 <0>         0.0790
     12 C8         -5.3287    9.2466    0.9165 C.2       1 <0>         0.4578
     13 O2         -5.2144    8.5992    1.9302 O.co2     1 <0>        -0.6084
     14 C9         -3.2451    3.1709    1.7127 C.3       1 <0>        -0.0195
     15 H3         -3.8529    2.5750    1.0318 H         1 <0>         0.1354
     16 C10        -1.8998    2.4771    1.9354 C.3       1 <0>        -0.1191
     17 C11        -1.2287    2.2200    0.5847 C.3       1 <0>        -0.0920
     18 C12         0.0964    1.5366    0.8041 C.ar      1 <0>        -0.0833
     19 C13         1.2444    2.2899    0.9641 C.ar      1 <0>        -0.1171
     20 C14         2.4610    1.6629    1.1582 C.ar      1 <0>        -0.1175
     21 C15         2.5292    0.2827    1.1947 C.ar      1 <0>        -0.1224
     22 C16         1.3811   -0.4705    1.0353 C.ar      1 <0>        -0.1177
     23 C17         0.1647    0.1564    0.8398 C.ar      1 <0>        -0.1119
     24 C18        -3.9611    3.3136    3.0310 C.2       1 <0>         0.4532
     25 O3         -4.2537    4.4108    3.4439 O.co2     1 <0>        -0.5946
     26 H4         -4.2505    3.3066   -1.0191 H         1 <0>         0.0891
     27 H5         -4.9253    4.8280   -1.6503 H         1 <0>         0.1086
     28 H6         -3.1630    4.6342   -1.4917 H         1 <0>         0.0821
     29 H7         -6.2415    5.5126   -1.2354 H         1 <0>         0.0781
     30 H8         -7.2014    6.3003    0.0542 H         1 <0>         0.0767
     31 H9         -8.1272    7.3329   -1.9056 H         1 <0>         0.0847
     32 H10        -6.5372    7.3668   -2.7393 H         1 <0>         0.0741
     33 H11        -7.4904    9.0795   -0.3750 H         1 <0>         0.0787
     34 H12        -6.6296    9.6085   -1.8577 H         1 <0>         0.0830
     35 H13        -2.0606    1.5284    2.4476 H         1 <0>         0.1181
     36 H14        -1.2587    3.1145    2.5442 H         1 <0>         0.0832
     37 H15        -1.0679    3.1687    0.0725 H         1 <0>         0.0642
     38 H16        -1.8699    1.5825   -0.0241 H         1 <0>         0.0859
     39 H17         1.1910    3.3682    0.9362 H         1 <0>         0.1219
     40 H18         3.3579    2.2514    1.2831 H         1 <0>         0.1224
     41 H19         3.4794   -0.2071    1.3482 H         1 <0>         0.1209
     42 H20         1.4344   -1.5488    1.0638 H         1 <0>         0.1224
     43 H21        -0.7322   -0.4320    0.7152 H         1 <0>         0.1244
     44 O4         -5.4154   10.5845    0.9807 O.co2     1 <0>        -0.7657
     45 N2         -3.0108    4.5067    1.1324 N.4       1 <0>        -0.4864
     46 H22        -2.8232    5.1760    1.8881 H         1 <0>         0.4441
     47 H23        -2.2006    4.4652    0.5030 H         1 <0>         0.4105
     48 O5         -4.2738    2.2218    3.7466 O.co2     1 <0>        -0.7125
@<TRIPOS>BOND
     1    1    2 1
     2    1   26 1
     3    1   27 1
     4    1   28 1
     5    2    3 1
     6    2    4 1
     7    2   45 1
     8    4    5 2
     9    4    6 am
    10    6   10 1
    11    6    7 1
    12    7    8 1
    13    7   29 1
    14    7   30 1
    15    8    9 1
    16    8   31 1
    17    8   32 1
    18    9   10 1
    19    9   33 1
    20    9   34 1
    21   10   11 1
    22   10   12 1
    23   12   13 2
    24   12   44 1
    25   14   15 1
    26   14   16 1
    27   14   24 1
    28   14   45 1
    29   16   17 1
    30   16   35 1
    31   16   36 1
    32   17   18 1
    33   17   37 1
    34   17   38 1
    35   18   23 ar
    36   18   19 ar
    37   19   20 ar
    38   19   39 1
    39   20   21 ar
    40   20   40 1
    41   21   22 ar
    42   21   41 1
    43   22   23 ar
    44   22   42 1
    45   23   43 1
    46   24   25 2
    47   24   48 1
    48   45   46 1
    49   45   47 1
@<TRIPOS>MOLECULE
ZINC08652535
   32    33     0     0     0
SMALL
USER_CHARGES
1-(2-methyl-3-sulfanyl-propanoyl)indoline-2-carboxylic acid
@<TRIPOS>ATOM
      1 C1          6.1895    3.2420   -1.1634 C.3       1 <0>        -0.1413
      2 C2          5.4276    3.6941    0.0840 C.3       1 <0>        -0.1200
      3 H1          5.9044    3.2783    0.9716 H         1 <0>         0.1547
      4 C3          5.4430    5.2219    0.1651 C.3       1 <0>        -0.0362
      5 S1          7.1461    5.7974    0.4082 S.3       1 <0>        -0.2375
      6 C4          4.0028    3.2096    0.0055 C.2       1 <0>         0.5589
      7 O1          3.1219    3.9695   -0.3375 O.2       1 <0>        -0.5431
      8 N1          3.7074    1.9319    0.3164 N.am      1 <0>        -0.5272
      9 C5          2.4164    1.3969    0.3664 C.ar      1 <0>         0.1594
     10 C6          1.1906    2.0187    0.1205 C.ar      1 <0>        -0.1379
     11 C7          0.0160    1.3051    0.2248 C.ar      1 <0>        -0.1003
     12 C8          0.0428   -0.0328    0.5740 C.ar      1 <0>        -0.1531
     13 C9          1.2525   -0.6553    0.8189 C.ar      1 <0>        -0.0814
     14 C10         2.4326    0.0561    0.7155 C.ar      1 <0>        -0.1348
     15 C11         3.8685   -0.3694    0.9249 C.3       1 <0>        -0.0645
     16 C12         4.6920    0.8998    0.6522 C.3       1 <0>         0.0771
     17 H2          5.3715    0.7389   -0.1848 H         1 <0>         0.0952
     18 C13         5.4654    1.2959    1.8835 C.2       1 <0>         0.4612
     19 O2          5.2243    2.3422    2.4377 O.co2     1 <0>        -0.6124
     20 H3          5.7919    3.7563   -2.0383 H         1 <0>         0.0571
     21 H4          7.2468    3.4818   -1.0502 H         1 <0>         0.0784
     22 H5          6.0727    2.1657   -1.2903 H         1 <0>         0.0594
     23 H6          5.0472    5.6390   -0.7609 H         1 <0>         0.0853
     24 H7          4.8265    5.5475    1.0030 H         1 <0>         0.0865
     25 H8          7.0323    7.1364    0.4634 H         1 <0>         0.0769
     26 H9          1.1628    3.0632   -0.1525 H         1 <0>         0.1359
     27 H10        -0.9283    1.7913    0.0288 H         1 <0>         0.1217
     28 H11        -0.8789   -0.5899    0.6548 H         1 <0>         0.1207
     29 H12         1.2752   -1.6999    1.0921 H         1 <0>         0.1220
     30 H13         4.0192   -0.7074    1.9502 H         1 <0>         0.0954
     31 H14         4.1383   -1.1564    0.2207 H         1 <0>         0.0870
     32 O3          6.4219    0.4864    2.3645 O.co2     1 <0>        -0.7432
@<TRIPOS>BOND
     1    1    2 1
     2    1   20 1
     3    1   21 1
     4    1   22 1
     5    2    3 1
     6    2    4 1
     7    2    6 1
     8    4    5 1
     9    4   23 1
    10    4   24 1
    11    5   25 1
    12    6    7 2
    13    6    8 am
    14    8   16 1
    15    8    9 1
    16    9   14 ar
    17    9   10 ar
    18   10   11 ar
    19   10   26 1
    20   11   12 ar
    21   11   27 1
    22   12   13 ar
    23   12   28 1
    24   13   14 ar
    25   13   29 1
    26   14   15 1
    27   15   16 1
    28   15   30 1
    29   15   31 1
    30   16   17 1
    31   16   18 1
    32   18   19 2
    33   18   32 1
