@<TRIPOS>MOLECULE
ZINC03812863
   60    61     0     0     0
SMALL
USER_CHARGES

@<TRIPOS>ATOM
      1 C1         -0.0167    1.3781    0.0096 C.ar      1 <0>        -0.1226
      2 C2          1.1709    2.0855    0.0021 C.ar      1 <0>        -0.1142
      3 C3          2.3773    1.4107   -0.0130 C.ar      1 <0>        -0.1110
      4 C4          2.3960    0.0285   -0.0201 C.ar      1 <0>        -0.0815
      5 C5          1.2084   -0.6789   -0.0117 C.ar      1 <0>        -0.1204
      6 C6          0.0021   -0.0041    0.0020 C.ar      1 <0>        -0.1197
      7 C7          3.7112   -0.7071   -0.0376 C.3       1 <0>        -0.0911
      8 C8          4.1714   -0.9633    1.3989 C.3       1 <0>        -0.1116
      9 C9          5.5066   -1.7102    1.3812 C.3       1 <0>        -0.0640
     10 H1          6.2284   -1.1499    0.7869 H         1 <0>         0.1541
     11 C10         6.0202   -1.8544    2.7906 C.2       1 <0>         0.4964
     12 O1          5.7155   -2.8312    3.4535 O.co2     1 <0>        -0.6834
     13 O2          6.7405   -0.9942    3.2679 O.co2     1 <0>        -0.6319
     14 N1          5.3150   -3.0418    0.7912 N.4       1 <0>        -0.4659
     15 C11         6.6156   -3.7127    0.6641 C.3       1 <0>         0.0163
     16 H2          7.1096   -3.7348    1.6355 H         1 <0>         0.1621
     17 C12         6.4045   -5.1442    0.1667 C.3       1 <0>        -0.1434
     18 C13         5.6383   -5.9433    1.2228 C.3       1 <0>        -0.1296
     19 C14         5.4273   -7.3747    0.7254 C.3       1 <0>        -0.1514
     20 C15         4.6611   -8.1738    1.7815 C.3       1 <0>        -0.0111
     21 N2          4.4584   -9.5481    1.3040 N.4       1 <0>        -0.6381
     22 C16         7.4748   -2.9608   -0.3195 C.2       1 <0>         0.5267
     23 O3          7.0459   -1.9640   -0.8612 O.2       1 <0>        -0.5136
     24 N3          8.7198   -3.3959   -0.5971 N.am      1 <0>        -0.5659
     25 C17         9.3614   -4.5905   -0.0185 C.3       1 <0>         0.0904
     26 C18        10.8822   -4.3203   -0.1369 C.3       1 <0>        -0.1346
     27 C19        10.9632   -3.5887   -1.5027 C.3       1 <0>        -0.1080
     28 C20         9.6606   -2.7615   -1.5319 C.3       1 <0>         0.0624
     29 H3          9.8658   -1.7391   -1.2145 H         1 <0>         0.0774
     30 C21         9.0805   -2.7628   -2.9228 C.2       1 <0>         0.5007
     31 O4          9.6205   -2.1230   -3.8091 O.co2     1 <0>        -0.6849
     32 O5          8.0713   -3.4037   -3.1617 O.co2     1 <0>        -0.6885
     33 H4         -0.9591    1.9053    0.0259 H         1 <0>         0.1218
     34 H5          1.1563    3.1654    0.0076 H         1 <0>         0.1242
     35 H6          3.3051    1.9634   -0.0196 H         1 <0>         0.1259
     36 H7          1.2231   -1.7588   -0.0176 H         1 <0>         0.1162
     37 H8         -0.9258   -0.5567    0.0082 H         1 <0>         0.1206
     38 H9          3.5884   -1.6586   -0.5549 H         1 <0>         0.0612
     39 H10         4.4573   -0.1052   -0.5563 H         1 <0>         0.0932
     40 H11         4.2941   -0.0118    1.9163 H         1 <0>         0.1068
     41 H12         3.4252   -1.5652    1.9176 H         1 <0>         0.0779
     42 H13         4.7108   -3.5892    1.3856 H         1 <0>         0.4180
     43 H14         5.8324   -5.1259   -0.7609 H         1 <0>         0.0971
     44 H15         7.3721   -5.6130   -0.0124 H         1 <0>         0.1187
     45 H16         6.2104   -5.9616    2.1504 H         1 <0>         0.0972
     46 H17         4.6707   -5.4745    1.4019 H         1 <0>         0.0731
     47 H18         4.8551   -7.3564   -0.2022 H         1 <0>         0.0925
     48 H19         6.3949   -7.8435    0.5463 H         1 <0>         0.0955
     49 H20         5.2332   -8.1921    2.7091 H         1 <0>         0.1379
     50 H21         3.6935   -7.7050    1.9606 H         1 <0>         0.1351
     51 H22         3.9288   -9.5312    0.4453 H         1 <0>         0.4352
     52 H23         5.3541   -9.9821    1.1382 H         1 <0>         0.4360
     53 H24         9.0767   -4.7050    1.0274 H         1 <0>         0.0721
     54 H25         9.0888   -5.4801   -0.5864 H         1 <0>         0.0717
     55 H26        11.2288   -3.6772    0.6720 H         1 <0>         0.0789
     56 H27        11.4442   -5.2540   -0.1598 H         1 <0>         0.0838
     57 H28        11.8369   -2.9380   -1.5404 H         1 <0>         0.0835
     58 H29        10.9791   -4.3054   -2.3238 H         1 <0>         0.0752
     59 H30         3.9531  -10.0751    2.0004 H         1 <0>         0.4381
     60 H31         4.8943   -2.9480   -0.1211 H         1 <0>         0.4129
@<TRIPOS>BOND
     1    1    6 ar
     2    1    2 ar
     3    1   33 1
     4    2    3 ar
     5    2   34 1
     6    3    4 ar
     7    3   35 1
     8    4    5 ar
     9    4    7 1
    10    5    6 ar
    11    5   36 1
    12    6   37 1
    13    7    8 1
    14    7   38 1
    15    7   39 1
    16    8    9 1
    17    8   40 1
    18    8   41 1
    19    9   10 1
    20    9   11 1
    21    9   14 1
    22   11   12 2
    23   11   13 1
    24   14   15 1
    25   14   42 1
    26   14   60 1
    27   15   16 1
    28   15   17 1
    29   15   22 1
    30   17   18 1
    31   17   43 1
    32   17   44 1
    33   18   19 1
    34   18   45 1
    35   18   46 1
    36   19   20 1
    37   19   47 1
    38   19   48 1
    39   20   21 1
    40   20   49 1
    41   20   50 1
    42   21   51 1
    43   21   52 1
    44   21   59 1
    45   22   23 2
    46   22   24 am
    47   24   28 1
    48   24   25 1
    49   25   26 1
    50   25   53 1
    51   25   54 1
    52   26   27 1
    53   26   55 1
    54   26   56 1
    55   27   28 1
    56   27   57 1
    57   27   58 1
    58   28   29 1
    59   28   30 1
    60   30   31 2
    61   30   32 1
@<TRIPOS>MOLECULE
ZINC52955714
   60    62     0     0     0
SMALL
USER_CHARGES

@<TRIPOS>ATOM
      1 C1          1.3987    1.3244   -5.1362 C.3       1 <0>        -0.1508
      2 C2          1.0905   -0.1340   -4.7912 C.3       1 <0>         0.0573
      3 O1          2.2674   -0.9246   -4.9697 O.3       1 <0>        -0.3521
      4 C3          2.1655   -2.2370   -4.7069 C.2       1 <0>         0.4275
      5 O2          1.1120   -2.6992   -4.3376 O.2       1 <0>        -0.4940
      6 C4          3.3651   -3.1340   -4.8726 C.3       1 <0>         0.0997
      7 H1          4.1657   -2.7952   -4.2150 H         1 <0>         0.1169
      8 C5          3.8426   -3.0839   -6.3253 C.3       1 <0>        -0.0922
      9 C6          5.1324   -3.8948   -6.4664 C.3       1 <0>        -0.0769
     10 C7          5.6027   -3.8454   -7.8972 C.ar      1 <0>        -0.0756
     11 C8          5.1712   -4.7992   -8.8000 C.ar      1 <0>        -0.1131
     12 C9          5.6026   -4.7539  -10.1125 C.ar      1 <0>        -0.1191
     13 C10         6.4653   -3.7546  -10.5224 C.ar      1 <0>        -0.1295
     14 C11         6.8962   -2.8003   -9.6198 C.ar      1 <0>        -0.1225
     15 C12         6.4613   -2.8430   -8.3084 C.ar      1 <0>        -0.1194
     16 N1          2.9969   -4.5131   -4.5254 N.3       1 <0>        -0.6349
     17 C13         3.1069   -4.7389   -3.0781 C.3       1 <0>         0.0705
     18 H2          3.9453   -4.1649   -2.6834 H         1 <0>         0.0892
     19 C14         1.8145   -4.2910   -2.3924 C.3       1 <0>        -0.1648
     20 C15         3.3334   -6.2052   -2.8142 C.2       1 <0>         0.5406
     21 O3          2.8896   -7.0347   -3.5796 O.2       1 <0>        -0.4806
     22 N2          4.0291   -6.5947   -1.7276 N.am      1 <0>        -0.5983
     23 C16         4.5441   -5.7031   -0.6705 C.3       1 <0>         0.1335
     24 C17         5.1995   -6.5986    0.3718 C.3       1 <0>         0.0203
     25 C18         4.6100   -7.9925    0.1422 C.3       1 <0>        -0.0760
     26 C19         4.3970   -7.9848   -1.3940 C.3       1 <0>         0.0724
     27 H3          5.3194   -8.2647   -1.9029 H         1 <0>         0.0689
     28 C20         3.2829   -8.9262   -1.7730 C.2       1 <0>         0.5066
     29 O4          2.1276   -8.5365   -1.7689 O.co2     1 <0>        -0.6674
     30 O5          3.5368  -10.0775   -2.0838 O.co2     1 <0>        -0.6985
     31 S1          7.0181   -6.6028    0.2291 S.3       1 <0>        -0.2407
     32 C21         7.5204   -5.4282    1.5511 C.3       1 <0>        -0.0840
     33 C22         6.5937   -5.7477    2.7527 C.3       1 <0>        -0.0818
     34 S2          4.9143   -6.0098    2.0701 S.3       1 <0>        -0.2469
     35 H4          2.1875    1.6939   -4.4809 H         1 <0>         0.0657
     36 H5          1.7271    1.3908   -6.1734 H         1 <0>         0.0661
     37 H6          0.5010    1.9275   -5.0000 H         1 <0>         0.0770
     38 H7          0.7620   -0.2004   -3.7539 H         1 <0>         0.0656
     39 H8          0.3017   -0.5035   -5.4464 H         1 <0>         0.0661
     40 H9          3.0754   -3.5055   -6.9747 H         1 <0>         0.0720
     41 H10         4.0312   -2.0488   -6.6102 H         1 <0>         0.0785
     42 H11         5.8995   -3.4732   -5.8170 H         1 <0>         0.0710
     43 H12         4.9438   -4.9298   -6.1814 H         1 <0>         0.0945
     44 H13         4.4972   -5.5800   -8.4797 H         1 <0>         0.1256
     45 H14         5.2660   -5.4995  -10.8176 H         1 <0>         0.1197
     46 H15         6.8030   -3.7196  -11.5476 H         1 <0>         0.1171
     47 H16         7.5704   -2.0197   -9.9400 H         1 <0>         0.1178
     48 H17         6.7950   -2.0953   -7.6041 H         1 <0>         0.1199
     49 H18         2.0698   -4.7341   -4.8565 H         1 <0>         0.3667
     50 H19         1.7149   -3.2088   -2.4763 H         1 <0>         0.0630
     51 H20         0.9627   -4.7726   -2.8726 H         1 <0>         0.0726
     52 H21         1.8452   -4.5725   -1.3399 H         1 <0>         0.0603
     53 H22         5.2797   -5.0153   -1.0876 H         1 <0>         0.0793
     54 H23         3.7233   -5.1448   -0.2202 H         1 <0>         0.0804
     55 H24         5.3149   -8.7695    0.4380 H         1 <0>         0.0969
     56 H25         3.6607   -8.1073    0.6653 H         1 <0>         0.0980
     57 H26         8.5632   -5.5899    1.8243 H         1 <0>         0.1233
     58 H27         7.3703   -4.4004    1.2207 H         1 <0>         0.0988
     59 H28         6.9361   -6.6510    3.2576 H         1 <0>         0.1019
     60 H29         6.5860   -4.9104    3.4505 H         1 <0>         0.1180
@<TRIPOS>BOND
     1    1    2 1
     2    1   35 1
     3    1   36 1
     4    1   37 1
     5    2    3 1
     6    2   38 1
     7    2   39 1
     8    3    4 1
     9    4    5 2
    10    4    6 1
    11    6    7 1
    12    6    8 1
    13    6   16 1
    14    8    9 1
    15    8   40 1
    16    8   41 1
    17    9   10 1
    18    9   42 1
    19    9   43 1
    20   10   15 ar
    21   10   11 ar
    22   11   12 ar
    23   11   44 1
    24   12   13 ar
    25   12   45 1
    26   13   14 ar
    27   13   46 1
    28   14   15 ar
    29   14   47 1
    30   15   48 1
    31   16   17 1
    32   16   49 1
    33   17   18 1
    34   17   19 1
    35   17   20 1
    36   19   50 1
    37   19   51 1
    38   19   52 1
    39   20   21 2
    40   20   22 am
    41   22   26 1
    42   22   23 1
    43   23   24 1
    44   23   53 1
    45   23   54 1
    46   24   34 1
    47   24   25 1
    48   24   31 1
    49   25   26 1
    50   25   55 1
    51   25   56 1
    52   26   27 1
    53   26   28 1
    54   28   29 2
    55   28   30 1
    56   31   32 1
    57   32   33 1
    58   32   57 1
    59   32   58 1
    60   33   34 1
    61   33   59 1
    62   33   60 1
@<TRIPOS>MOLECULE
ZINC03812851
   48    49     0     0     0
SMALL
USER_CHARGES

@<TRIPOS>ATOM
      1 C1         -1.4456   -0.3077    0.0442 C.3       1 <0>        -0.1742
      2 C2          0.0722   -0.1534    0.1596 C.3       1 <0>         0.0100
      3 H1          0.3177    0.8911    0.3515 H         1 <0>         0.1708
      4 C3          0.5789   -1.0052    1.2949 C.2       1 <0>         0.5276
      5 O1          1.3873   -1.8834    1.0802 O.2       1 <0>        -0.5254
      6 N1          0.1335   -0.7910    2.5488 N.am      1 <0>        -0.5683
      7 C4         -0.8487    0.2330    2.9486 C.3       1 <0>         0.0882
      8 C5         -0.5618    0.4936    4.4484 C.3       1 <0>        -0.1335
      9 C6         -0.2014   -0.9302    4.9486 C.3       1 <0>        -0.1074
     10 C7          0.5421   -1.5442    3.7435 C.3       1 <0>         0.0637
     11 H2          1.6185   -1.4533    3.8889 H         1 <0>         0.0738
     12 C8          0.1636   -2.9947    3.5892 C.2       1 <0>         0.4996
     13 O2          0.5749   -3.8203    4.3866 O.co2     1 <0>        -0.6928
     14 O3         -0.5540   -3.3427    2.6670 O.co2     1 <0>        -0.6829
     15 N2          0.7048   -0.5827   -1.0948 N.4       1 <0>        -0.4643
     16 C9          2.1416   -0.2803   -1.0471 C.3       1 <0>        -0.0600
     17 H3          2.5739   -0.7118   -0.1443 H         1 <0>         0.1486
     18 C10         2.8293   -0.8764   -2.2771 C.3       1 <0>        -0.1097
     19 C11         2.7349   -2.4025   -2.2247 C.3       1 <0>        -0.0932
     20 C12         3.4122   -2.9896   -3.4361 C.ar      1 <0>        -0.0771
     21 C13         2.6890   -3.2102   -4.5934 C.ar      1 <0>        -0.1190
     22 C14         3.3103   -3.7487   -5.7046 C.ar      1 <0>        -0.1195
     23 C15         4.6549   -4.0662   -5.6587 C.ar      1 <0>        -0.1259
     24 C16         5.3783   -3.8448   -4.5018 C.ar      1 <0>        -0.1170
     25 C17         4.7580   -3.3023   -3.3919 C.ar      1 <0>        -0.1119
     26 C18         2.3404    1.2135   -1.0350 C.2       1 <0>         0.4980
     27 O4          1.3875    1.9566   -1.1964 O.co2     1 <0>        -0.6788
     28 O5          3.4543    1.6788   -0.8637 O.co2     1 <0>        -0.6404
     29 H4         -1.8224    0.3699   -0.7219 H         1 <0>         0.0871
     30 H5         -1.6867   -1.3350   -0.2289 H         1 <0>         0.0811
     31 H6         -1.9090   -0.0678    1.0012 H         1 <0>         0.1053
     32 H7         -0.7023    1.1453    2.3703 H         1 <0>         0.0765
     33 H8         -1.8634   -0.1424    2.8161 H         1 <0>         0.0757
     34 H9          0.2792    1.1758    4.5725 H         1 <0>         0.0762
     35 H10        -1.4488    0.8730    4.9557 H         1 <0>         0.0832
     36 H11         0.4498   -0.8791    5.8212 H         1 <0>         0.0800
     37 H12        -1.1032   -1.5003    5.1719 H         1 <0>         0.0746
     38 H13         0.5740   -1.5759   -1.2147 H         1 <0>         0.4113
     39 H14         2.3383   -0.5127   -3.1797 H         1 <0>         0.0758
     40 H15         3.8774   -0.5773   -2.2879 H         1 <0>         0.1081
     41 H16         3.2258   -2.7662   -1.3220 H         1 <0>         0.0921
     42 H17         1.6868   -2.7016   -2.2138 H         1 <0>         0.0645
     43 H18         1.6385   -2.9621   -4.6292 H         1 <0>         0.1194
     44 H19         2.7452   -3.9217   -6.6085 H         1 <0>         0.1204
     45 H20         5.1402   -4.4876   -6.5267 H         1 <0>         0.1196
     46 H21         6.4288   -4.0932   -4.4658 H         1 <0>         0.1219
     47 H22         5.3240   -3.1259   -2.4892 H         1 <0>         0.1250
     48 H23         0.2834   -0.0920   -1.8691 H         1 <0>         0.4233
@<TRIPOS>BOND
     1    1    2 1
     2    1   29 1
     3    1   30 1
     4    1   31 1
     5    2    3 1
     6    2    4 1
     7    2   15 1
     8    4    5 2
     9    4    6 am
    10    6   10 1
    11    6    7 1
    12    7    8 1
    13    7   32 1
    14    7   33 1
    15    8    9 1
    16    8   34 1
    17    8   35 1
    18    9   10 1
    19    9   36 1
    20    9   37 1
    21   10   11 1
    22   10   12 1
    23   12   13 2
    24   12   14 1
    25   15   16 1
    26   15   38 1
    27   15   48 1
    28   16   17 1
    29   16   18 1
    30   16   26 1
    31   18   19 1
    32   18   39 1
    33   18   40 1
    34   19   20 1
    35   19   41 1
    36   19   42 1
    37   20   25 ar
    38   20   21 ar
    39   21   22 ar
    40   21   43 1
    41   22   23 ar
    42   22   44 1
    43   23   24 ar
    44   23   45 1
    45   24   25 ar
    46   24   46 1
    47   25   47 1
    48   26   27 2
    49   26   28 1
