@<TRIPOS>MOLECULE
ZINC13734725
   55    57     0     0     0
SMALL
USER_CHARGES
N-[2-(1-benzyl-4-piperidyl)ethylcarbamothioyl]benzamide
@<TRIPOS>ATOM
      1 C1         -0.1367    7.6665    5.3330 C.ar      1 <0>        -0.0838
      2 C2         -1.3251    7.2842    4.7393 C.ar      1 <0>        -0.1131
      3 C3         -1.6522    5.9443    4.6477 C.ar      1 <0>        -0.0964
      4 C4         -0.7912    4.9866    5.1501 C.ar      1 <0>        -0.1636
      5 C5          0.3945    5.3692    5.7489 C.ar      1 <0>        -0.0950
      6 C6          0.7243    6.7089    5.8355 C.ar      1 <0>        -0.1135
      7 C7         -1.1480    3.5259    5.0506 C.3       1 <0>         0.0489
      8 C8         -0.7453    1.5159    3.7627 C.3       1 <0>        -0.0014
      9 C9         -0.0641    0.9715    2.5051 C.3       1 <0>        -0.1423
     10 C10        -0.7288    1.5792    1.2668 C.3       1 <0>        -0.0943
     11 C11        -0.6348    3.1056    1.3440 C.3       1 <0>        -0.1485
     12 C12        -1.2995    3.5881    2.6352 C.3       1 <0>        -0.0067
     13 C13        -0.0127    1.0858    0.0080 C.3       1 <0>        -0.1315
     14 C14        -0.7527    1.5927   -1.2315 C.3       1 <0>         0.1185
     15 N1         -0.0670    1.1202   -2.4368 N.pl3     1 <0>        -0.6810
     16 C15        -0.5435    1.4461   -3.6547 C.2       1 <0>         0.5172
     17 S1         -1.9501    2.4121   -3.7932 S.2       1 <0>        -0.5072
     18 N2          0.0874    1.0114   -4.7636 N.am      1 <0>        -0.6429
     19 C16        -0.3891    1.3373   -5.9815 C.2       1 <0>         0.5351
     20 O1         -1.3876    2.0230   -6.0798 O.2       1 <0>        -0.3981
     21 C17         0.3025    0.8607   -7.1973 C.ar      1 <0>        -0.1419
     22 C18         1.4531    0.0775   -7.0879 C.ar      1 <0>        -0.0917
     23 C19         2.0903   -0.3692   -8.2269 C.ar      1 <0>        -0.1243
     24 C20         1.5984   -0.0328   -9.4757 C.ar      1 <0>        -0.0850
     25 C21         0.4621    0.7482   -9.5912 C.ar      1 <0>        -0.1213
     26 C22        -0.1884    1.1964   -8.4604 C.ar      1 <0>        -0.0521
     27 H1          0.1192    8.7133    5.4040 H         1 <0>         0.1359
     28 H2         -1.9978    8.0324    4.3468 H         1 <0>         0.1365
     29 H3         -2.5807    5.6456    4.1838 H         1 <0>         0.1314
     30 H4          1.0652    4.6213    6.1454 H         1 <0>         0.1305
     31 H5          1.6530    7.0075    6.2990 H         1 <0>         0.1358
     32 H6         -2.2320    3.4142    5.0747 H         1 <0>         0.1366
     33 H7         -0.7085    2.9865    5.8896 H         1 <0>         0.1345
     34 H8         -1.7989    1.2366    3.7549 H         1 <0>         0.1319
     35 H9         -0.2650    1.0961    4.6466 H         1 <0>         0.1294
     36 H10        -0.1655   -0.1134    2.4770 H         1 <0>         0.1135
     37 H11         0.9925    1.2387    2.5190 H         1 <0>         0.0886
     38 H12        -1.7761    1.2792    1.2313 H         1 <0>         0.0974
     39 H13         0.4129    3.4063    1.3396 H         1 <0>         0.0886
     40 H14        -1.1438    3.5454    0.4863 H         1 <0>         0.1177
     41 H15        -2.3504    3.2991    2.6327 H         1 <0>         0.1317
     42 H16        -1.2216    4.6734    2.7002 H         1 <0>         0.1300
     43 H17         0.0021   -0.0041    0.0020 H         1 <0>         0.0833
     44 H18         1.0099    1.4631    0.0003 H         1 <0>         0.0781
     45 H19        -1.7753    1.2154   -1.2238 H         1 <0>         0.0920
     46 H20        -0.7675    2.6825   -1.2255 H         1 <0>         0.0899
     47 H21         0.7300    0.5728   -2.3584 H         1 <0>         0.3981
     48 H22         0.8843    0.4641   -4.6851 H         1 <0>         0.4085
     49 H23         1.8408   -0.1817   -6.1138 H         1 <0>         0.1198
     50 H24         2.9777   -0.9792   -8.1438 H         1 <0>         0.1326
     51 H25         2.1039   -0.3812  -10.3643 H         1 <0>         0.1330
     52 H26         0.0834    1.0071  -10.5689 H         1 <0>         0.1366
     53 H27        -1.0752    1.8060   -8.5519 H         1 <0>         0.1415
     54 N3         -0.5983    2.9869    3.7895 N.4       1 <0>        -0.3925
     55 H28         0.3993    3.2229    3.7328 H         1 <0>         0.4251
@<TRIPOS>BOND
     1    1    6 ar
     2    1    2 ar
     3    1   27 1
     4    2    3 ar
     5    2   28 1
     6    3    4 ar
     7    3   29 1
     8    4    5 ar
     9    4    7 1
    10    5    6 ar
    11    5   30 1
    12    6   31 1
    13    7   32 1
    14    7   33 1
    15    7   54 1
    16    8    9 1
    17    8   34 1
    18    8   35 1
    19    8   54 1
    20    9   10 1
    21    9   36 1
    22    9   37 1
    23   10   11 1
    24   10   13 1
    25   10   38 1
    26   11   12 1
    27   11   39 1
    28   11   40 1
    29   12   41 1
    30   12   42 1
    31   12   54 1
    32   13   14 1
    33   13   43 1
    34   13   44 1
    35   14   15 1
    36   14   45 1
    37   14   46 1
    38   15   16 1
    39   15   47 1
    40   16   17 2
    41   16   18 1
    42   18   19 am
    43   18   48 1
    44   19   20 2
    45   19   21 1
    46   21   26 ar
    47   21   22 ar
    48   22   23 ar
    49   22   49 1
    50   23   24 ar
    51   23   50 1
    52   24   25 ar
    53   24   51 1
    54   25   26 ar
    55   25   52 1
    56   26   53 1
    57   54   55 1
@<TRIPOS>MOLECULE
ZINC00897251
   58    61     0     0     0
SMALL
USER_CHARGES

@<TRIPOS>ATOM
      1 C1         -0.4000    2.7928   -9.4111 C.3       1 <0>         0.0217
      2 O1         -0.3921    3.3043   -8.0768 O.3       1 <0>        -0.2952
      3 C2          0.2864    2.5865   -7.1456 C.ar      1 <0>         0.1496
      4 C3          0.9365    1.4157   -7.5106 C.ar      1 <0>        -0.1810
      5 C4          1.6280    0.6797   -6.5702 C.ar      1 <0>        -0.0432
      6 C5          1.6776    1.1109   -5.2428 C.ar      1 <0>        -0.1980
      7 C6          1.0179    2.2969   -4.8763 C.ar      1 <0>        -0.1053
      8 C7          0.3345    3.0288   -5.8236 C.ar      1 <0>         0.0903
      9 O2         -0.2981    4.1789   -5.4680 O.3       1 <0>        -0.3013
     10 C8         -0.2072    4.5722   -4.0972 C.3       1 <0>         0.0223
     11 C9          2.4645    0.1785   -4.4238 C.2       1 <0>         0.4126
     12 O3          2.6844    0.2862   -3.2359 O.2       1 <0>        -0.4369
     13 C10         2.9517   -0.9365   -5.3169 C.3       1 <0>        -0.1385
     14 H1          2.5591   -1.8938   -4.9740 H         1 <0>         0.1136
     15 C11         2.4055   -0.6071   -6.7129 C.3       1 <0>        -0.0752
     16 C12         4.4812   -0.9687   -5.3380 C.3       1 <0>        -0.1018
     17 C13         4.9548   -2.1846   -6.1369 C.3       1 <0>        -0.0999
     18 C14         4.5565   -3.4674   -5.4014 C.3       1 <0>        -0.1473
     19 C15         5.1018   -4.6765   -6.1643 C.3       1 <0>        -0.0062
     20 N1          6.5650   -4.5904   -6.2436 N.4       1 <0>        -0.3817
     21 C16         6.9530   -3.4000   -7.0098 C.3       1 <0>        -0.0117
     22 C17         6.4789   -2.1417   -6.2794 C.3       1 <0>        -0.1414
     23 C18         7.0894   -5.7910   -6.9081 C.3       1 <0>         0.0445
     24 C19         8.5959   -5.7625   -6.8811 C.ar      1 <0>        -0.1617
     25 C20         9.2944   -5.1622   -7.9119 C.ar      1 <0>        -0.0980
     26 C21        10.6763   -5.1361   -7.8871 C.ar      1 <0>        -0.1136
     27 C22        11.3596   -5.7098   -6.8313 C.ar      1 <0>        -0.0841
     28 C23        10.6611   -6.3093   -5.8000 C.ar      1 <0>        -0.1126
     29 C24         9.2791   -6.3317   -5.8227 C.ar      1 <0>        -0.0940
     30 H2          0.6233    2.7264   -9.7808 H         1 <0>         0.0592
     31 H3         -0.8537    1.8018   -9.4176 H         1 <0>         0.0598
     32 H4         -0.9755    3.4601  -10.0527 H         1 <0>         0.1082
     33 H5          0.9006    1.0787   -8.5360 H         1 <0>         0.1432
     34 H6          1.0506    2.6377   -3.8520 H         1 <0>         0.1438
     35 H7         -0.7539    5.5035   -3.9494 H         1 <0>         0.1078
     36 H8         -0.6376    3.7942   -3.4667 H         1 <0>         0.0580
     37 H9          0.8393    4.7188   -3.8299 H         1 <0>         0.0577
     38 H10         1.7480   -1.4060   -7.0558 H         1 <0>         0.0927
     39 H11         3.2285   -0.4716   -7.4146 H         1 <0>         0.0925
     40 H12         4.8574   -0.0583   -5.8047 H         1 <0>         0.0823
     41 H13         4.8574   -1.0358   -4.3172 H         1 <0>         0.0822
     42 H14         4.4958   -2.1724   -7.1255 H         1 <0>         0.0950
     43 H15         4.9736   -3.4540   -4.3944 H         1 <0>         0.0914
     44 H16         3.4699   -3.5323   -5.3452 H         1 <0>         0.1144
     45 H17         4.8199   -5.5916   -5.6435 H         1 <0>         0.1311
     46 H18         4.6840   -4.6890   -7.1710 H         1 <0>         0.1295
     47 H19         8.0378   -3.3726   -7.1131 H         1 <0>         0.1315
     48 H20         6.4957   -3.4397   -7.9984 H         1 <0>         0.1282
     49 H21         6.7664   -1.2591   -6.8507 H         1 <0>         0.1129
     50 H22         6.9359   -2.1009   -5.2906 H         1 <0>         0.0893
     51 H23         6.7334   -6.6795   -6.3867 H         1 <0>         0.1365
     52 H24         6.7449   -5.8138   -7.9420 H         1 <0>         0.1348
     53 H25         8.7606   -4.7139   -8.7368 H         1 <0>         0.1306
     54 H26        11.2221   -4.6677   -8.6928 H         1 <0>         0.1361
     55 H27        12.4393   -5.6901   -6.8123 H         1 <0>         0.1360
     56 H28        11.1949   -6.7579   -4.9753 H         1 <0>         0.1363
     57 H29         8.7332   -6.7968   -5.0151 H         1 <0>         0.1311
     58 H30         6.9482   -4.5293   -5.3123 H         1 <0>         0.4220
@<TRIPOS>BOND
     1    1    2 1
     2    1   30 1
     3    1   31 1
     4    1   32 1
     5    2    3 1
     6    3    8 ar
     7    3    4 ar
     8    4    5 ar
     9    4   33 1
    10    5   15 1
    11    5    6 ar
    12    6    7 ar
    13    6   11 1
    14    7    8 ar
    15    7   34 1
    16    8    9 1
    17    9   10 1
    18   10   35 1
    19   10   36 1
    20   10   37 1
    21   11   12 2
    22   11   13 1
    23   13   14 1
    24   13   15 1
    25   13   16 1
    26   15   38 1
    27   15   39 1
    28   16   17 1
    29   16   40 1
    30   16   41 1
    31   17   22 1
    32   17   18 1
    33   17   42 1
    34   18   19 1
    35   18   43 1
    36   18   44 1
    37   19   20 1
    38   19   45 1
    39   19   46 1
    40   20   21 1
    41   20   23 1
    42   20   58 1
    43   21   22 1
    44   21   47 1
    45   21   48 1
    46   22   49 1
    47   22   50 1
    48   23   24 1
    49   23   51 1
    50   23   52 1
    51   24   29 ar
    52   24   25 ar
    53   25   26 ar
    54   25   53 1
    55   26   27 ar
    56   26   54 1
    57   27   28 ar
    58   27   55 1
    59   28   29 ar
    60   28   56 1
    61   29   57 1
@<TRIPOS>MOLECULE
ZINC00597013
   58    61     0     0     0
SMALL
USER_CHARGES

@<TRIPOS>ATOM
      1 C1         -0.0173    1.4248    0.0099 C.3       1 <0>         0.0208
      2 O1          0.0021   -0.0041    0.0020 O.3       1 <0>        -0.2950
      3 C2          0.6051   -0.6064   -1.0545 C.ar      1 <0>         0.1532
      4 C3          1.1721    0.1632   -2.0609 C.ar      1 <0>        -0.1821
      5 C4          1.7866   -0.4410   -3.1387 C.ar      1 <0>        -0.0371
      6 C5          1.8416   -1.8340   -3.2219 C.ar      1 <0>        -0.2044
      7 C6          1.2663   -2.6106   -2.2012 C.ar      1 <0>        -0.1044
      8 C7          0.6597   -1.9984   -1.1254 C.ar      1 <0>         0.0877
      9 O2          0.1088   -2.7516   -0.1361 O.3       1 <0>        -0.3011
     10 C8          0.2013   -4.1710   -0.2735 C.3       1 <0>         0.0231
     11 C9          2.5389   -2.2531   -4.4456 C.2       1 <0>         0.4182
     12 O3          2.7420   -3.3976   -4.7923 O.2       1 <0>        -0.4477
     13 C10         2.9584   -1.0129   -5.1966 C.3       1 <0>        -0.1391
     14 H1          4.0434   -0.9806   -5.2959 H         1 <0>         0.1138
     15 C11         2.4673    0.1645   -4.3432 C.3       1 <0>        -0.0780
     16 C12         2.2994   -0.9808   -6.5770 C.3       1 <0>        -0.0982
     17 C13         2.8476   -2.1260   -7.4307 C.3       1 <0>        -0.1155
     18 C14         4.3380   -1.8972   -7.6982 C.3       1 <0>        -0.1415
     19 C15         4.8612   -3.0029   -8.6175 C.3       1 <0>        -0.0066
     20 N1          4.1252   -2.9777   -9.8872 N.4       1 <0>        -0.3801
     21 C16         2.7066   -3.2675   -9.6464 C.3       1 <0>        -0.0118
     22 C17         2.1004   -2.1720   -8.7666 C.3       1 <0>        -0.1383
     23 C18         4.6828   -3.9891  -10.7949 C.3       1 <0>         0.0438
     24 C19         4.0113   -3.8820  -12.1398 C.ar      1 <0>        -0.1605
     25 C20         2.8641   -4.6083  -12.3993 C.ar      1 <0>        -0.0978
     26 C21         2.2481   -4.5101  -13.6329 C.ar      1 <0>        -0.1135
     27 C22         2.7790   -3.6851  -14.6068 C.ar      1 <0>        -0.0847
     28 C23         3.9256   -2.9580  -14.3470 C.ar      1 <0>        -0.1130
     29 C24         4.5392   -3.0530  -13.1119 C.ar      1 <0>        -0.0942
     30 H2          1.0053    1.8021    0.0021 H         1 <0>         0.0608
     31 H3         -0.5445    1.7859   -0.8732 H         1 <0>         0.0604
     32 H4         -0.5275    1.7763    0.9067 H         1 <0>         0.1088
     33 H5          1.1317    1.2407   -2.0004 H         1 <0>         0.1449
     34 H6          1.3038   -3.6885   -2.2575 H         1 <0>         0.1426
     35 H7         -0.2763   -4.6506    0.5809 H         1 <0>         0.1075
     36 H8         -0.2996   -4.4806   -1.1908 H         1 <0>         0.0566
     37 H9          1.2502   -4.4644   -0.3155 H         1 <0>         0.0572
     38 H10         1.7583    0.7678   -4.9101 H         1 <0>         0.0961
     39 H11         3.3123    0.7764   -4.0277 H         1 <0>         0.0964
     40 H12         1.2208   -1.0934   -6.4674 H         1 <0>         0.0800
     41 H13         2.5179   -0.0293   -7.0618 H         1 <0>         0.0849
     42 H14         2.7114   -3.0706   -6.9042 H         1 <0>         0.1081
     43 H15         4.4772   -0.9286   -8.1782 H         1 <0>         0.0886
     44 H16         4.8846   -1.9188   -6.7553 H         1 <0>         0.1118
     45 H17         5.9222   -2.8432   -8.8098 H         1 <0>         0.1305
     46 H18         4.7218   -3.9711   -8.1364 H         1 <0>         0.1303
     47 H19         2.1768   -3.3031  -10.5983 H         1 <0>         0.1310
     48 H20         2.6131   -4.2300   -9.1434 H         1 <0>         0.1282
     49 H21         1.0476   -2.3899   -8.5875 H         1 <0>         0.1106
     50 H22         2.1932   -1.2090   -9.2688 H         1 <0>         0.0874
     51 H23         5.7540   -3.8234  -10.9095 H         1 <0>         0.1365
     52 H24         4.5111   -4.9828  -10.3812 H         1 <0>         0.1348
     53 H25         2.4494   -5.2529  -11.6384 H         1 <0>         0.1308
     54 H26         1.3522   -5.0781  -13.8359 H         1 <0>         0.1360
     55 H27         2.2981   -3.6088  -15.5708 H         1 <0>         0.1358
     56 H28         4.3405   -2.3138  -15.1080 H         1 <0>         0.1360
     57 H29         5.4329   -2.4822  -12.9076 H         1 <0>         0.1309
     58 H30         4.2142   -2.0651  -10.3083 H         1 <0>         0.4207
@<TRIPOS>BOND
     1    1    2 1
     2    1   30 1
     3    1   31 1
     4    1   32 1
     5    2    3 1
     6    3    8 ar
     7    3    4 ar
     8    4    5 ar
     9    4   33 1
    10    5   15 1
    11    5    6 ar
    12    6    7 ar
    13    6   11 1
    14    7    8 ar
    15    7   34 1
    16    8    9 1
    17    9   10 1
    18   10   35 1
    19   10   36 1
    20   10   37 1
    21   11   12 2
    22   11   13 1
    23   13   14 1
    24   13   15 1
    25   13   16 1
    26   15   38 1
    27   15   39 1
    28   16   17 1
    29   16   40 1
    30   16   41 1
    31   17   22 1
    32   17   18 1
    33   17   42 1
    34   18   19 1
    35   18   43 1
    36   18   44 1
    37   19   20 1
    38   19   45 1
    39   19   46 1
    40   20   21 1
    41   20   23 1
    42   20   58 1
    43   21   22 1
    44   21   47 1
    45   21   48 1
    46   22   49 1
    47   22   50 1
    48   23   24 1
    49   23   51 1
    50   23   52 1
    51   24   29 ar
    52   24   25 ar
    53   25   26 ar
    54   25   53 1
    55   26   27 ar
    56   26   54 1
    57   27   28 ar
    58   27   55 1
    59   28   29 ar
    60   28   56 1
    61   29   57 1
@<TRIPOS>MOLECULE
ZINC04257702
   27    29     0     0     0
SMALL
USER_CHARGES

@<TRIPOS>ATOM
      1 C1         -0.0164    1.3583    0.0095 C.ar      1 <0>        -0.1096
      2 C2          1.1702    2.0876    0.0021 C.ar      1 <0>        -0.0295
      3 C3          2.3789    1.4619   -0.0126 C.ar      1 <0>        -0.1465
      4 C4          2.4378    0.0572   -0.0196 C.ar      1 <0>         0.1783
      5 C5          1.2297   -0.6802   -0.0128 C.ar      1 <0>        -0.1339
      6 C6          0.0021   -0.0041    0.0020 C.ar      1 <0>        -0.0595
      7 C7          1.2951   -2.0928   -0.0213 C.ar      1 <0>         0.3684
      8 C8          2.5476   -2.6891   -0.0341 C.ar      1 <0>        -0.2376
      9 C9          3.6902   -1.8995   -0.0392 C.ar      1 <0>         0.2398
     10 N1          3.6096   -0.5836   -0.0321 N.ar      1 <0>        -0.5012
     11 C10         4.9173   -2.7903   -0.0531 C.3       1 <0>        -0.0975
     12 C11         4.4149   -4.1811    0.3868 C.3       1 <0>        -0.1153
     13 C12         2.9333   -4.1521   -0.0440 C.3       1 <0>        -0.0720
     14 N2          0.1403   -2.8601   -0.0165 N.pl3     1 <0>        -0.7981
     15 H1         -0.9625    1.8789    0.0259 H         1 <0>         0.1523
     16 H2          1.1306    3.1669    0.0077 H         1 <0>         0.1554
     17 H3          3.2895    2.0424   -0.0191 H         1 <0>         0.1562
     18 H4         -0.9240   -0.5598    0.0075 H         1 <0>         0.1466
     19 H5          5.3365   -2.8403   -1.0581 H         1 <0>         0.1241
     20 H6          5.6625   -2.4179    0.6498 H         1 <0>         0.1116
     21 H7          4.9547   -4.9708   -0.1358 H         1 <0>         0.1041
     22 H8          4.5019   -4.3004    1.4668 H         1 <0>         0.0906
     23 H9          2.3220   -4.7093    0.6658 H         1 <0>         0.0905
     24 H10         2.8226   -4.5658   -1.0463 H         1 <0>         0.0968
     25 H11        -0.7285   -2.4288   -0.0072 H         1 <0>         0.4209
     26 H12         0.2011   -3.8281   -0.0225 H         1 <0>         0.4263
     27 H13         4.4285   -0.0636   -0.0366 H         1 <0>         0.4388
@<TRIPOS>BOND
     1    1    6 ar
     2    1    2 ar
     3    1   15 1
     4    2    3 ar
     5    2   16 1
     6    3    4 ar
     7    3   17 1
     8    4   10 ar
     9    4    5 ar
    10    5    6 ar
    11    5    7 ar
    12    6   18 1
    13    7    8 ar
    14    7   14 1
    15    8   13 1
    16    8    9 ar
    17    9   10 ar
    18    9   11 1
    19   10   27 1
    20   11   12 1
    21   11   19 1
    22   11   20 1
    23   12   13 1
    24   12   21 1
    25   12   22 1
    26   13   23 1
    27   13   24 1
    28   14   25 1
    29   14   26 1
@<TRIPOS>MOLECULE
ZINC01660914
   36    38     0     0     0
SMALL
USER_CHARGES
BLAHamine
@<TRIPOS>ATOM
      1 C1          1.1633    1.7647    0.0004 C.ar      1 <0>        -0.1185
      2 C2          1.1773    3.1569    0.0127 C.ar      1 <0>        -0.0243
      3 C3          0.0159    3.8672    0.0284 C.ar      1 <0>        -0.1574
      4 C4         -1.2144    3.1899    0.0268 C.ar      1 <0>         0.1905
      5 C5         -1.2284    1.7742    0.0175 C.ar      1 <0>        -0.1433
      6 C6         -0.0126    1.0755    0.0080 C.ar      1 <0>        -0.0545
      7 C7         -2.4709    1.1151    0.0281 C.ar      1 <0>         0.3574
      8 C8         -3.6692    1.8604    0.0363 C.ar      1 <0>        -0.1876
      9 C9         -3.5504    3.2343    0.0256 C.ar      1 <0>         0.2702
     10 C10        -4.7325    4.1719    0.0120 C.3       1 <0>        -0.1207
     11 C11        -5.3109    4.2403   -1.3995 C.3       1 <0>        -0.1196
     12 C12        -5.6630    2.8480   -1.9066 C.3       1 <0>        -0.1303
     13 C13        -6.7338    2.3661   -0.9545 C.3       1 <0>        -0.1330
     14 C14        -6.2240    1.6563    0.2863 C.3       1 <0>        -0.1192
     15 C15        -4.8869    0.9723    0.0447 C.3       1 <0>        -0.0689
     16 N1         -2.5154   -0.2719    0.0256 N.pl3     1 <0>        -0.7954
     17 H1          2.0972    1.2222   -0.0165 H         1 <0>         0.1507
     18 H2          2.1218    3.6804    0.0080 H         1 <0>         0.1532
     19 H3          0.0404    4.9468    0.0406 H         1 <0>         0.1540
     20 H4          0.0021   -0.0041    0.0020 H         1 <0>         0.1460
     21 H5         -5.4872    3.8578    0.7227 H         1 <0>         0.1236
     22 H6         -4.3872    5.1742    0.3002 H         1 <0>         0.0945
     23 H7         -6.2105    4.8599   -1.3926 H         1 <0>         0.0921
     24 H8         -4.5767    4.6929   -2.0697 H         1 <0>         0.0665
     25 H9         -6.0674    2.9134   -2.9231 H         1 <0>         0.0794
     26 H10        -4.7956    2.1951   -1.9035 H         1 <0>         0.0722
     27 H11        -7.3332    3.2248   -0.6426 H         1 <0>         0.0719
     28 H12        -7.3921    1.6809   -1.4973 H         1 <0>         0.0654
     29 H13        -6.1458    2.3501    1.1188 H         1 <0>         0.0715
     30 H14        -6.9586    0.8881    0.5684 H         1 <0>         0.0808
     31 H15        -4.7596    0.2205    0.8321 H         1 <0>         0.0828
     32 H16        -4.9367    0.4434   -0.9097 H         1 <0>         0.0902
     33 H17        -3.3705   -0.7297    0.0293 H         1 <0>         0.4264
     34 H18        -1.6913   -0.7835    0.0200 H         1 <0>         0.4212
     35 N2         -2.3714    3.9322    0.0264 N.ar      1 <0>        -0.5524
     36 H19        -2.3530    4.9588    0.0268 H         1 <0>         0.4646
@<TRIPOS>BOND
     1    1    6 ar
     2    1    2 ar
     3    1   17 1
     4    2    3 ar
     5    2   18 1
     6    3    4 ar
     7    3   19 1
     8    4    5 ar
     9    4   35 ar
    10    5    6 ar
    11    5    7 ar
    12    6   20 1
    13    7    8 ar
    14    7   16 1
    15    8   15 1
    16    8    9 ar
    17    9   10 1
    18    9   35 ar
    19   10   11 1
    20   10   21 1
    21   10   22 1
    22   11   12 1
    23   11   23 1
    24   11   24 1
    25   12   13 1
    26   12   25 1
    27   12   26 1
    28   13   14 1
    29   13   27 1
    30   13   28 1
    31   14   15 1
    32   14   29 1
    33   14   30 1
    34   15   31 1
    35   15   32 1
    36   16   33 1
    37   16   34 1
    38   35   36 1
@<TRIPOS>MOLECULE
ZINC02010406
   54    56     0     0     0
SMALL
USER_CHARGES
2-[1-[2-[[5-(1-piperidylmethyl)-2-furyl]methylamino]ethyl]imidazolidin-2-ylidene]propanedinitrile
@<TRIPOS>ATOM
      1 C1         -0.9215    1.5612    1.3558 C.2       1 <0>        -0.1361
      2 C2          0.1901    0.7280    1.6188 C.2       1 <0>        -0.1490
      3 C3          1.2697    1.5277    1.6843 C.2       1 <0>        -0.0511
      4 O1          0.8723    2.7946    1.4819 O.3       1 <0>        -0.1589
      5 C4         -0.4560    2.8213    1.2859 C.2       1 <0>        -0.0644
      6 C5         -1.2839    4.0534    1.0256 C.3       1 <0>         0.0932
      7 C6         -2.5625    5.8137    2.0881 C.3       1 <0>        -0.0374
      8 C7         -3.0289    6.3620    3.4382 C.3       1 <0>         0.1089
      9 N1         -3.8390    7.5637    3.2237 N.pl3     1 <0>        -0.6032
     10 C8         -3.3460    8.9468    3.2887 C.3       1 <0>         0.0874
     11 C9         -4.5869    9.8077    2.9880 C.3       1 <0>         0.0805
     12 N2         -5.6671    8.8311    2.7895 N.pl3     1 <0>        -0.6921
     13 C10        -5.1663    7.5781    2.9390 C.2       1 <0>         0.5640
     14 C11        -5.9381    6.4218    2.8134 C.2       1 <0>        -0.2493
     15 C12        -7.3568    6.5224    2.6472 C.1       1 <0>         0.2665
     16 N3         -8.4823    6.6022    2.5154 N.1       1 <0>        -0.4158
     17 C13        -5.3110    5.1349    2.8508 C.1       1 <0>         0.3252
     18 N4         -4.8136    4.1140    2.8804 N.1       1 <0>        -0.5023
     19 C14         2.6849    1.0785    1.9420 C.3       1 <0>         0.0861
     20 C15         2.7174   -0.3802    0.0103 C.3       1 <0>        -0.0096
     21 C16         3.3295   -0.5758   -1.3786 C.3       1 <0>        -0.1457
     22 C17         4.8380   -0.7989   -1.2394 C.3       1 <0>        -0.1415
     23 C18         5.4580    0.3977   -0.5126 C.3       1 <0>        -0.1476
     24 C19         4.7842    0.5650    0.8512 C.3       1 <0>        -0.0023
     25 H1         -1.9478    1.2466    1.2369 H         1 <0>         0.1781
     26 H2          0.1758   -0.3452    1.7393 H         1 <0>         0.1762
     27 H3         -0.6774    4.7956    0.5066 H         1 <0>         0.1539
     28 H4         -2.1430    3.7902    0.4086 H         1 <0>         0.1669
     29 H5         -1.9650    6.5682    1.5764 H         1 <0>         0.1459
     30 H6         -3.4305    5.5628    1.4784 H         1 <0>         0.1414
     31 H7         -3.6265    5.6076    3.9499 H         1 <0>         0.1165
     32 H8         -2.1609    6.6130    4.0479 H         1 <0>         0.1211
     33 H9         -2.9591    9.1672    4.2836 H         1 <0>         0.1049
     34 H10        -2.5771    9.1132    2.5343 H         1 <0>         0.0991
     35 H11        -4.4356   10.3976    2.0840 H         1 <0>         0.1073
     36 H12        -4.8106   10.4566    3.8347 H         1 <0>         0.1071
     37 H13        -6.5903    9.0472    2.5845 H         1 <0>         0.4494
     38 H14         3.2305    1.8717    2.4531 H         1 <0>         0.1501
     39 H15         2.6745    0.1846    2.5656 H         1 <0>         0.1656
     40 H16         2.8880   -1.2734    0.6114 H         1 <0>         0.1363
     41 H17         1.6456   -0.2069   -0.0863 H         1 <0>         0.1239
     42 H18         3.1473    0.3116   -1.9848 H         1 <0>         0.0862
     43 H19         2.8760   -1.4437   -1.8573 H         1 <0>         0.1153
     44 H20         5.2848   -0.8955   -2.2289 H         1 <0>         0.0980
     45 H21         5.0204   -1.7078   -0.6661 H         1 <0>         0.0851
     46 H22         5.3093    1.3004   -1.1052 H         1 <0>         0.0878
     47 H23         6.5252    0.2253   -0.3725 H         1 <0>         0.1178
     48 H24         5.2136    1.4249    1.3654 H         1 <0>         0.1319
     49 H25         4.9451   -0.3326    1.4484 H         1 <0>         0.1364
     50 N5         -1.7481    4.6046    2.3127 N.4       1 <0>        -0.5177
     51 H26        -0.9346    4.8467    2.8905 H         1 <0>         0.4351
     52 H27        -2.3151    3.8997    2.7983 H         1 <0>         0.4428
     53 N6          3.3392    0.8006    0.6468 N.4       1 <0>        -0.3958
     54 H28         3.2181    1.6132    0.0310 H         1 <0>         0.4278
@<TRIPOS>BOND
     1    1    5 2
     2    1    2 1
     3    1   25 1
     4    2    3 2
     5    2   26 1
     6    3    4 1
     7    3   19 1
     8    4    5 1
     9    5    6 1
    10    6   27 1
    11    6   28 1
    12    6   50 1
    13    7    8 1
    14    7   29 1
    15    7   30 1
    16    7   50 1
    17    8    9 1
    18    8   31 1
    19    8   32 1
    20    9   13 1
    21    9   10 1
    22   10   11 1
    23   10   33 1
    24   10   34 1
    25   11   12 1
    26   11   35 1
    27   11   36 1
    28   12   13 1
    29   12   37 1
    30   13   14 2
    31   14   15 1
    32   14   17 1
    33   15   16 3
    34   17   18 3
    35   19   38 1
    36   19   39 1
    37   19   53 1
    38   20   21 1
    39   20   40 1
    40   20   41 1
    41   20   53 1
    42   21   22 1
    43   21   42 1
    44   21   43 1
    45   22   23 1
    46   22   44 1
    47   22   45 1
    48   23   24 1
    49   23   46 1
    50   23   47 1
    51   24   48 1
    52   24   49 1
    53   24   53 1
    54   50   51 1
    55   50   52 1
    56   53   54 1
@<TRIPOS>MOLECULE
ZINC13734750
   67    71     0     0     0
SMALL
USER_CHARGES
N-[2-(1-benzyl-4-piperidyl)ethylcarbamothioyl]-9,10-dioxo-anthracene-2-carboxamide
@<TRIPOS>ATOM
      1 C1         -6.3603   20.7540    5.5280 C.ar      1 <0>        -0.0838
      2 C2         -5.4040   20.7182    4.5305 C.ar      1 <0>        -0.1131
      3 C3         -5.7614   20.3656    3.2426 C.ar      1 <0>        -0.0964
      4 C4         -7.0754   20.0492    2.9520 C.ar      1 <0>        -0.1637
      5 C5         -8.0328   20.0905    3.9483 C.ar      1 <0>        -0.0950
      6 C6         -7.6743   20.4376    5.2374 C.ar      1 <0>        -0.1135
      7 C7         -7.4651   19.6652    1.5479 C.3       1 <0>         0.0490
      8 C8         -7.9282   17.7698    0.1148 C.3       1 <0>        -0.0014
      9 C9         -7.9069   16.2412    0.0446 C.3       1 <0>        -0.1423
     10 C10        -6.4605   15.7503    0.1528 C.3       1 <0>        -0.0943
     11 C11        -5.8521   16.2638    1.4607 C.3       1 <0>        -0.1485
     12 C12        -5.9330   17.7918    1.4900 C.3       1 <0>        -0.0068
     13 C13        -6.4378   14.2205    0.1444 C.3       1 <0>        -0.1316
     14 C14        -4.9880   13.7320    0.1268 C.3       1 <0>         0.1180
     15 N1         -4.9663   12.2672    0.1187 N.pl3     1 <0>        -0.6792
     16 C15        -3.7893   11.6108    0.1031 C.2       1 <0>         0.5154
     17 S1         -2.3196   12.4888    0.0927 S.2       1 <0>        -0.4993
     18 N2         -3.7693   10.2632    0.0956 N.am      1 <0>        -0.6424
     19 C16        -2.5923    9.6068    0.0799 C.2       1 <0>         0.5344
     20 O1         -1.5492   10.2299    0.0726 O.2       1 <0>        -0.3862
     21 C17        -2.5703    8.1275    0.0717 C.ar      1 <0>        -0.1185
     22 C18        -3.7689    7.4130    0.0797 C.ar      1 <0>        -0.0712
     23 C19        -3.7561    6.0309    0.0717 C.ar      1 <0>        -0.0729
     24 C20        -2.5454    5.3439    0.0556 C.ar      1 <0>        -0.0855
     25 C21        -1.3335    6.0584    0.0474 C.ar      1 <0>        -0.1170
     26 C22        -1.3506    7.4488    0.0555 C.ar      1 <0>        -0.0062
     27 C23        -0.0462    5.3319    0.0307 C.2       1 <0>         0.4337
     28 O2          1.0003    5.9492    0.0233 O.2       1 <0>        -0.4161
     29 C24        -0.0333    3.8541    0.0226 C.ar      1 <0>        -0.1196
     30 C25         1.1750    3.1631    0.0074 C.ar      1 <0>        -0.0661
     31 C26         1.1782    1.7791    0.0004 C.ar      1 <0>        -0.0935
     32 C27        -0.0126    1.0758    0.0080 C.ar      1 <0>        -0.0959
     33 C28        -1.2228    1.7469    0.0174 C.ar      1 <0>        -0.0653
     34 C29        -1.2443    3.1390    0.0308 C.ar      1 <0>        -0.1244
     35 C30        -2.5316    3.8638    0.0480 C.2       1 <0>         0.4338
     36 O3         -3.5774    3.2458    0.0547 O.2       1 <0>        -0.4194
     37 H1         -6.0809   21.0289    6.5344 H         1 <0>         0.1360
     38 H2         -4.3775   20.9654    4.7575 H         1 <0>         0.1365
     39 H3         -5.0143   20.3376    2.4633 H         1 <0>         0.1314
     40 H4         -9.0601   19.8476    3.7204 H         1 <0>         0.1305
     41 H5         -8.4214   20.4653    6.0168 H         1 <0>         0.1358
     42 H6         -6.8100   20.1701    0.8380 H         1 <0>         0.1366
     43 H7         -8.4978   19.9615    1.3635 H         1 <0>         0.1345
     44 H8         -7.3534   18.1796   -0.7157 H         1 <0>         0.1319
     45 H9         -8.9579   18.1219    0.0524 H         1 <0>         0.1294
     46 H10        -8.3319   15.9146   -0.9045 H         1 <0>         0.1135
     47 H11        -8.4929   15.8309    0.8669 H         1 <0>         0.0887
     48 H12        -5.8836   16.1279   -0.6913 H         1 <0>         0.0975
     49 H13        -6.4058   15.8539    2.3054 H         1 <0>         0.0886
     50 H14        -4.8091   15.9534    1.5235 H         1 <0>         0.1176
     51 H15        -5.3675   18.2015    0.6530 H         1 <0>         0.1317
     52 H16        -5.5135   18.1598    2.4263 H         1 <0>         0.1301
     53 H17        -6.9553   13.8544   -0.7423 H         1 <0>         0.0835
     54 H18        -6.9370   13.8448    1.0375 H         1 <0>         0.0784
     55 H19        -4.4705   14.0982    1.0135 H         1 <0>         0.0906
     56 H20        -4.4888   14.1078   -0.7663 H         1 <0>         0.0927
     57 H21        -5.7990   11.7698    0.1246 H         1 <0>         0.3987
     58 H22        -4.6020    9.7658    0.1015 H         1 <0>         0.4091
     59 H23        -4.7104    7.9421    0.0926 H         1 <0>         0.1363
     60 H24        -4.6869    5.4831    0.0780 H         1 <0>         0.1547
     61 H25        -0.4230    8.0019    0.0490 H         1 <0>         0.1625
     62 H26         2.1085    3.7061    0.0014 H         1 <0>         0.1464
     63 H27         2.1167    1.2448   -0.0115 H         1 <0>         0.1418
     64 H28         0.0021   -0.0041    0.0020 H         1 <0>         0.1416
     65 H29        -2.1491    1.1916    0.0188 H         1 <0>         0.1455
     66 N3         -7.3517   18.1988    1.4070 N.4       1 <0>        -0.3925
     67 H30        -7.8722   17.7494    2.1694 H         1 <0>         0.4251
@<TRIPOS>BOND
     1    1    6 ar
     2    1    2 ar
     3    1   37 1
     4    2    3 ar
     5    2   38 1
     6    3    4 ar
     7    3   39 1
     8    4    5 ar
     9    4    7 1
    10    5    6 ar
    11    5   40 1
    12    6   41 1
    13    7   42 1
    14    7   43 1
    15    7   66 1
    16    8    9 1
    17    8   44 1
    18    8   45 1
    19    8   66 1
    20    9   10 1
    21    9   46 1
    22    9   47 1
    23   10   11 1
    24   10   13 1
    25   10   48 1
    26   11   12 1
    27   11   49 1
    28   11   50 1
    29   12   51 1
    30   12   52 1
    31   12   66 1
    32   13   14 1
    33   13   53 1
    34   13   54 1
    35   14   15 1
    36   14   55 1
    37   14   56 1
    38   15   16 1
    39   15   57 1
    40   16   17 2
    41   16   18 1
    42   18   19 am
    43   18   58 1
    44   19   20 2
    45   19   21 1
    46   21   26 ar
    47   21   22 ar
    48   22   23 ar
    49   22   59 1
    50   23   24 ar
    51   23   60 1
    52   24   35 1
    53   24   25 ar
    54   25   26 ar
    55   25   27 1
    56   26   61 1
    57   27   28 2
    58   27   29 1
    59   29   34 ar
    60   29   30 ar
    61   30   31 ar
    62   30   62 1
    63   31   32 ar
    64   31   63 1
    65   32   33 ar
    66   32   64 1
    67   33   34 ar
    68   33   65 1
    69   34   35 1
    70   35   36 2
    71   66   67 1
@<TRIPOS>MOLECULE
ZINC00016827
   30    32     0     0     0
SMALL
USER_CHARGES
1,2,3,4-tetrahydroacridin-9-amine
@<TRIPOS>ATOM
      1 C1         -2.2590   -4.1734    0.7266 C.ar      1 <0>        -0.1151
      2 C2         -1.1015   -4.8453    0.3414 C.ar      1 <0>        -0.0282
      3 C3          0.0181   -4.1626   -0.0240 C.ar      1 <0>        -0.1547
      4 C4          0.0125   -2.7569   -0.0146 C.ar      1 <0>         0.1855
      5 C5         -1.1660   -2.0778    0.3770 C.ar      1 <0>        -0.1377
      6 C6         -2.3011   -2.8116    0.7474 C.ar      1 <0>        -0.0565
      7 C7         -1.1623   -0.6653    0.3817 C.ar      1 <0>         0.3675
      8 C8          0.0021   -0.0041    0.0020 C.ar      1 <0>        -0.2105
      9 C9          1.1175   -0.7361   -0.3646 C.ar      1 <0>         0.2712
     10 C10         2.4120   -0.0754   -0.7701 C.3       1 <0>        -0.1168
     11 C11         2.1762    1.3865   -1.1417 C.3       1 <0>        -0.1213
     12 C12         1.4039    2.0583   -0.0003 C.3       1 <0>        -0.1267
     13 C13        -0.0183    1.5015    0.0103 C.3       1 <0>        -0.0727
     14 N1         -2.2920    0.0458    0.7563 N.pl3     1 <0>        -0.7940
     15 H1         -3.1340   -4.7385    1.0119 H         1 <0>         0.1511
     16 H2         -1.0919   -5.9252    0.3327 H         1 <0>         0.1529
     17 H3          0.9072   -4.6991   -0.3207 H         1 <0>         0.1539
     18 H4         -3.2041   -2.3007    1.0473 H         1 <0>         0.1465
     19 H5          3.1167   -0.1260    0.0600 H         1 <0>         0.1184
     20 H6          2.8304   -0.6013   -1.6283 H         1 <0>         0.1086
     21 H7          3.1338    1.8881   -1.2812 H         1 <0>         0.0939
     22 H8          1.5929    1.4414   -2.0609 H         1 <0>         0.0797
     23 H9          1.3752    3.1361   -0.1607 H         1 <0>         0.0897
     24 H10         1.8906    1.8408    0.9505 H         1 <0>         0.0760
     25 H11        -0.5506    1.8586   -0.8713 H         1 <0>         0.0921
     26 H12        -0.5337    1.8490    0.9057 H         1 <0>         0.0852
     27 H13        -2.2768    1.0157    0.7558 H         1 <0>         0.4265
     28 H14        -3.0975   -0.4265    1.0190 H         1 <0>         0.4221
     29 N2          1.1637   -2.1007   -0.3898 N.ar      1 <0>        -0.5514
     30 H15         2.0097   -2.6092   -0.6727 H         1 <0>         0.4649
@<TRIPOS>BOND
     1    1    6 ar
     2    1    2 ar
     3    1   15 1
     4    2    3 ar
     5    2   16 1
     6    3    4 ar
     7    3   17 1
     8    4    5 ar
     9    4   29 ar
    10    5    6 ar
    11    5    7 ar
    12    6   18 1
    13    7    8 ar
    14    7   14 1
    15    8   13 1
    16    8    9 ar
    17    9   10 1
    18    9   29 ar
    19   10   11 1
    20   10   19 1
    21   10   20 1
    22   11   12 1
    23   11   21 1
    24   11   22 1
    25   12   13 1
    26   12   23 1
    27   12   24 1
    28   13   25 1
    29   13   26 1
    30   14   27 1
    31   14   28 1
    32   29   30 1
@<TRIPOS>MOLECULE
ZINC14947264
   70    75     0     0     0
SMALL
USER_CHARGES
N,N'-bis(1,2,3,4-tetrahydroacridin-9-yl)butane-1,4-diamine
@<TRIPOS>ATOM
      1 C1         -0.7880    7.2581   -3.4701 C.ar      1 <0>        -0.0960
      2 C2         -0.6937    7.9304   -2.2540 C.ar      1 <0>        -0.0300
      3 C3         -0.8013    7.2629   -1.0726 C.ar      1 <0>        -0.1473
      4 C4         -1.0120    5.8730   -1.0730 C.ar      1 <0>         0.1643
      5 C5         -1.1091    5.1938   -2.3110 C.ar      1 <0>        -0.1231
      6 C6         -0.9925    5.9115   -3.5089 C.ar      1 <0>        -0.0746
      7 C7         -1.3240    3.7976   -2.3009 C.ar      1 <0>         0.2724
      8 C8         -1.4302    3.1520   -1.0726 C.ar      1 <0>        -0.1180
      9 C9         -1.3200    3.8825    0.0975 C.ar      1 <0>         0.2596
     10 C10        -1.4110    3.2358    1.4577 C.3       1 <0>        -0.1213
     11 C11        -2.0623    1.8589    1.3562 C.3       1 <0>        -0.1223
     12 C12        -1.3315    1.0554    0.2741 C.3       1 <0>        -0.1337
     13 C13        -1.6654    1.6648   -1.0860 C.3       1 <0>        -0.0654
     14 N1         -1.4271    3.0872   -3.4870 N.pl3     1 <0>        -0.6447
     15 C14        -2.7957    3.1448   -4.0179 C.3       1 <0>         0.0615
     16 C15        -2.8992    2.2558   -5.2588 C.3       1 <0>        -0.1195
     17 C16        -4.3245    2.3158   -5.8117 C.3       1 <0>        -0.1216
     18 C17        -4.4280    1.4268   -7.0526 C.3       1 <0>         0.0599
     19 N2         -5.7965    1.4844   -7.5835 N.pl3     1 <0>        -0.6455
     20 C18        -5.9457    0.6317   -8.6665 C.ar      1 <0>         0.2727
     21 C19        -6.2160   -0.7413   -8.4736 C.ar      1 <0>        -0.1233
     22 C20        -6.3515   -1.2912   -7.1917 C.ar      1 <0>        -0.0745
     23 C21        -6.6189   -2.6201   -7.0538 C.ar      1 <0>        -0.0962
     24 C22        -6.7640   -3.4381   -8.1716 C.ar      1 <0>        -0.0302
     25 C23        -6.6431   -2.9347   -9.4305 C.ar      1 <0>        -0.1472
     26 C24        -6.3680   -1.5681   -9.6122 C.ar      1 <0>         0.1645
     27 C25        -5.9807    0.2367  -11.0334 C.ar      1 <0>         0.2590
     28 C26        -5.8268    1.1074   -9.9689 C.ar      1 <0>        -0.1161
     29 C27        -5.5365    2.5737  -10.1504 C.3       1 <0>        -0.0644
     30 C28        -5.0211    2.8485  -11.5617 C.3       1 <0>        -0.1335
     31 C29        -5.9918    2.2100  -12.5620 C.3       1 <0>        -0.1234
     32 C30        -5.8549    0.6924  -12.4664 C.3       1 <0>        -0.1206
     33 H1         -0.6985    7.8110   -4.3936 H         1 <0>         0.1545
     34 H2         -0.5323    8.9983   -2.2482 H         1 <0>         0.1576
     35 H3         -0.7254    7.7992   -0.1382 H         1 <0>         0.1573
     36 H4         -1.0635    5.4001   -4.4575 H         1 <0>         0.1484
     37 H5         -0.4087    3.1288    1.8726 H         1 <0>         0.1245
     38 H6         -2.0065    3.8675    2.1168 H         1 <0>         0.1128
     39 H7         -3.1122    1.9695    1.0849 H         1 <0>         0.0792
     40 H8         -1.9824    1.3431    2.3131 H         1 <0>         0.0973
     41 H9         -1.6613    0.0169    0.3022 H         1 <0>         0.0914
     42 H10        -0.2560    1.1039    0.4442 H         1 <0>         0.0766
     43 H11        -1.0348    1.2081   -1.8489 H         1 <0>         0.1063
     44 H12        -2.7116    1.4685   -1.3207 H         1 <0>         0.0914
     45 H13        -0.7610    3.4209   -4.1675 H         1 <0>         0.3763
     46 H14        -3.4947    2.7926   -3.2593 H         1 <0>         0.0903
     47 H15        -3.0383    4.1730   -4.2863 H         1 <0>         0.0577
     48 H16        -2.2001    2.6079   -6.0174 H         1 <0>         0.0758
     49 H17        -2.6565    1.2276   -4.9904 H         1 <0>         0.0840
     50 H18        -5.0236    1.9636   -5.0532 H         1 <0>         0.0744
     51 H19        -4.5671    3.3440   -6.0801 H         1 <0>         0.0848
     52 H20        -3.7289    1.7790   -7.8112 H         1 <0>         0.0925
     53 H21        -4.1854    0.3986   -6.7843 H         1 <0>         0.0562
     54 H22        -6.4726    1.2766   -6.8639 H         1 <0>         0.3761
     55 H23        -6.2409   -0.6659   -6.3181 H         1 <0>         0.1480
     56 H24        -6.7193   -3.0444   -6.0656 H         1 <0>         0.1541
     57 H25        -6.9753   -4.4887   -8.0375 H         1 <0>         0.1575
     58 H26        -6.7586   -3.5827  -10.2867 H         1 <0>         0.1574
     59 H27        -6.4502    3.1443   -9.9841 H         1 <0>         0.1005
     60 H28        -4.7828    2.8832   -9.4264 H         1 <0>         0.0974
     61 H29        -4.9726    3.9240  -11.7321 H         1 <0>         0.0919
     62 H30        -4.0293    2.4126  -11.6819 H         1 <0>         0.0739
     63 H31        -7.0134    2.5018  -12.3184 H         1 <0>         0.0817
     64 H32        -5.7474    2.5402  -13.5716 H         1 <0>         0.0975
     65 H33        -6.6370    0.2228  -13.0628 H         1 <0>         0.1134
     66 H34        -4.8804    0.3946  -12.8533 H         1 <0>         0.1235
     67 N3         -1.1159    5.2319    0.1415 N.ar      1 <0>        -0.5129
     68 H35        -1.0439    5.7404    1.0306 H         1 <0>         0.4706
     69 N4         -6.2524   -1.0948  -10.9005 N.ar      1 <0>        -0.5124
     70 H36        -6.3644   -1.7091  -11.7156 H         1 <0>         0.4708
@<TRIPOS>BOND
     1    1    6 ar
     2    1    2 ar
     3    1   33 1
     4    2    3 ar
     5    2   34 1
     6    3    4 ar
     7    3   35 1
     8    4    5 ar
     9    4   67 ar
    10    5    6 ar
    11    5    7 ar
    12    6   36 1
    13    7    8 ar
    14    7   14 1
    15    8   13 1
    16    8    9 ar
    17    9   10 1
    18    9   67 ar
    19   10   11 1
    20   10   37 1
    21   10   38 1
    22   11   12 1
    23   11   39 1
    24   11   40 1
    25   12   13 1
    26   12   41 1
    27   12   42 1
    28   13   43 1
    29   13   44 1
    30   14   15 1
    31   14   45 1
    32   15   16 1
    33   15   46 1
    34   15   47 1
    35   16   17 1
    36   16   48 1
    37   16   49 1
    38   17   18 1
    39   17   50 1
    40   17   51 1
    41   18   19 1
    42   18   52 1
    43   18   53 1
    44   19   20 1
    45   19   54 1
    46   20   28 ar
    47   20   21 ar
    48   21   26 ar
    49   21   22 ar
    50   22   23 ar
    51   22   55 1
    52   23   24 ar
    53   23   56 1
    54   24   25 ar
    55   24   57 1
    56   25   26 ar
    57   25   58 1
    58   26   69 ar
    59   27   32 1
    60   27   28 ar
    61   27   69 ar
    62   28   29 1
    63   29   30 1
    64   29   59 1
    65   29   60 1
    66   30   31 1
    67   30   61 1
    68   30   62 1
    69   31   32 1
    70   31   63 1
    71   31   64 1
    72   32   65 1
    73   32   66 1
    74   67   68 1
    75   69   70 1
@<TRIPOS>MOLECULE
ZINC00001792
   35    35     0     0     0
SMALL
USER_CHARGES

@<TRIPOS>ATOM
      1 C1         -2.3864   -0.1136    0.8491 C.3       1 <0>         0.0945
      2 N1         -1.1535   -0.7733    0.4119 N.am      1 <0>        -0.5903
      3 C2          0.0376   -0.7388    1.2642 C.3       1 <0>         0.0743
      4 C3         -1.1151   -1.4118   -0.7743 C.2       1 <0>         0.6463
      5 O1         -2.1030   -1.4404   -1.4812 O.2       1 <0>        -0.5504
      6 O2          0.0183   -2.0183   -1.1762 O.3       1 <0>        -0.3048
      7 C4         -0.0166   -2.7362   -2.3300 C.ar      1 <0>         0.1376
      8 C5          0.0059   -2.0847   -3.5547 C.ar      1 <0>        -0.0737
      9 C6         -0.0298   -2.8164   -4.7257 C.ar      1 <0>        -0.0768
     10 C7         -0.0882   -4.1972   -4.6780 C.ar      1 <0>        -0.0953
     11 C8         -0.1111   -4.8487   -3.4589 C.ar      1 <0>        -0.0299
     12 C9         -0.0690   -4.1215   -2.2849 C.ar      1 <0>        -0.0979
     13 N2         -0.1712   -6.2447   -3.4141 N.4       1 <0>        -0.2093
     14 C10        -0.2000   -6.7778   -4.7826 C.3       1 <0>        -0.0508
     15 C11         1.0100   -6.7633   -2.7113 C.3       1 <0>        -0.0465
     16 C12        -1.3866   -6.6599   -2.7011 C.3       1 <0>        -0.0461
     17 H1         -2.3896    0.9188    0.4997 H         1 <0>         0.0682
     18 H2         -3.2465   -0.6400    0.4353 H         1 <0>         0.0840
     19 H3         -2.4403   -0.1289    1.9377 H         1 <0>         0.0869
     20 H4          0.0305   -1.5991    1.9335 H         1 <0>         0.0651
     21 H5          0.9313   -0.7706    0.6410 H         1 <0>         0.0800
     22 H6          0.0372    0.1790    1.8522 H         1 <0>         0.0853
     23 H7          0.0508   -1.0063   -3.5925 H         1 <0>         0.1518
     24 H8         -0.0123   -2.3097   -5.6793 H         1 <0>         0.1593
     25 H9         -0.1164   -4.7676   -5.5947 H         1 <0>         0.1574
     26 H10        -0.0821   -4.6311   -1.3327 H         1 <0>         0.1508
     27 H11         0.7019   -6.4697   -5.3116 H         1 <0>         0.1266
     28 H12        -0.2468   -7.8662   -4.7476 H         1 <0>         0.1304
     29 H13        -1.0764   -6.3930   -5.3040 H         1 <0>         0.1265
     30 H14         1.0314   -6.3677   -1.6958 H         1 <0>         0.1205
     31 H15         0.9632   -7.8517   -2.6763 H         1 <0>         0.1286
     32 H16         1.9119   -6.4552   -3.2403 H         1 <0>         0.1246
     33 H17        -2.2631   -6.2751   -3.2226 H         1 <0>         0.1247
     34 H18        -1.4334   -7.7483   -2.6661 H         1 <0>         0.1289
     35 H19        -1.3652   -6.2643   -1.6857 H         1 <0>         0.1197
@<TRIPOS>BOND
     1    1    2 1
     2    1   17 1
     3    1   18 1
     4    1   19 1
     5    2    3 1
     6    2    4 am
     7    3   20 1
     8    3   21 1
     9    3   22 1
    10    4    5 2
    11    4    6 1
    12    6    7 1
    13    7   12 ar
    14    7    8 ar
    15    8    9 ar
    16    8   23 1
    17    9   10 ar
    18    9   24 1
    19   10   11 ar
    20   10   25 1
    21   11   12 ar
    22   11   13 1
    23   12   26 1
    24   13   14 1
    25   13   15 1
    26   13   16 1
    27   14   27 1
    28   14   28 1
    29   14   29 1
    30   15   30 1
    31   15   31 1
    32   15   32 1
    33   16   33 1
    34   16   34 1
    35   16   35 1
@<TRIPOS>MOLECULE
ZINC18172743
   62    67     0     0     0
SMALL
USER_CHARGES
N,N'-bis(1,2,3,4-tetrahydroacridin-9-yl)ethane-1,2-diamine
@<TRIPOS>ATOM
      1 C1         -0.7824    7.2470   -3.4677 C.ar      1 <0>        -0.1108
      2 C2         -0.6853    7.9194   -2.2519 C.ar      1 <0>        -0.1011
      3 C3         -0.7947    7.2527   -1.0702 C.ar      1 <0>        -0.0915
      4 C4         -1.0089    5.8634   -1.0699 C.ar      1 <0>         0.1438
      5 C5         -1.1071    5.1838   -2.3075 C.ar      1 <0>        -0.1316
      6 C6         -0.9899    5.9008   -3.5059 C.ar      1 <0>        -0.1056
      7 C7         -1.3233    3.7878   -2.2969 C.ar      1 <0>         0.1470
      8 C8         -1.4294    3.1427   -1.0683 C.ar      1 <0>        -0.1109
      9 C9         -1.3189    3.8737    0.1015 C.ar      1 <0>         0.1761
     10 N1         -1.1198    5.1805    0.0705 N.ar      1 <0>        -0.4869
     11 C10        -1.4104    3.2277    1.4620 C.3       1 <0>        -0.0709
     12 C11        -2.0618    1.8508    1.3610 C.3       1 <0>        -0.1204
     13 C12        -1.3310    1.0468    0.2793 C.3       1 <0>        -0.1244
     14 C13        -1.6649    1.6555   -1.0811 C.3       1 <0>        -0.0641
     15 N2         -1.4278    3.0770   -3.4827 N.pl3     1 <0>        -0.6369
     16 C14        -2.7966    3.1356   -4.0127 C.3       1 <0>         0.0649
     17 C15        -2.9017    2.2463   -5.2533 C.3       1 <0>         0.0647
     18 N3         -4.2705    2.3049   -5.7832 N.pl3     1 <0>        -0.6378
     19 C16        -4.4210    1.4520   -6.8660 C.ar      1 <0>         0.1471
     20 C17        -4.6923    0.0793   -6.6725 C.ar      1 <0>        -0.1314
     21 C18        -4.8283   -0.4700   -5.3904 C.ar      1 <0>        -0.1052
     22 C19        -5.0957   -1.7989   -5.2519 C.ar      1 <0>        -0.1106
     23 C20        -5.2410   -2.6173   -6.3694 C.ar      1 <0>        -0.1012
     24 C21        -5.1204   -2.1143   -7.6285 C.ar      1 <0>        -0.0913
     25 C22        -4.8449   -0.7479   -7.8108 C.ar      1 <0>         0.1436
     26 N4         -4.7202   -0.2238   -9.0311 N.ar      1 <0>        -0.4864
     27 C23        -4.4574    1.0563   -9.2327 C.ar      1 <0>         0.1755
     28 C24        -4.3026    1.9273   -8.1686 C.ar      1 <0>        -0.1098
     29 C25        -4.0118    3.3934   -8.3506 C.3       1 <0>        -0.0623
     30 C26        -3.4969    3.6676   -9.7622 C.3       1 <0>        -0.1251
     31 C27        -4.4684    3.0292  -10.7619 C.3       1 <0>        -0.1206
     32 C28        -4.3320    1.5116  -10.6659 C.3       1 <0>        -0.0706
     33 H1         -0.6925    7.7993   -4.3914 H         1 <0>         0.1283
     34 H2         -0.5210    8.9868   -2.2466 H         1 <0>         0.1313
     35 H3         -0.7175    7.7893   -0.1361 H         1 <0>         0.1362
     36 H4         -1.0638    5.3895   -4.4543 H         1 <0>         0.1219
     37 H5         -0.4082    3.1208    1.8772 H         1 <0>         0.0873
     38 H6         -2.0060    3.8597    2.1206 H         1 <0>         0.0875
     39 H7         -3.1117    1.9613    1.0896 H         1 <0>         0.0665
     40 H8         -1.9820    1.3354    2.3181 H         1 <0>         0.0754
     41 H9         -1.6608    0.0082    0.3079 H         1 <0>         0.0714
     42 H10        -0.2554    1.0953    0.4494 H         1 <0>         0.0670
     43 H11        -1.0345    1.1984   -1.8438 H         1 <0>         0.0871
     44 H12        -2.7111    1.4594   -1.3155 H         1 <0>         0.0719
     45 H13        -0.7618    3.4099   -4.1637 H         1 <0>         0.3579
     46 H14        -3.4955    2.7843   -3.2536 H         1 <0>         0.0786
     47 H15        -3.0385    4.1639   -4.2813 H         1 <0>         0.0545
     48 H16        -2.2028    2.5976   -6.0124 H         1 <0>         0.0802
     49 H17        -2.6597    1.2180   -4.9847 H         1 <0>         0.0541
     50 H18        -4.9462    2.0978   -5.0631 H         1 <0>         0.3573
     51 H19        -4.7171    0.1555   -4.5170 H         1 <0>         0.1215
     52 H20        -5.1959   -2.2227   -4.2636 H         1 <0>         0.1281
     53 H21        -5.4523   -3.6678   -6.2349 H         1 <0>         0.1312
     54 H22        -5.2364   -2.7626   -8.4845 H         1 <0>         0.1361
     55 H23        -4.9252    3.9644   -8.1840 H         1 <0>         0.0803
     56 H24        -3.2576    3.7028   -7.6271 H         1 <0>         0.0782
     57 H25        -3.4481    4.7430   -9.9331 H         1 <0>         0.0717
     58 H26        -2.5054    3.2312   -9.8828 H         1 <0>         0.0652
     59 H27        -5.4898    3.3214  -10.5179 H         1 <0>         0.0681
     60 H28        -4.2244    3.3590  -11.7717 H         1 <0>         0.0753
     61 H29        -5.1147    1.0421  -11.2618 H         1 <0>         0.0878
     62 H30        -3.3578    1.2132  -11.0532 H         1 <0>         0.0867
@<TRIPOS>BOND
     1    1    6 ar
     2    1    2 ar
     3    1   33 1
     4    2    3 ar
     5    2   34 1
     6    3    4 ar
     7    3   35 1
     8    4   10 ar
     9    4    5 ar
    10    5    6 ar
    11    5    7 ar
    12    6   36 1
    13    7    8 ar
    14    7   15 1
    15    8   14 1
    16    8    9 ar
    17    9   10 ar
    18    9   11 1
    19   11   12 1
    20   11   37 1
    21   11   38 1
    22   12   13 1
    23   12   39 1
    24   12   40 1
    25   13   14 1
    26   13   41 1
    27   13   42 1
    28   14   43 1
    29   14   44 1
    30   15   16 1
    31   15   45 1
    32   16   17 1
    33   16   46 1
    34   16   47 1
    35   17   18 1
    36   17   48 1
    37   17   49 1
    38   18   19 1
    39   18   50 1
    40   19   28 ar
    41   19   20 ar
    42   20   25 ar
    43   20   21 ar
    44   21   22 ar
    45   21   51 1
    46   22   23 ar
    47   22   52 1
    48   23   24 ar
    49   23   53 1
    50   24   25 ar
    51   24   54 1
    52   25   26 ar
    53   26   27 ar
    54   27   32 1
    55   27   28 ar
    56   28   29 1
    57   29   30 1
    58   29   55 1
    59   29   56 1
    60   30   31 1
    61   30   57 1
    62   30   58 1
    63   31   32 1
    64   31   59 1
    65   31   60 1
    66   32   61 1
    67   32   62 1
@<TRIPOS>MOLECULE
ZINC18172743
   63    68     0     0     0
SMALL
USER_CHARGES
N,N'-bis(1,2,3,4-tetrahydroacridin-9-yl)ethane-1,2-diamine
@<TRIPOS>ATOM
      1 C1         -0.7824    7.2470   -3.4677 C.ar      1 <0>        -0.0977
      2 C2         -0.6853    7.9194   -2.2519 C.ar      1 <0>        -0.0296
      3 C3         -0.7947    7.2527   -1.0702 C.ar      1 <0>        -0.1501
      4 C4         -1.0089    5.8634   -1.0699 C.ar      1 <0>         0.1649
      5 C5         -1.1071    5.1838   -2.3075 C.ar      1 <0>        -0.1229
      6 C6         -0.9899    5.9008   -3.5059 C.ar      1 <0>        -0.0702
      7 C7         -1.3233    3.7878   -2.2969 C.ar      1 <0>         0.2783
      8 C8         -1.4294    3.1427   -1.0683 C.ar      1 <0>        -0.1179
      9 C9         -1.3189    3.8737    0.1015 C.ar      1 <0>         0.2582
     10 C10        -1.4104    3.2277    1.4620 C.3       1 <0>        -0.1194
     11 C11        -2.0618    1.8508    1.3610 C.3       1 <0>        -0.1224
     12 C12        -1.3310    1.0468    0.2793 C.3       1 <0>        -0.1325
     13 C13        -1.6649    1.6555   -1.0811 C.3       1 <0>        -0.0678
     14 N1         -1.4278    3.0770   -3.4827 N.pl3     1 <0>        -0.6431
     15 C14        -2.7966    3.1356   -4.0127 C.3       1 <0>         0.0620
     16 C15        -2.9017    2.2463   -5.2533 C.3       1 <0>         0.0599
     17 N2         -4.2705    2.3049   -5.7832 N.pl3     1 <0>        -0.6345
     18 C16        -4.4210    1.4520   -6.8660 C.ar      1 <0>         0.1357
     19 C17        -4.6923    0.0793   -6.6725 C.ar      1 <0>        -0.1289
     20 C18        -4.8283   -0.4700   -5.3904 C.ar      1 <0>        -0.1130
     21 C19        -5.0957   -1.7989   -5.2519 C.ar      1 <0>        -0.1047
     22 C20        -5.2410   -2.6173   -6.3694 C.ar      1 <0>        -0.1023
     23 C21        -5.1204   -2.1143   -7.6285 C.ar      1 <0>        -0.0859
     24 C22        -4.8449   -0.7479   -7.8108 C.ar      1 <0>         0.1434
     25 N3         -4.7202   -0.2238   -9.0311 N.ar      1 <0>        -0.4800
     26 C23        -4.4574    1.0563   -9.2327 C.ar      1 <0>         0.1759
     27 C24        -4.3026    1.9273   -8.1686 C.ar      1 <0>        -0.1035
     28 C25        -4.0118    3.3934   -8.3506 C.3       1 <0>        -0.0608
     29 C26        -3.4969    3.6676   -9.7622 C.3       1 <0>        -0.1259
     30 C27        -4.4684    3.0292  -10.7619 C.3       1 <0>        -0.1216
     31 C28        -4.3320    1.5116  -10.6659 C.3       1 <0>        -0.0731
     32 H1         -0.6925    7.7993   -4.3914 H         1 <0>         0.1546
     33 H2         -0.5210    8.9868   -2.2466 H         1 <0>         0.1562
     34 H3         -0.7175    7.7893   -0.1361 H         1 <0>         0.1557
     35 H4         -1.0638    5.3895   -4.4543 H         1 <0>         0.1506
     36 H5         -0.4082    3.1208    1.8772 H         1 <0>         0.1229
     37 H6         -2.0060    3.8597    2.1206 H         1 <0>         0.1115
     38 H7         -3.1117    1.9613    1.0896 H         1 <0>         0.0798
     39 H8         -1.9820    1.3354    2.3181 H         1 <0>         0.0961
     40 H9         -1.6608    0.0082    0.3079 H         1 <0>         0.0915
     41 H10        -0.2554    1.0953    0.4494 H         1 <0>         0.0758
     42 H11        -1.0345    1.1984   -1.8438 H         1 <0>         0.1075
     43 H12        -2.7111    1.4594   -1.3155 H         1 <0>         0.0927
     44 H13        -0.7618    3.4099   -4.1637 H         1 <0>         0.3781
     45 H14        -3.4955    2.7843   -3.2536 H         1 <0>         0.0902
     46 H15        -3.0385    4.1639   -4.2813 H         1 <0>         0.0693
     47 H16        -2.2028    2.5976   -6.0124 H         1 <0>         0.0862
     48 H17        -2.6597    1.2180   -4.9847 H         1 <0>         0.0599
     49 H18        -4.9462    2.0978   -5.0631 H         1 <0>         0.3578
     50 H19        -4.7171    0.1555   -4.5170 H         1 <0>         0.1182
     51 H20        -5.1959   -2.2227   -4.2636 H         1 <0>         0.1285
     52 H21        -5.4523   -3.6678   -6.2349 H         1 <0>         0.1337
     53 H22        -5.2364   -2.7626   -8.4845 H         1 <0>         0.1389
     54 H23        -4.9252    3.9644   -8.1840 H         1 <0>         0.0812
     55 H24        -3.2576    3.7028   -7.6271 H         1 <0>         0.0749
     56 H25        -3.4481    4.7430   -9.9331 H         1 <0>         0.0724
     57 H26        -2.5054    3.2312   -9.8828 H         1 <0>         0.0656
     58 H27        -5.4898    3.3214  -10.5179 H         1 <0>         0.0689
     59 H28        -4.2244    3.3590  -11.7717 H         1 <0>         0.0778
     60 H29        -5.1147    1.0421  -11.2618 H         1 <0>         0.0904
     61 H30        -3.3578    1.2132  -11.0532 H         1 <0>         0.0885
     62 N4         -1.1138    5.2229    0.1449 N.ar      1 <0>        -0.5147
     63 H31        -1.0418    5.7318    1.0338 H         1 <0>         0.4690
@<TRIPOS>BOND
     1    1    6 ar
     2    1    2 ar
     3    1   32 1
     4    2    3 ar
     5    2   33 1
     6    3    4 ar
     7    3   34 1
     8    4    5 ar
     9    4   62 ar
    10    5    6 ar
    11    5    7 ar
    12    6   35 1
    13    7    8 ar
    14    7   14 1
    15    8   13 1
    16    8    9 ar
    17    9   10 1
    18    9   62 ar
    19   10   11 1
    20   10   36 1
    21   10   37 1
    22   11   12 1
    23   11   38 1
    24   11   39 1
    25   12   13 1
    26   12   40 1
    27   12   41 1
    28   13   42 1
    29   13   43 1
    30   14   15 1
    31   14   44 1
    32   15   16 1
    33   15   45 1
    34   15   46 1
    35   16   17 1
    36   16   47 1
    37   16   48 1
    38   17   18 1
    39   17   49 1
    40   18   27 ar
    41   18   19 ar
    42   19   24 ar
    43   19   20 ar
    44   20   21 ar
    45   20   50 1
    46   21   22 ar
    47   21   51 1
    48   22   23 ar
    49   22   52 1
    50   23   24 ar
    51   23   53 1
    52   24   25 ar
    53   25   26 ar
    54   26   31 1
    55   26   27 ar
    56   27   28 1
    57   28   29 1
    58   28   54 1
    59   28   55 1
    60   29   30 1
    61   29   56 1
    62   29   57 1
    63   30   31 1
    64   30   58 1
    65   30   59 1
    66   31   60 1
    67   31   61 1
    68   62   63 1
@<TRIPOS>MOLECULE
ZINC00003711
   31    33     0     0     0
SMALL
USER_CHARGES

@<TRIPOS>ATOM
      1 C1         -0.0164    1.3584    0.0095 C.ar      1 <0>        -0.1139
      2 C2          1.1700    2.0879    0.0021 C.ar      1 <0>        -0.0268
      3 C3          2.3787    1.4623   -0.0132 C.ar      1 <0>        -0.1501
      4 C4          2.4375    0.0577   -0.0223 C.ar      1 <0>         0.1825
      5 C5          1.2296   -0.6801   -0.0133 C.ar      1 <0>        -0.1452
      6 C6          0.0021   -0.0041    0.0020 C.ar      1 <0>        -0.0553
      7 C7          1.2993   -2.0908   -0.0193 C.ar      1 <0>         0.3795
      8 C8          2.5542   -2.6926   -0.0378 C.ar      1 <0>        -0.2248
      9 C9          3.6918   -1.9051   -0.0515 C.ar      1 <0>         0.2736
     10 N1          3.6057   -0.5855   -0.0400 N.ar      1 <0>        -0.5204
     11 C10         5.0781   -2.4997   -0.0887 C.3       1 <0>        -0.1119
     12 C11         5.0462   -3.9647    0.3399 C.3       1 <0>        -0.1174
     13 C12         3.9787   -4.6892   -0.4885 C.3       1 <0>        -0.1593
     14 C13         2.6048   -4.1975   -0.0375 C.3       1 <0>         0.1596
     15 H1          2.4049   -4.5636    0.9696 H         1 <0>         0.0834
     16 O1          1.6079   -4.7026   -0.9280 O.3       1 <0>        -0.5691
     17 N2          0.1447   -2.8582   -0.0066 N.pl3     1 <0>        -0.7763
     18 H2         -0.9625    1.8789    0.0259 H         1 <0>         0.1516
     19 H3          1.1302    3.1672    0.0082 H         1 <0>         0.1547
     20 H4          3.2894    2.0428   -0.0187 H         1 <0>         0.1557
     21 H5         -0.9239   -0.5598    0.0082 H         1 <0>         0.1458
     22 H6          5.4717   -2.4305   -1.1028 H         1 <0>         0.1215
     23 H7          5.7267   -1.9417    0.5867 H         1 <0>         0.1125
     24 H8          6.0202   -4.4200    0.1611 H         1 <0>         0.0996
     25 H9          4.7960   -4.0313    1.3987 H         1 <0>         0.0822
     26 H10         4.1199   -4.4654   -1.5459 H         1 <0>         0.0864
     27 H11         4.0554   -5.7644   -0.3267 H         1 <0>         0.0921
     28 H12         1.5802   -5.6678   -0.9807 H         1 <0>         0.4032
     29 H13        -0.7241   -2.4271    0.0066 H         1 <0>         0.4164
     30 H14         0.2057   -3.8263   -0.0109 H         1 <0>         0.4304
     31 H15         4.4243   -0.0651   -0.0449 H         1 <0>         0.4398
@<TRIPOS>BOND
     1    1    6 ar
     2    1    2 ar
     3    1   18 1
     4    2    3 ar
     5    2   19 1
     6    3    4 ar
     7    3   20 1
     8    4   10 ar
     9    4    5 ar
    10    5    6 ar
    11    5    7 ar
    12    6   21 1
    13    7    8 ar
    14    7   17 1
    15    8   14 1
    16    8    9 ar
    17    9   10 ar
    18    9   11 1
    19   10   31 1
    20   11   12 1
    21   11   22 1
    22   11   23 1
    23   12   13 1
    24   12   24 1
    25   12   25 1
    26   13   14 1
    27   13   26 1
    28   13   27 1
    29   14   15 1
    30   14   16 1
    31   16   28 1
    32   17   29 1
    33   17   30 1
@<TRIPOS>MOLECULE
ZINC00087000
   31    33     0     0     0
SMALL
USER_CHARGES

@<TRIPOS>ATOM
      1 C1         -0.0164    1.3584    0.0095 C.ar      1 <0>        -0.1121
      2 C2          1.1700    2.0879    0.0021 C.ar      1 <0>        -0.0260
      3 C3          2.3787    1.4623   -0.0132 C.ar      1 <0>        -0.1491
      4 C4          2.4375    0.0577   -0.0223 C.ar      1 <0>         0.1825
      5 C5          1.2296   -0.6801   -0.0133 C.ar      1 <0>        -0.1422
      6 C6          0.0021   -0.0041    0.0020 C.ar      1 <0>        -0.0560
      7 C7          1.2993   -2.0908   -0.0193 C.ar      1 <0>         0.3768
      8 C8          2.5542   -2.6926   -0.0378 C.ar      1 <0>        -0.2194
      9 C9          3.6918   -1.9051   -0.0515 C.ar      1 <0>         0.2819
     10 N1          3.6057   -0.5855   -0.0400 N.ar      1 <0>        -0.5182
     11 C10         5.0781   -2.4997   -0.0887 C.3       1 <0>        -0.1122
     12 C11         5.0462   -3.9647    0.3399 C.3       1 <0>        -0.1179
     13 C12         3.9787   -4.6892   -0.4885 C.3       1 <0>        -0.1594
     14 C13         2.6048   -4.1975   -0.0375 C.3       1 <0>         0.1579
     15 H1          1.8444   -4.5828   -0.7168 H         1 <0>         0.0739
     16 O1          2.3427   -4.6774    1.2828 O.3       1 <0>        -0.5614
     17 N2          0.1447   -2.8582   -0.0066 N.pl3     1 <0>        -0.7895
     18 H2         -0.9625    1.8789    0.0259 H         1 <0>         0.1523
     19 H3          1.1302    3.1672    0.0082 H         1 <0>         0.1555
     20 H4          3.2894    2.0428   -0.0187 H         1 <0>         0.1565
     21 H5         -0.9239   -0.5598    0.0082 H         1 <0>         0.1464
     22 H6          5.4717   -2.4305   -1.1028 H         1 <0>         0.1216
     23 H7          5.7267   -1.9417    0.5867 H         1 <0>         0.1124
     24 H8          6.0202   -4.4200    0.1611 H         1 <0>         0.0957
     25 H9          4.7960   -4.0313    1.3987 H         1 <0>         0.0878
     26 H10         4.1199   -4.4654   -1.5459 H         1 <0>         0.0853
     27 H11         4.0554   -5.7644   -0.3267 H         1 <0>         0.0929
     28 H12         2.3586   -5.6411    1.3614 H         1 <0>         0.3953
     29 H13        -0.7241   -2.4271    0.0066 H         1 <0>         0.4217
     30 H14         0.2057   -3.8263   -0.0109 H         1 <0>         0.4266
     31 H15         4.4243   -0.0651   -0.0449 H         1 <0>         0.4403
@<TRIPOS>BOND
     1    1    6 ar
     2    1    2 ar
     3    1   18 1
     4    2    3 ar
     5    2   19 1
     6    3    4 ar
     7    3   20 1
     8    4   10 ar
     9    4    5 ar
    10    5    6 ar
    11    5    7 ar
    12    6   21 1
    13    7    8 ar
    14    7   17 1
    15    8   14 1
    16    8    9 ar
    17    9   10 ar
    18    9   11 1
    19   10   31 1
    20   11   12 1
    21   11   22 1
    22   11   23 1
    23   12   13 1
    24   12   24 1
    25   12   25 1
    26   13   14 1
    27   13   26 1
    28   13   27 1
    29   14   15 1
    30   14   16 1
    31   16   28 1
    32   17   29 1
    33   17   30 1
@<TRIPOS>MOLECULE
ZINC14946461
   31    33     0     0     0
SMALL
USER_CHARGES

@<TRIPOS>ATOM
      1 C1          0.0474    1.3845    0.6490 C.ar      1 <0>        -0.1107
      2 C2          1.1882    2.0993    0.4383 C.ar      1 <0>        -0.0367
      3 C3          2.3940    1.4260    0.2017 C.ar      1 <0>        -0.1452
      4 C4          2.4174    0.0107    0.1855 C.ar      1 <0>         0.1971
      5 C5          1.2219   -0.6935    0.4068 C.ar      1 <0>        -0.1477
      6 C6          0.0655   -0.0088    0.6327 C.ar      1 <0>         0.0461
      7 Cl1        -1.4077   -0.8859    0.9053 Cl        1 <0>        -0.0110
      8 N1          3.5664   -0.6297   -0.0376 N.ar      1 <0>        -0.5186
      9 C7          4.7058    0.0061   -0.2516 C.ar      1 <0>         0.2772
     10 C8          4.7594    1.3889   -0.2558 C.ar      1 <0>        -0.2189
     11 C9          3.6008    2.1245   -0.0251 C.ar      1 <0>         0.3816
     12 N2          3.6303    3.5106   -0.0176 N.pl3     1 <0>        -0.7753
     13 C10         6.0308    2.1545   -0.5106 C.3       1 <0>         0.1586
     14 C11         7.2487    1.2529   -0.3199 C.3       1 <0>        -0.1597
     15 C12         7.0373   -0.0240   -1.1417 C.3       1 <0>        -0.1178
     16 C13         5.9307   -0.8442   -0.4832 C.3       1 <0>        -0.1126
     17 O1          6.1102    3.2525    0.4006 O.3       1 <0>        -0.5671
     18 H1         -0.8810    1.9039    0.8352 H         1 <0>         0.1624
     19 H2          1.1630    3.1789    0.4533 H         1 <0>         0.1566
     20 H3          1.2193   -1.7735    0.3971 H         1 <0>         0.1662
     21 H4          2.8840    4.0096    0.3496 H         1 <0>         0.4192
     22 H5          4.3973    3.9814   -0.3795 H         1 <0>         0.4303
     23 H6          6.0222    2.5357   -1.5317 H         1 <0>         0.0833
     24 H7          8.1448    1.7681   -0.6659 H         1 <0>         0.0926
     25 H8          7.3552    0.9976    0.7344 H         1 <0>         0.0867
     26 H9          6.7442    0.2382   -2.1583 H         1 <0>         0.0826
     27 H10         7.9602   -0.6035   -1.1633 H         1 <0>         0.1003
     28 H11         6.2878   -1.2277    0.4726 H         1 <0>         0.1230
     29 H12         5.6699   -1.6813   -1.1308 H         1 <0>         0.1141
     30 H13         6.9049    3.7934    0.2964 H         1 <0>         0.4016
     31 H14         3.5659   -1.5997   -0.0427 H         1 <0>         0.4418
@<TRIPOS>BOND
     1    1    6 ar
     2    1    2 ar
     3    1   18 1
     4    2    3 ar
     5    2   19 1
     6    3   11 ar
     7    3    4 ar
     8    4    5 ar
     9    4    8 ar
    10    5    6 ar
    11    5   20 1
    12    6    7 1
    13    8    9 ar
    14    8   31 1
    15    9   16 1
    16    9   10 ar
    17   10   11 ar
    18   10   13 1
    19   11   12 1
    20   12   21 1
    21   12   22 1
    22   13   14 1
    23   13   17 1
    24   13   23 1
    25   14   15 1
    26   14   24 1
    27   14   25 1
    28   15   16 1
    29   15   26 1
    30   15   27 1
    31   16   28 1
    32   16   29 1
    33   17   30 1
@<TRIPOS>MOLECULE
ZINC14946462
   30    32     0     0     0
SMALL
USER_CHARGES
(1R)-9-amino-6-chloro-1,2,3,4-tetrahydroacridin-1-ol
@<TRIPOS>ATOM
      1 C1          2.4010    0.0323   -0.0210 C.ar      1 <0>        -0.1328
      2 C2          2.4197    1.3948   -0.0141 C.ar      1 <0>        -0.0631
      3 C3          1.2115    2.1042    0.0018 C.ar      1 <0>        -0.1668
      4 C4         -0.0170    1.4007    0.0097 C.ar      1 <0>         0.1941
      5 C5          0.0021   -0.0041    0.0020 C.ar      1 <0>        -0.0992
      6 C6          1.1941   -0.6644   -0.0129 C.ar      1 <0>         0.0001
      7 Cl1         1.2094   -2.4003   -0.0215 Cl        1 <0>        -0.0602
      8 N1         -1.1669    2.0773    0.0189 N.ar      1 <0>        -0.5301
      9 C7         -1.2155    3.3986    0.0308 C.ar      1 <0>         0.2329
     10 C8         -0.0555    4.1535    0.0276 C.ar      1 <0>        -0.2331
     11 C9          1.1816    3.5166    0.0111 C.ar      1 <0>         0.2998
     12 N2          2.3575    4.2510    0.0043 N.pl3     1 <0>        -0.8423
     13 C10        -0.0627    5.6591    0.0490 C.3       1 <0>         0.1622
     14 H1          0.6915    6.0320   -0.6439 H         1 <0>         0.0552
     15 C11        -1.4327    6.1956   -0.3612 C.3       1 <0>        -0.1516
     16 C12        -2.4995    5.4905    0.4846 C.3       1 <0>        -0.1167
     17 C13        -2.5845    4.0330    0.0381 C.3       1 <0>        -0.0743
     18 O1          0.2452    6.1131    1.3686 O.3       1 <0>        -0.5613
     19 H2          3.3325   -0.5141   -0.0325 H         1 <0>         0.1381
     20 H3          3.3606    1.9249   -0.0212 H         1 <0>         0.1308
     21 H4         -0.9246   -0.5587    0.0083 H         1 <0>         0.1473
     22 H5          3.2138    3.7955   -0.0070 H         1 <0>         0.4035
     23 H6          2.3239    5.2204    0.0108 H         1 <0>         0.4084
     24 H7         -1.6064    5.9900   -1.4175 H         1 <0>         0.0765
     25 H8         -1.4750    7.2703   -0.1845 H         1 <0>         0.0743
     26 H9         -3.4641    5.9759    0.3366 H         1 <0>         0.0748
     27 H10        -2.2246    5.5354    1.5384 H         1 <0>         0.0758
     28 H11        -3.0063    3.9889   -0.9660 H         1 <0>         0.0891
     29 H12        -3.2308    3.4850    0.7236 H         1 <0>         0.0910
     30 H13         0.2590    7.0756    1.4601 H         1 <0>         0.3774
@<TRIPOS>BOND
     1    1    6 ar
     2    1    2 ar
     3    1   19 1
     4    2    3 ar
     5    2   20 1
     6    3   11 ar
     7    3    4 ar
     8    4    5 ar
     9    4    8 ar
    10    5    6 ar
    11    5   21 1
    12    6    7 1
    13    8    9 ar
    14    9   17 1
    15    9   10 ar
    16   10   11 ar
    17   10   13 1
    18   11   12 1
    19   12   22 1
    20   12   23 1
    21   13   14 1
    22   13   15 1
    23   13   18 1
    24   15   16 1
    25   15   24 1
    26   15   25 1
    27   16   17 1
    28   16   26 1
    29   16   27 1
    30   17   28 1
    31   17   29 1
    32   18   30 1
@<TRIPOS>MOLECULE
ZINC14946475
   46    48     0     0     0
SMALL
USER_CHARGES
(1S)-9-(2-dimethylaminoethylamino)-1,2,3,4-tetrahydroacridin-1-ol
@<TRIPOS>ATOM
      1 C1         -2.3861   -3.3396   -3.4042 C.3       1 <0>        -0.0468
      2 C2         -4.2933   -3.4364   -1.9156 C.3       1 <0>        -0.0427
      3 C3         -2.0555   -3.2660   -1.0067 C.3       1 <0>        -0.0034
      4 C4         -0.7424   -2.4893   -1.1222 C.3       1 <0>         0.0413
      5 N1          0.1441   -2.8583   -0.0104 N.pl3     1 <0>        -0.6236
      6 C5          1.3892   -2.2644   -0.1496 C.ar      1 <0>         0.2850
      7 C6          1.5758   -0.8971    0.1529 C.ar      1 <0>        -0.1254
      8 C7          0.5196   -0.0919    0.6001 C.ar      1 <0>        -0.0840
      9 C8          0.7466    1.2220    0.8810 C.ar      1 <0>        -0.0875
     10 C9          2.0158    1.7749    0.7289 C.ar      1 <0>        -0.0265
     11 C10         3.0630    1.0203    0.2965 C.ar      1 <0>        -0.1419
     12 C11         2.8670   -0.3391   -0.0029 C.ar      1 <0>         0.1652
     13 C12         3.7171   -2.3860   -0.7204 C.ar      1 <0>         0.2711
     14 C13         2.4843   -3.0014   -0.5901 C.ar      1 <0>        -0.1142
     15 C14         2.2633   -4.4579   -0.9016 C.3       1 <0>         0.1739
     16 H1          2.2098   -5.0206    0.0303 H         1 <0>         0.0929
     17 C15         3.4066   -5.0045   -1.7542 C.3       1 <0>        -0.1666
     18 C16         4.7317   -4.6386   -1.0754 C.3       1 <0>        -0.1219
     19 C17         4.9381   -3.1310   -1.2008 C.3       1 <0>        -0.1255
     20 O1          1.0327   -4.6062   -1.6127 O.3       1 <0>        -0.5578
     21 H2         -2.2688   -4.4232   -3.3956 H         1 <0>         0.1289
     22 H3         -3.0622   -3.0538   -4.2100 H         1 <0>         0.1269
     23 H4         -1.4150   -2.8702   -3.5610 H         1 <0>         0.1183
     24 H5         -4.7086   -3.0373   -0.9902 H         1 <0>         0.1239
     25 H6         -4.9289   -3.1485   -2.7529 H         1 <0>         0.1280
     26 H7         -4.2450   -4.5235   -1.8530 H         1 <0>         0.1276
     27 H8         -1.8497   -4.3357   -1.0457 H         1 <0>         0.1498
     28 H9         -2.5392   -3.0234   -0.0605 H         1 <0>         0.1317
     29 H10        -0.9483   -1.4197   -1.0831 H         1 <0>         0.0625
     30 H11        -0.2588   -2.7320   -2.0684 H         1 <0>         0.1184
     31 H12        -0.2721   -2.6217    0.8778 H         1 <0>         0.3776
     32 H13        -0.4687   -0.5102    0.7211 H         1 <0>         0.1464
     33 H14        -0.0686    1.8433    1.2215 H         1 <0>         0.1574
     34 H15         2.1716    2.8188    0.9576 H         1 <0>         0.1618
     35 H16         4.0408    1.4646    0.1834 H         1 <0>         0.1615
     36 H17         3.3209   -6.0883   -1.8322 H         1 <0>         0.0969
     37 H18         3.3683   -4.5599   -2.7486 H         1 <0>         0.0843
     38 H19         4.6939   -4.9174   -0.0223 H         1 <0>         0.0853
     39 H20         5.5521   -5.1632   -1.5651 H         1 <0>         0.1048
     40 H21         5.7987   -2.8350   -0.6010 H         1 <0>         0.1196
     41 H22         5.1248   -2.8795   -2.2448 H         1 <0>         0.1288
     42 H23         0.8224   -5.5201   -1.8485 H         1 <0>         0.3941
     43 N2         -2.9439   -2.8684   -2.1191 N.4       1 <0>        -0.3966
     44 H24        -3.0130   -1.8442   -2.1410 H         1 <0>         0.4297
     45 N3          3.9501   -1.0707   -0.4377 N.ar      1 <0>        -0.5049
     46 H25         4.8809   -0.6503   -0.5433 H         1 <0>         0.4757
@<TRIPOS>BOND
     1    1   21 1
     2    1   22 1
     3    1   23 1
     4    1   43 1
     5    2   24 1
     6    2   25 1
     7    2   26 1
     8    2   43 1
     9    3    4 1
    10    3   27 1
    11    3   28 1
    12    3   43 1
    13    4    5 1
    14    4   29 1
    15    4   30 1
    16    5    6 1
    17    5   31 1
    18    6   14 ar
    19    6    7 ar
    20    7   12 ar
    21    7    8 ar
    22    8    9 ar
    23    8   32 1
    24    9   10 ar
    25    9   33 1
    26   10   11 ar
    27   10   34 1
    28   11   12 ar
    29   11   35 1
    30   12   45 ar
    31   13   19 1
    32   13   14 ar
    33   13   45 ar
    34   14   15 1
    35   15   16 1
    36   15   17 1
    37   15   20 1
    38   17   18 1
    39   17   36 1
    40   17   37 1
    41   18   19 1
    42   18   38 1
    43   18   39 1
    44   19   40 1
    45   19   41 1
    46   20   42 1
    47   43   44 1
    48   45   46 1
@<TRIPOS>MOLECULE
ZINC14946476
   46    48     0     0     0
SMALL
USER_CHARGES
(1R)-9-(2-dimethylaminoethylamino)-1,2,3,4-tetrahydroacridin-1-ol
@<TRIPOS>ATOM
      1 C1         -0.1505    3.9526   -3.5203 C.3       1 <0>        -0.0435
      2 C2         -2.2749    4.5688   -2.5354 C.3       1 <0>        -0.0505
      3 C3         -0.5366    3.6001   -1.1561 C.3       1 <0>        -0.0083
      4 C4         -1.0443    4.2802    0.1169 C.3       1 <0>         0.0271
      5 N1         -0.7539    3.4270    1.2770 N.pl3     1 <0>        -0.6354
      6 C5         -1.3001    3.9598    2.4346 C.ar      1 <0>         0.2927
      7 C6         -2.6222    3.6458    2.8211 C.ar      1 <0>        -0.0891
      8 C7         -3.4286    2.7919    2.0565 C.ar      1 <0>        -0.0520
      9 C8         -4.6982    2.5172    2.4679 C.ar      1 <0>        -0.1028
     10 C9         -5.2043    3.0747    3.6396 C.ar      1 <0>        -0.0198
     11 C10        -4.4435    3.8993    4.4106 C.ar      1 <0>        -0.1494
     12 C11        -3.1311    4.2106    4.0148 C.ar      1 <0>         0.1658
     13 C12        -1.1293    5.3420    4.3891 C.ar      1 <0>         0.2871
     14 C13        -0.5609    4.8207    3.2399 C.ar      1 <0>        -0.1781
     15 C14         0.8471    5.1378    2.8106 C.3       1 <0>         0.1521
     16 H1          0.8651    5.3073    1.7340 H         1 <0>         0.0709
     17 C15         1.3580    6.3871    3.5258 C.3       1 <0>        -0.1618
     18 C16         1.1209    6.2117    5.0302 C.3       1 <0>        -0.1213
     19 C17        -0.3806    6.2882    5.2952 C.3       1 <0>        -0.1267
     20 O1          1.6964    4.0330    3.1272 O.3       1 <0>        -0.5571
     21 H2         -0.4940    2.9408   -3.7359 H         1 <0>         0.1287
     22 H3         -0.3824    4.6025   -4.3641 H         1 <0>         0.1299
     23 H4          0.9267    3.9430   -3.3544 H         1 <0>         0.1254
     24 H5         -2.7420    5.0072   -1.6535 H         1 <0>         0.1173
     25 H6         -2.4617    5.2057   -3.4001 H         1 <0>         0.1308
     26 H7         -2.6953    3.5794   -2.7153 H         1 <0>         0.1299
     27 H8         -1.0355    2.6387   -1.2782 H         1 <0>         0.1499
     28 H9          0.5395    3.4439   -1.0802 H         1 <0>         0.1384
     29 H10        -0.5453    5.2416    0.2389 H         1 <0>         0.0772
     30 H11        -2.1203    4.4363    0.0410 H         1 <0>         0.1115
     31 H12         0.2393    3.2817    1.3794 H         1 <0>         0.3942
     32 H13        -3.0460    2.3544    1.1463 H         1 <0>         0.1588
     33 H14        -5.3196    1.8596    1.8782 H         1 <0>         0.1569
     34 H15        -6.2136    2.8423    3.9459 H         1 <0>         0.1606
     35 H16        -4.8510    4.3225    5.3169 H         1 <0>         0.1607
     36 H17         0.8161    7.2626    3.1681 H         1 <0>         0.0863
     37 H18         2.4238    6.5110    3.3338 H         1 <0>         0.0992
     38 H19         1.6302    7.0057    5.5764 H         1 <0>         0.1024
     39 H20         1.5010    5.2426    5.3536 H         1 <0>         0.0912
     40 H21        -0.7257    7.3064    5.1153 H         1 <0>         0.1277
     41 H22        -0.5763    6.0214    6.3338 H         1 <0>         0.1203
     42 H23         2.6217    4.1646    2.8792 H         1 <0>         0.4030
     43 N2         -0.8167    4.4795   -2.3106 N.4       1 <0>        -0.3965
     44 H24        -0.4519    5.4182   -2.1110 H         1 <0>         0.4315
     45 N3         -2.3976    5.0629    4.8105 N.ar      1 <0>        -0.5102
     46 H25        -2.7832    5.4658    5.6726 H         1 <0>         0.4751
@<TRIPOS>BOND
     1    1   21 1
     2    1   22 1
     3    1   23 1
     4    1   43 1
     5    2   24 1
     6    2   25 1
     7    2   26 1
     8    2   43 1
     9    3    4 1
    10    3   27 1
    11    3   28 1
    12    3   43 1
    13    4    5 1
    14    4   29 1
    15    4   30 1
    16    5    6 1
    17    5   31 1
    18    6   14 ar
    19    6    7 ar
    20    7   12 ar
    21    7    8 ar
    22    8    9 ar
    23    8   32 1
    24    9   10 ar
    25    9   33 1
    26   10   11 ar
    27   10   34 1
    28   11   12 ar
    29   11   35 1
    30   12   45 ar
    31   13   19 1
    32   13   14 ar
    33   13   45 ar
    34   14   15 1
    35   15   16 1
    36   15   17 1
    37   15   20 1
    38   17   18 1
    39   17   36 1
    40   17   37 1
    41   18   19 1
    42   18   38 1
    43   18   39 1
    44   19   40 1
    45   19   41 1
    46   20   42 1
    47   43   44 1
    48   45   46 1
@<TRIPOS>MOLECULE
ZINC00011988
   31    33     0     0     0
SMALL
USER_CHARGES
(4S)-9-amino-1,2,3,4-tetrahydroacridin-4-ol
@<TRIPOS>ATOM
      1 C1         -1.7205    2.8148   -5.9034 C.ar      1 <0>        -0.1133
      2 C2         -0.4109    2.3415   -5.8737 C.ar      1 <0>        -0.0253
      3 C3          0.1568    1.9192   -4.7108 C.ar      1 <0>        -0.1550
      4 C4         -0.5848    1.9596   -3.5172 C.ar      1 <0>         0.1892
      5 C5         -1.9149    2.4425   -3.5514 C.ar      1 <0>        -0.1366
      6 C6         -2.4689    2.8688   -4.7660 C.ar      1 <0>        -0.0556
      7 C7         -2.6509    2.4814   -2.3465 C.ar      1 <0>         0.3709
      8 C8         -2.0343    2.0427   -1.1783 C.ar      1 <0>        -0.1973
      9 C9         -0.7318    1.5804   -1.2229 C.ar      1 <0>         0.2295
     10 C10        -0.0127    1.0858    0.0080 C.3       1 <0>         0.1209
     11 H1          0.0021   -0.0041    0.0020 H         1 <0>         0.1097
     12 C11        -0.7164    1.5727    1.2724 C.3       1 <0>        -0.1160
     13 C12        -2.2034    1.2141    1.1677 C.3       1 <0>        -0.1222
     14 C13        -2.8362    2.0983    0.0950 C.3       1 <0>        -0.0766
     15 O1          1.3298    1.5752   -0.0022 O.3       1 <0>        -0.5330
     16 N1         -3.9570    2.9462   -2.3277 N.pl3     1 <0>        -0.7898
     17 H2         -2.1478    3.1434   -6.8392 H         1 <0>         0.1525
     18 H3          0.1632    2.3087   -6.7879 H         1 <0>         0.1545
     19 H4          1.1734    1.5546   -4.7051 H         1 <0>         0.1549
     20 H5         -3.4835    3.2373   -4.8006 H         1 <0>         0.1478
     21 H6         -0.2818    1.0852    2.1451 H         1 <0>         0.1016
     22 H7         -0.6048    2.6533    1.3615 H         1 <0>         0.0895
     23 H8         -2.3097    0.1657    0.8893 H         1 <0>         0.0792
     24 H9         -2.6923    1.3911    2.1258 H         1 <0>         0.0988
     25 H10        -3.8505    1.7521   -0.1036 H         1 <0>         0.0894
     26 H11        -2.8713    3.1275    0.4523 H         1 <0>         0.0964
     27 H12         1.8433    1.2990   -0.7737 H         1 <0>         0.3766
     28 H13        -4.4520    2.9683   -1.4938 H         1 <0>         0.4276
     29 H14        -4.3758    3.2493   -3.1485 H         1 <0>         0.4234
     30 N2          0.0224    1.5232   -2.3608 N.ar      1 <0>        -0.5499
     31 H15         0.9881    1.1744   -2.3540 H         1 <0>         0.4584
@<TRIPOS>BOND
     1    1    6 ar
     2    1    2 ar
     3    1   17 1
     4    2    3 ar
     5    2   18 1
     6    3    4 ar
     7    3   19 1
     8    4    5 ar
     9    4   30 ar
    10    5    6 ar
    11    5    7 ar
    12    6   20 1
    13    7    8 ar
    14    7   16 1
    15    8   14 1
    16    8    9 ar
    17    9   10 1
    18    9   30 ar
    19   10   11 1
    20   10   12 1
    21   10   15 1
    22   12   13 1
    23   12   21 1
    24   12   22 1
    25   13   14 1
    26   13   23 1
    27   13   24 1
    28   14   25 1
    29   14   26 1
    30   15   27 1
    31   16   28 1
    32   16   29 1
    33   30   31 1
@<TRIPOS>MOLECULE
ZINC03776165
   31    33     0     0     0
SMALL
USER_CHARGES
9-amino-1,2,3,4-tetrahydroacridin-4-ol
@<TRIPOS>ATOM
      1 C1         -1.9521    7.7722   -2.3532 C.ar      1 <0>        -0.1129
      2 C2         -2.0292    7.0201   -3.5229 C.ar      1 <0>        -0.0259
      3 C3         -1.8082    5.6771   -3.5099 C.ar      1 <0>        -0.1548
      4 C4         -1.4965    5.0328   -2.2999 C.ar      1 <0>         0.1873
      5 C5         -1.4189    5.8007   -1.1134 C.ar      1 <0>        -0.1355
      6 C6         -1.6525    7.1816   -1.1623 C.ar      1 <0>        -0.0563
      7 C7         -1.1041    5.1443    0.0970 C.ar      1 <0>         0.3689
      8 C8         -0.8830    3.7704    0.0682 C.ar      1 <0>        -0.1879
      9 C9         -0.9801    3.0856   -1.1301 C.ar      1 <0>         0.2217
     10 C10        -0.7595    1.5957   -1.2221 C.3       1 <0>         0.1239
     11 H1         -0.1751    1.3735   -2.1150 H         1 <0>         0.0973
     12 C11        -0.0127    1.0858    0.0080 C.3       1 <0>        -0.1176
     13 C12        -0.7389    1.5845    1.2629 C.3       1 <0>        -0.1237
     14 C13        -0.5362    3.0938    1.3680 C.3       1 <0>        -0.0769
     15 O1         -2.0244    0.9369   -1.3120 O.3       1 <0>        -0.5300
     16 N1         -1.0173    5.8520    1.2860 N.pl3     1 <0>        -0.7895
     17 H2         -2.1322    8.8365   -2.3905 H         1 <0>         0.1524
     18 H3         -2.2686    7.5103   -4.4550 H         1 <0>         0.1542
     19 H4         -1.8716    5.1085   -4.4259 H         1 <0>         0.1547
     20 H5         -1.5959    7.7743   -0.2613 H         1 <0>         0.1476
     21 H6          0.0021   -0.0041    0.0020 H         1 <0>         0.1021
     22 H7          1.0088    1.4661    0.0003 H         1 <0>         0.0934
     23 H8         -1.8035    1.3649    1.1828 H         1 <0>         0.0839
     24 H9         -0.3274    1.0937    2.1448 H         1 <0>         0.0916
     25 H10         0.5066    3.2969    1.6118 H         1 <0>         0.0948
     26 H11        -1.1731    3.4884    2.1597 H         1 <0>         0.0881
     27 H12        -2.5571    1.2103   -2.0713 H         1 <0>         0.3835
     28 H13        -1.1736    6.8093    1.2931 H         1 <0>         0.4233
     29 H14        -0.8004    5.3899    2.1108 H         1 <0>         0.4278
     30 N2         -1.2799    3.6730   -2.3258 N.ar      1 <0>        -0.5485
     31 H15        -1.3406    3.1310   -3.1957 H         1 <0>         0.4631
@<TRIPOS>BOND
     1    1    6 ar
     2    1    2 ar
     3    1   17 1
     4    2    3 ar
     5    2   18 1
     6    3    4 ar
     7    3   19 1
     8    4    5 ar
     9    4   30 ar
    10    5    6 ar
    11    5    7 ar
    12    6   20 1
    13    7    8 ar
    14    7   16 1
    15    8   14 1
    16    8    9 ar
    17    9   10 1
    18    9   30 ar
    19   10   11 1
    20   10   12 1
    21   10   15 1
    22   12   13 1
    23   12   21 1
    24   12   22 1
    25   13   14 1
    26   13   23 1
    27   13   24 1
    28   14   25 1
    29   14   26 1
    30   15   27 1
    31   16   28 1
    32   16   29 1
    33   30   31 1
@<TRIPOS>MOLECULE
ZINC01893945
   79    84     0     0     0
SMALL
USER_CHARGES

@<TRIPOS>ATOM
      1 C1         -4.3674  -12.0500   -0.6935 C.ar      1 <0>        -0.1084
      2 C2         -3.2283  -12.4382    0.0076 C.ar      1 <0>        -0.0299
      3 C3         -2.0127  -12.4917   -0.6026 C.ar      1 <0>        -0.1478
      4 C4         -1.8984  -12.1507   -1.9615 C.ar      1 <0>         0.1538
      5 C5         -3.0585  -11.7581   -2.6709 C.ar      1 <0>        -0.1057
      6 C6         -4.2945  -11.7134   -2.0119 C.ar      1 <0>        -0.0611
      7 C7         -2.9337  -11.4204   -4.0369 C.ar      1 <0>         0.3440
      8 C8         -1.6732  -11.4852   -4.6233 C.ar      1 <0>        -0.1441
      9 C9         -0.5831  -11.8727   -3.8640 C.ar      1 <0>         0.2496
     10 N1         -0.7214  -12.1902   -2.5879 N.ar      1 <0>        -0.4773
     11 C10         0.8097  -11.9455   -4.4399 C.3       1 <0>        -0.1140
     12 C11         0.7589  -11.9899   -5.9651 C.3       1 <0>        -0.1221
     13 C12        -0.1140  -10.8287   -6.4553 C.3       1 <0>        -0.1317
     14 C13        -1.5646  -11.1271   -6.0818 C.3       1 <0>        -0.0717
     15 N2         -4.0410  -11.0339   -4.7762 N.pl3     1 <0>        -0.7950
     16 C14        -4.4753   -9.6347   -4.7678 C.3       1 <0>         0.1342
     17 C15        -5.4341   -9.4053   -3.5978 C.3       1 <0>        -0.1553
     18 C16        -5.8877   -7.9441   -3.5892 C.3       1 <0>        -0.1209
     19 C17        -6.8465   -7.7147   -2.4192 C.3       1 <0>        -0.1174
     20 C18        -7.3001   -6.2534   -2.4105 C.3       1 <0>        -0.1208
     21 C19        -8.2589   -6.0240   -1.2405 C.3       1 <0>        -0.1454
     22 C20        -8.7124   -4.5628   -1.2318 C.3       1 <0>         0.1352
     23 N3         -9.6305   -4.3431   -0.1115 N.pl3     1 <0>        -0.7952
     24 C21       -10.9513   -3.9988   -0.3549 C.ar      1 <0>         0.3431
     25 C22       -11.9243   -4.9933   -0.5993 C.ar      1 <0>        -0.1056
     26 C23       -11.5974   -6.3561   -0.6049 C.ar      1 <0>        -0.0599
     27 C24       -12.5693   -7.2807   -0.8438 C.ar      1 <0>        -0.1060
     28 C25       -13.8839   -6.8879   -1.0830 C.ar      1 <0>        -0.0301
     29 C26       -14.2345   -5.5726   -1.0849 C.ar      1 <0>        -0.1466
     30 C27       -13.2589   -4.5899   -0.8428 C.ar      1 <0>         0.1534
     31 N4        -13.5687   -3.2925   -0.8408 N.ar      1 <0>        -0.4769
     32 C28       -12.6724   -2.3467   -0.6160 C.ar      1 <0>         0.2497
     33 C29       -11.3506   -2.6657   -0.3584 C.ar      1 <0>        -0.1441
     34 C30       -10.3007   -1.6241   -0.0753 C.3       1 <0>        -0.0711
     35 C31       -10.7756   -0.2454   -0.5294 C.3       1 <0>        -0.1323
     36 C32       -12.1684    0.0035    0.0612 C.3       1 <0>        -0.1214
     37 C33       -13.1598   -0.9191   -0.6521 C.3       1 <0>        -0.1143
     38 H1         -5.3209  -12.0198   -0.1872 H         1 <0>         0.1503
     39 H2         -3.3108  -12.7004    1.0520 H         1 <0>         0.1557
     40 H3         -1.1392  -12.7948   -0.0446 H         1 <0>         0.1568
     41 H4         -5.1842  -11.4141   -2.5460 H         1 <0>         0.1614
     42 H5          1.3753  -11.0687   -4.1245 H         1 <0>         0.1235
     43 H6          1.3047  -12.8437   -4.0705 H         1 <0>         0.1133
     44 H7          1.7663  -11.8866   -6.3684 H         1 <0>         0.0985
     45 H8          0.3262  -12.9361   -6.2899 H         1 <0>         0.0815
     46 H9          0.2052   -9.9023   -5.9777 H         1 <0>         0.0750
     47 H10        -0.0254  -10.7341   -7.5375 H         1 <0>         0.0922
     48 H11        -1.9268  -11.9601   -6.6843 H         1 <0>         0.0966
     49 H12        -2.1756  -10.2470   -6.2822 H         1 <0>         0.0969
     50 H13        -4.5282  -11.6898   -5.2989 H         1 <0>         0.4197
     51 H14        -3.6067   -8.9853   -4.6585 H         1 <0>         0.0703
     52 H15        -4.9839   -9.4066   -5.7045 H         1 <0>         0.0922
     53 H16        -6.3027  -10.0547   -3.7072 H         1 <0>         0.0723
     54 H17        -4.9255   -9.6334   -2.6612 H         1 <0>         0.0671
     55 H18        -5.0191   -7.2947   -3.4798 H         1 <0>         0.0652
     56 H19        -6.3963   -7.7159   -4.5258 H         1 <0>         0.0685
     57 H20        -7.7151   -8.3640   -2.5285 H         1 <0>         0.0628
     58 H21        -6.3379   -7.9428   -1.4825 H         1 <0>         0.0620
     59 H22        -6.4315   -5.6041   -2.3011 H         1 <0>         0.0681
     60 H23        -7.8087   -6.0253   -3.3471 H         1 <0>         0.0655
     61 H24        -9.1275   -6.6734   -1.3498 H         1 <0>         0.0663
     62 H25        -7.7503   -6.2522   -0.3038 H         1 <0>         0.0718
     63 H26        -7.8439   -3.9134   -1.1224 H         1 <0>         0.0785
     64 H27        -9.2210   -4.3347   -2.1685 H         1 <0>         0.0735
     65 H28        -9.3144   -4.4385    0.8006 H         1 <0>         0.4186
     66 H29       -10.5810   -6.6715   -0.4211 H         1 <0>         0.1572
     67 H30       -12.3171   -8.3309   -0.8481 H         1 <0>         0.1508
     68 H31       -14.6372   -7.6388   -1.2703 H         1 <0>         0.1563
     69 H32       -15.2585   -5.2850   -1.2720 H         1 <0>         0.1571
     70 H33       -10.0980   -1.5998    0.9954 H         1 <0>         0.0961
     71 H34        -9.3854   -1.8824   -0.6080 H         1 <0>         0.0967
     72 H35       -10.0836    0.5174   -0.1725 H         1 <0>         0.0917
     73 H36       -10.8274   -0.2147   -1.6178 H         1 <0>         0.0754
     74 H37       -12.1574   -0.2131    1.1294 H         1 <0>         0.0821
     75 H38       -12.4554    1.0423   -0.1022 H         1 <0>         0.0982
     76 H39       -13.2782   -0.6061   -1.6895 H         1 <0>         0.1244
     77 H40       -14.1230   -0.8554   -0.1460 H         1 <0>         0.1127
     78 H41         0.0637  -12.4627   -2.0878 H         1 <0>         0.4430
     79 H42       -14.4876   -3.0326   -1.0112 H         1 <0>         0.4432
@<TRIPOS>BOND
     1    1    6 ar
     2    1    2 ar
     3    1   38 1
     4    2    3 ar
     5    2   39 1
     6    3    4 ar
     7    3   40 1
     8    4   10 ar
     9    4    5 ar
    10    5    6 ar
    11    5    7 ar
    12    6   41 1
    13    7    8 ar
    14    7   15 1
    15    8   14 1
    16    8    9 ar
    17    9   10 ar
    18    9   11 1
    19   10   78 1
    20   11   12 1
    21   11   42 1
    22   11   43 1
    23   12   13 1
    24   12   44 1
    25   12   45 1
    26   13   14 1
    27   13   46 1
    28   13   47 1
    29   14   48 1
    30   14   49 1
    31   15   16 1
    32   15   50 1
    33   16   17 1
    34   16   51 1
    35   16   52 1
    36   17   18 1
    37   17   53 1
    38   17   54 1
    39   18   19 1
    40   18   55 1
    41   18   56 1
    42   19   20 1
    43   19   57 1
    44   19   58 1
    45   20   21 1
    46   20   59 1
    47   20   60 1
    48   21   22 1
    49   21   61 1
    50   21   62 1
    51   22   23 1
    52   22   63 1
    53   22   64 1
    54   23   24 1
    55   23   65 1
    56   24   33 ar
    57   24   25 ar
    58   25   30 ar
    59   25   26 ar
    60   26   27 ar
    61   26   66 1
    62   27   28 ar
    63   27   67 1
    64   28   29 ar
    65   28   68 1
    66   29   30 ar
    67   29   69 1
    68   30   31 ar
    69   31   32 ar
    70   31   79 1
    71   32   37 1
    72   32   33 ar
    73   33   34 1
    74   34   35 1
    75   34   70 1
    76   34   71 1
    77   35   36 1
    78   35   72 1
    79   35   73 1
    80   36   37 1
    81   36   74 1
    82   36   75 1
    83   37   76 1
    84   37   77 1
@<TRIPOS>MOLECULE
ZINC04978441
   33    35     0     0     0
SMALL
USER_CHARGES
BLAHamine
@<TRIPOS>ATOM
      1 C1         -1.2953   -4.0865   -4.3960 C.ar      1 <0>        -0.1154
      2 C2         -0.7222   -3.3739   -5.4465 C.ar      1 <0>        -0.0276
      3 C3         -0.1382   -2.1623   -5.2369 C.ar      1 <0>        -0.1552
      4 C4         -0.1105   -1.6156   -3.9421 C.ar      1 <0>         0.1860
      5 C5         -0.6897   -2.3452   -2.8763 C.ar      1 <0>        -0.1387
      6 C6         -1.2849   -3.5888   -3.1276 C.ar      1 <0>        -0.0562
      7 C7         -0.6462   -1.7926   -1.5777 C.ar      1 <0>         0.3677
      8 C8         -0.0409   -0.5491   -1.4042 C.ar      1 <0>        -0.2089
      9 C9          0.4835    0.1122   -2.4953 C.ar      1 <0>         0.2712
     10 C10         1.0932    1.4876   -2.3895 C.3       1 <0>        -0.1214
     11 C11         2.1296    1.5430   -1.2648 C.3       1 <0>        -0.1157
     12 C12         1.4258    2.0267   -0.0007 C.3       1 <0>        -0.1317
     13 C13        -0.0186    1.5236    0.0104 C.3       1 <0>        -0.1294
     14 C14         0.0021   -0.0041    0.0020 C.3       1 <0>        -0.0699
     15 N1         -1.1934   -2.4714   -0.4997 N.pl3     1 <0>        -0.7942
     16 H1         -1.7539   -5.0450   -4.5892 H         1 <0>         0.1511
     17 H2         -0.7413   -3.7893   -6.4432 H         1 <0>         0.1529
     18 H3          0.3020   -1.6228   -6.0625 H         1 <0>         0.1538
     19 H4         -1.7330   -4.1494   -2.3205 H         1 <0>         0.1464
     20 H5          1.5760    1.7388   -3.3340 H         1 <0>         0.0963
     21 H6          0.3059    2.2135   -2.1859 H         1 <0>         0.1272
     22 H7          2.5459    0.5496   -1.0979 H         1 <0>         0.0733
     23 H8          2.9265    2.2373   -1.5317 H         1 <0>         0.0905
     24 H9          1.4304    3.1164    0.0225 H         1 <0>         0.0766
     25 H10         1.9498    1.6439    0.8751 H         1 <0>         0.0768
     26 H11        -0.5411    1.8884   -0.8739 H         1 <0>         0.0744
     27 H12        -0.5241    1.8789    0.9084 H         1 <0>         0.0847
     28 H13         0.9125   -0.3508    0.4909 H         1 <0>         0.0938
     29 H14        -0.8618   -0.3752    0.5535 H         1 <0>         0.0797
     30 H15        -1.1577   -2.0814    0.3878 H         1 <0>         0.4262
     31 H16        -1.6120   -3.3362   -0.6329 H         1 <0>         0.4218
     32 N2          0.4823   -0.3851   -3.7687 N.ar      1 <0>        -0.5507
     33 H17         0.9002    0.1304   -4.5522 H         1 <0>         0.4645
@<TRIPOS>BOND
     1    1    6 ar
     2    1    2 ar
     3    1   16 1
     4    2    3 ar
     5    2   17 1
     6    3    4 ar
     7    3   18 1
     8    4    5 ar
     9    4   32 ar
    10    5    6 ar
    11    5    7 ar
    12    6   19 1
    13    7    8 ar
    14    7   15 1
    15    8   14 1
    16    8    9 ar
    17    9   10 1
    18    9   32 ar
    19   10   11 1
    20   10   20 1
    21   10   21 1
    22   11   12 1
    23   11   22 1
    24   11   23 1
    25   12   13 1
    26   12   24 1
    27   12   25 1
    28   13   14 1
    29   13   26 1
    30   13   27 1
    31   14   28 1
    32   14   29 1
    33   15   30 1
    34   15   31 1
    35   32   33 1
@<TRIPOS>MOLECULE
ZINC13833593
   56    59     0     0     0
SMALL
USER_CHARGES
2-[4-[(2-butyl-4-oxo-1,3-diazaspiro[4.4]non-1-en-3-yl)methyl]phenyl]benzonitrile
@<TRIPOS>ATOM
      1 C1          0.8962    8.3246    0.0370 C.3       1 <0>        -0.1545
      2 C2          1.7058    7.0264    0.0226 C.3       1 <0>        -0.1264
      3 C3          0.7517    5.8303    0.0255 C.3       1 <0>        -0.1059
      4 C4          1.5613    4.5321    0.0110 C.3       1 <0>        -0.0674
      5 C5          0.6216    3.3540    0.0139 C.2       1 <0>         0.3510
      6 N1         -0.6628    3.4689    0.0268 N.2       1 <0>        -0.4921
      7 C6         -1.2190    2.1157    0.0184 C.3       1 <0>         0.0315
      8 C7         -2.0842    1.8669    1.2614 C.3       1 <0>        -0.0963
      9 C8         -3.5351    2.0790    0.7568 C.3       1 <0>        -0.1163
     10 C9         -3.4941    1.4811   -0.6721 C.3       1 <0>        -0.1162
     11 C10        -2.1013    1.8781   -1.2097 C.3       1 <0>        -0.0883
     12 C11        -0.0144    1.2083    0.0087 C.2       1 <0>         0.5064
     13 O1          0.0021   -0.0041    0.0020 O.2       1 <0>        -0.4775
     14 N2          1.0437    2.0514    0.0031 N.am      1 <0>        -0.5778
     15 C12         2.4465    1.6292   -0.0123 C.3       1 <0>         0.1481
     16 C13         2.9139    1.4913   -1.4384 C.ar      1 <0>        -0.1074
     17 C14         2.7871    0.2780   -2.0906 C.ar      1 <0>        -0.0910
     18 C15         3.2081    0.1472   -3.3983 C.ar      1 <0>        -0.0993
     19 C16         3.7723    1.2381   -4.0585 C.ar      1 <0>        -0.0527
     20 C17         3.9028    2.4569   -3.3939 C.ar      1 <0>        -0.0987
     21 C18         3.4733    2.5770   -2.0880 C.ar      1 <0>        -0.1026
     22 C19         4.2310    1.1027   -5.4610 C.ar      1 <0>        -0.0012
     23 C20         3.8352    2.0309   -6.4199 C.ar      1 <0>        -0.1061
     24 C21         4.2647    1.9013   -7.7253 C.ar      1 <0>        -0.0868
     25 C22         5.0905    0.8511   -8.0915 C.ar      1 <0>        -0.1167
     26 C23         5.4941   -0.0786   -7.1561 C.ar      1 <0>        -0.0685
     27 C24         5.0739    0.0388   -5.8304 C.ar      1 <0>        -0.0186
     28 C25         5.4941   -0.9203   -4.8535 C.1       1 <0>         0.2479
     29 N3          5.8274   -1.6812   -4.0786 N.1       1 <0>        -0.4045
     30 H1          1.5822    9.1845    0.0349 H         1 <0>         0.0545
     31 H2          0.2708    8.3566    0.9413 H         1 <0>         0.0554
     32 H3          0.2537    8.3659   -0.8549 H         1 <0>         0.0554
     33 H4          2.3312    6.9944   -0.8817 H         1 <0>         0.0621
     34 H5          2.3484    6.9851    0.9145 H         1 <0>         0.0623
     35 H6          0.1263    5.8624    0.9299 H         1 <0>         0.0742
     36 H7          0.1091    5.8717   -0.8663 H         1 <0>         0.0741
     37 H8          2.1867    4.5001   -0.8934 H         1 <0>         0.0955
     38 H9          2.2039    4.4907    0.9028 H         1 <0>         0.0951
     39 H10        -1.9174    0.8423    1.6251 H         1 <0>         0.0762
     40 H11        -1.8100    2.5846    2.0487 H         1 <0>         0.0766
     41 H12        -4.2348    1.5478    1.4187 H         1 <0>         0.0724
     42 H13        -3.7711    3.1534    0.7602 H         1 <0>         0.0754
     43 H14        -3.6192    0.3896   -0.6166 H         1 <0>         0.0715
     44 H15        -4.3072    1.9132   -1.2739 H         1 <0>         0.0745
     45 H16        -2.1563    2.8010   -1.8057 H         1 <0>         0.0843
     46 H17        -1.6694    1.0720   -1.8211 H         1 <0>         0.0693
     47 H18         3.0614    2.3811    0.5040 H         1 <0>         0.1022
     48 H19         2.5437    0.6610    0.5007 H         1 <0>         0.1013
     49 H20         2.3539   -0.5674   -1.5768 H         1 <0>         0.1284
     50 H21         3.1042   -0.7992   -3.9081 H         1 <0>         0.1226
     51 H22         4.3387    3.3054   -3.9004 H         1 <0>         0.1318
     52 H23         3.5738    3.5206   -1.5723 H         1 <0>         0.1295
     53 H24         3.1915    2.8525   -6.1425 H         1 <0>         0.1357
     54 H25         3.9552    2.6237   -8.4661 H         1 <0>         0.1350
     55 H26         5.4206    0.7600   -9.1158 H         1 <0>         0.1366
     56 H27         6.1379   -0.8949   -7.4486 H         1 <0>         0.1363
@<TRIPOS>BOND
     1    1    2 1
     2    1   30 1
     3    1   31 1
     4    1   32 1
     5    2    3 1
     6    2   33 1
     7    2   34 1
     8    3    4 1
     9    3   35 1
    10    3   36 1
    11    4    5 1
    12    4   37 1
    13    4   38 1
    14    5   14 1
    15    5    6 2
    16    6    7 1
    17    7   11 1
    18    7    8 1
    19    7   12 1
    20    8    9 1
    21    8   39 1
    22    8   40 1
    23    9   10 1
    24    9   41 1
    25    9   42 1
    26   10   11 1
    27   10   43 1
    28   10   44 1
    29   11   45 1
    30   11   46 1
    31   12   13 2
    32   12   14 am
    33   14   15 1
    34   15   16 1
    35   15   47 1
    36   15   48 1
    37   16   21 ar
    38   16   17 ar
    39   17   18 ar
    40   17   49 1
    41   18   19 ar
    42   18   50 1
    43   19   20 ar
    44   19   22 1
    45   20   21 ar
    46   20   51 1
    47   21   52 1
    48   22   27 ar
    49   22   23 ar
    50   23   24 ar
    51   23   53 1
    52   24   25 ar
    53   24   54 1
    54   25   26 ar
    55   25   55 1
    56   26   27 ar
    57   26   56 1
    58   27   28 1
    59   28   29 3
@<TRIPOS>MOLECULE
ZINC03806914
   32    34     0     0     0
SMALL
USER_CHARGES
9-amino-1,2,3,4-tetrahydroacridine-1,3-diol
@<TRIPOS>ATOM
      1 C1          2.5580   -2.6027    0.5872 C.ar      1 <0>        -0.1158
      2 C2          3.7187   -1.8332    0.5670 C.ar      1 <0>        -0.0261
      3 C3          3.6659   -0.4881    0.3651 C.ar      1 <0>        -0.1548
      4 C4          2.4231    0.1407    0.1744 C.ar      1 <0>         0.1870
      5 C5          1.2459   -0.6449    0.1956 C.ar      1 <0>        -0.1415
      6 C6          1.3363   -2.0276    0.4054 C.ar      1 <0>        -0.0523
      7 C7          0.0021   -0.0041    0.0020 C.ar      1 <0>         0.3903
      8 C8         -0.0098    1.3727   -0.2018 C.ar      1 <0>        -0.2208
      9 C9          1.1821    2.0754   -0.2048 C.ar      1 <0>         0.2832
     10 C10         1.2305    3.5703   -0.4041 C.3       1 <0>        -0.1555
     11 C11        -0.0694    4.0718   -1.0282 C.3       1 <0>         0.1161
     12 H1         -0.1496    3.7055   -2.0517 H         1 <0>         0.0755
     13 C12        -1.2430    3.5402   -0.1971 C.3       1 <0>        -0.1549
     14 C13        -1.3456    2.0326   -0.4196 C.3       1 <0>         0.1659
     15 H2         -1.6786    1.8418   -1.4398 H         1 <0>         0.0865
     16 O1         -2.2965    1.4850    0.4957 O.3       1 <0>        -0.5627
     17 O2         -0.0851    5.5007   -1.0225 O.3       1 <0>        -0.5486
     18 N1         -1.1793   -0.7296    0.0143 N.pl3     1 <0>        -0.7733
     19 H3          2.6273   -3.6683    0.7492 H         1 <0>         0.1518
     20 H4          4.6759   -2.3113    0.7135 H         1 <0>         0.1535
     21 H5          4.5755    0.0940    0.3514 H         1 <0>         0.1543
     22 H6          0.4426   -2.6338    0.4232 H         1 <0>         0.1478
     23 H7          1.3772    4.0568    0.5603 H         1 <0>         0.1293
     24 H8          2.0635    3.8183   -1.0620 H         1 <0>         0.1135
     25 H9         -1.0673    3.7444    0.8591 H         1 <0>         0.0930
     26 H10        -2.1671    4.0223   -0.5162 H         1 <0>         0.1011
     27 H11        -3.1831    1.8626    0.4147 H         1 <0>         0.4036
     28 H12         0.6413    5.9039   -1.5173 H         1 <0>         0.3904
     29 H13        -1.9957   -0.3328   -0.3275 H         1 <0>         0.4300
     30 H14        -1.1893   -1.6341    0.3647 H         1 <0>         0.4199
     31 N2          2.4089    1.5033   -0.0252 N.ar      1 <0>        -0.5525
     32 H15         3.2728    2.0581   -0.0383 H         1 <0>         0.4660
@<TRIPOS>BOND
     1    1    6 ar
     2    1    2 ar
     3    1   19 1
     4    2    3 ar
     5    2   20 1
     6    3    4 ar
     7    3   21 1
     8    4    5 ar
     9    4   31 ar
    10    5    6 ar
    11    5    7 ar
    12    6   22 1
    13    7    8 ar
    14    7   18 1
    15    8   14 1
    16    8    9 ar
    17    9   10 1
    18    9   31 ar
    19   10   11 1
    20   10   23 1
    21   10   24 1
    22   11   12 1
    23   11   13 1
    24   11   17 1
    25   13   14 1
    26   13   25 1
    27   13   26 1
    28   14   15 1
    29   14   16 1
    30   16   27 1
    31   17   28 1
    32   18   29 1
    33   18   30 1
    34   31   32 1
@<TRIPOS>MOLECULE
ZINC19796050
   37    39     0     0     0
SMALL
USER_CHARGES

@<TRIPOS>ATOM
      1 C1         -0.0184    1.5028    0.0103 C.3       1 <0>        -0.1375
      2 C2          0.0021   -0.0041    0.0020 C.2       1 <0>        -0.1076
      3 C3         -1.1234   -0.6744    0.0092 C.2       1 <0>        -0.1652
      4 C4         -2.4960   -0.0123    0.0193 C.3       1 <0>        -0.0011
      5 H1         -2.4129    1.0627   -0.1403 H         1 <0>         0.1246
      6 C5         -3.1070   -0.3186    1.3902 C.3       1 <0>        -0.0998
      7 C6         -3.0034   -1.7886    1.7079 C.2       1 <0>         0.2465
      8 C7         -2.1410   -2.6282    1.1033 C.2       1 <0>        -0.2448
      9 C8         -2.1016   -3.9856    1.4792 C.2       1 <0>        -0.0472
     10 C9         -2.9396   -4.4482    2.4460 C.2       1 <0>        -0.1975
     11 C10        -3.8368   -3.5512    3.0511 C.2       1 <0>         0.5174
     12 O1         -4.6023   -3.9423    3.9176 O.2       1 <0>        -0.5134
     13 N1         -3.8491   -2.2639    2.6734 N.am      1 <0>        -0.6088
     14 H2         -4.4740   -1.6539    3.0957 H         1 <0>         0.4241
     15 C11        -1.1948   -2.1939    0.0017 C.3       1 <0>         0.1727
     16 C12        -1.8053   -2.5953   -1.3498 C.3       1 <0>        -0.0814
     17 C13        -3.0324   -1.7778   -1.6215 C.2       1 <0>        -0.1018
     18 C14        -3.3273   -0.6547   -1.0592 C.2       1 <0>        -0.1547
     19 C15        -3.9923   -2.2986   -2.6599 C.3       1 <0>        -0.1299
     20 N2          0.1376   -2.7833    0.1896 N.4       1 <0>        -0.6289
     21 H3          1.0042    1.8801    0.0026 H         1 <0>         0.0766
     22 H4         -0.5455    1.8639   -0.8728 H         1 <0>         0.0831
     23 H5         -0.5286    1.8543    0.9071 H         1 <0>         0.0810
     24 H6          0.9446   -0.5313   -0.0098 H         1 <0>         0.1110
     25 H7         -2.5778    0.2514    2.1539 H         1 <0>         0.1147
     26 H8         -4.1568   -0.0253    1.3884 H         1 <0>         0.1097
     27 H9         -1.4060   -4.6586    1.0001 H         1 <0>         0.1321
     28 H10        -2.9161   -5.4863    2.7431 H         1 <0>         0.1635
     29 H11        -1.0751   -2.4257   -2.1412 H         1 <0>         0.1017
     30 H12        -2.0723   -3.6518   -1.3266 H         1 <0>         0.1027
     31 H13        -4.2382   -0.1584   -1.3598 H         1 <0>         0.1270
     32 H14        -4.7304   -2.9427   -2.1819 H         1 <0>         0.0742
     33 H15        -4.4978   -1.4607   -3.1401 H         1 <0>         0.0744
     34 H16        -3.4430   -2.8691   -3.4089 H         1 <0>         0.0686
     35 H17         0.5173   -2.4811    1.0742 H         1 <0>         0.4399
     36 H18         0.0645   -3.7896    0.1810 H         1 <0>         0.4359
     37 H19         0.7462   -2.4839   -0.5575 H         1 <0>         0.4382
@<TRIPOS>BOND
     1    1    2 1
     2    1   21 1
     3    1   22 1
     4    1   23 1
     5    2    3 2
     6    2   24 1
     7    3   15 1
     8    3    4 1
     9    4    5 1
    10    4   18 1
    11    4    6 1
    12    6    7 1
    13    6   25 1
    14    6   26 1
    15    7   13 1
    16    7    8 2
    17    8    9 1
    18    8   15 1
    19    9   10 2
    20    9   27 1
    21   10   11 1
    22   10   28 1
    23   11   12 2
    24   11   13 am
    25   13   14 1
    26   15   16 1
    27   15   20 1
    28   16   17 1
    29   16   29 1
    30   16   30 1
    31   17   18 2
    32   17   19 1
    33   18   31 1
    34   19   32 1
    35   19   33 1
    36   19   34 1
    37   20   35 1
    38   20   36 1
    39   20   37 1
@<TRIPOS>MOLECULE
ZINC14947254
   85    90     0     0     0
SMALL
USER_CHARGES
N,N'-bis(1,2,3,4-tetrahydroacridin-9-yl)nonane-1,9-diamine
@<TRIPOS>ATOM
      1 C1         -0.7553    7.2078   -3.4311 C.ar      1 <0>        -0.0988
      2 C2         -0.6596    7.8712   -2.2102 C.ar      1 <0>        -0.0306
      3 C3         -0.7726    7.1961   -1.0336 C.ar      1 <0>        -0.1490
      4 C4         -0.9903    5.8074   -1.0439 C.ar      1 <0>         0.1648
      5 C5         -1.0887    5.1372   -2.2866 C.ar      1 <0>        -0.1244
      6 C6         -0.9664    5.8625   -3.4795 C.ar      1 <0>        -0.0717
      7 C7         -1.3107    3.7421   -2.2865 C.ar      1 <0>         0.2763
      8 C8         -1.4223    3.0886   -1.0629 C.ar      1 <0>        -0.1190
      9 C9         -1.3103    3.8105    0.1124 C.ar      1 <0>         0.2585
     10 C10        -1.4069    3.1550    1.4680 C.3       1 <0>        -0.1200
     11 C11        -2.0650    1.7821    1.3559 C.3       1 <0>        -0.1223
     12 C12        -1.3364    0.9824    0.2696 C.3       1 <0>        -0.1330
     13 C13        -1.6649    1.6027   -1.0869 C.3       1 <0>        -0.0668
     14 N1         -1.4154    3.0403   -3.4777 N.pl3     1 <0>        -0.6445
     15 C14        -2.7827    3.1085   -4.0104 C.3       1 <0>         0.0613
     16 C15        -2.8885    2.2286   -5.2576 C.3       1 <0>        -0.1208
     17 C16        -4.3126    2.2995   -5.8125 C.3       1 <0>        -0.1192
     18 C17        -4.4185    1.4196   -7.0596 C.3       1 <0>        -0.1202
     19 C18        -5.8425    1.4906   -7.6145 C.3       1 <0>        -0.1209
     20 C19        -5.9484    0.6107   -8.8616 C.3       1 <0>        -0.1203
     21 C20        -7.3725    0.6817   -9.4165 C.3       1 <0>        -0.1189
     22 C21        -7.4783   -0.1983  -10.6637 C.3       1 <0>        -0.1226
     23 C22        -8.9024   -0.1273  -11.2185 C.3       1 <0>         0.0596
     24 N2         -9.0041   -0.9721  -12.4160 N.pl3     1 <0>        -0.6457
     25 C23       -10.2630   -0.8734  -12.9883 C.ar      1 <0>         0.2770
     26 C24       -10.5763    0.1871  -13.8673 C.ar      1 <0>        -0.1247
     27 C25        -9.6337    1.1691  -14.2003 C.ar      1 <0>        -0.0716
     28 C26        -9.9784    2.1703  -15.0580 C.ar      1 <0>        -0.0988
     29 C27       -11.2552    2.2269  -15.6115 C.ar      1 <0>        -0.0304
     30 C28       -12.1925    1.2863  -15.3125 C.ar      1 <0>        -0.1491
     31 C29       -11.8732    0.2381  -14.4319 C.ar      1 <0>         0.1650
     32 C30       -12.4980   -1.6940  -13.2900 C.ar      1 <0>         0.2577
     33 C31       -11.2493   -1.8136  -12.7057 C.ar      1 <0>        -0.1177
     34 C32       -10.8936   -2.9340  -11.7646 C.3       1 <0>        -0.0655
     35 C33       -12.1558   -3.6087  -11.2313 C.3       1 <0>        -0.1331
     36 C34       -13.0500   -3.9688  -12.4234 C.3       1 <0>        -0.1231
     37 C35       -13.6091   -2.6773  -13.0153 C.3       1 <0>        -0.1194
     38 H1         -0.6613    7.7665   -4.3506 H         1 <0>         0.1538
     39 H2         -0.4928    8.9382   -2.1969 H         1 <0>         0.1565
     40 H3         -0.6956    7.7256   -0.0955 H         1 <0>         0.1563
     41 H4         -1.0384    5.3580   -4.4317 H         1 <0>         0.1492
     42 H5         -0.4059    3.0401    1.8838 H         1 <0>         0.1235
     43 H6         -2.0004    3.7851    2.1304 H         1 <0>         0.1117
     44 H7         -3.1139    1.8998    1.0837 H         1 <0>         0.0793
     45 H8         -1.9894    1.2594    2.3094 H         1 <0>         0.0965
     46 H9         -1.6715   -0.0546    0.2900 H         1 <0>         0.0916
     47 H10        -0.2609    1.0243    0.4418 H         1 <0>         0.0761
     48 H11        -1.0353    1.1481   -1.8518 H         1 <0>         0.1073
     49 H12        -2.7116    1.4133   -1.3247 H         1 <0>         0.0928
     50 H13        -0.7464    3.3753   -4.1547 H         1 <0>         0.3759
     51 H14        -3.4848    2.7547   -3.2555 H         1 <0>         0.0885
     52 H15        -3.0196    4.1397   -4.2721 H         1 <0>         0.0543
     53 H16        -2.1864    2.5823   -6.0125 H         1 <0>         0.0704
     54 H17        -2.6515    1.1973   -4.9959 H         1 <0>         0.0818
     55 H18        -5.0147    1.9457   -5.0575 H         1 <0>         0.0658
     56 H19        -4.5496    3.3308   -6.0742 H         1 <0>         0.0632
     57 H20        -3.7163    1.7734   -7.8146 H         1 <0>         0.0638
     58 H21        -4.1815    0.3884   -6.7979 H         1 <0>         0.0658
     59 H22        -6.5447    1.1368   -6.8595 H         1 <0>         0.0627
     60 H23        -6.0795    2.5218   -7.8762 H         1 <0>         0.0612
     61 H24        -5.2463    0.9645   -9.6166 H         1 <0>         0.0637
     62 H25        -5.7114   -0.4206   -8.5999 H         1 <0>         0.0659
     63 H26        -8.0746    0.3279   -8.6616 H         1 <0>         0.0666
     64 H27        -7.6095    1.7129   -9.6782 H         1 <0>         0.0633
     65 H28        -6.7762    0.1555  -11.4186 H         1 <0>         0.0699
     66 H29        -7.2414   -1.2295  -10.4020 H         1 <0>         0.0826
     67 H30        -9.6046   -0.4811  -10.4636 H         1 <0>         0.0906
     68 H31        -9.1394    0.9039  -11.4803 H         1 <0>         0.0530
     69 H32        -8.2841   -0.7407  -13.0839 H         1 <0>         0.3761
     70 H33        -8.6408    1.1347  -13.7768 H         1 <0>         0.1492
     71 H34        -9.2530    2.9292  -15.3113 H         1 <0>         0.1537
     72 H35       -11.5056    3.0302  -16.2886 H         1 <0>         0.1565
     73 H36       -13.1780    1.3448  -15.7505 H         1 <0>         0.1563
     74 H37       -10.2891   -3.6702  -12.2945 H         1 <0>         0.1007
     75 H38       -10.3204   -2.5329  -10.9287 H         1 <0>         0.0990
     76 H39       -11.8865   -4.5140  -10.6873 H         1 <0>         0.0919
     77 H40       -12.6852   -2.9251  -10.5675 H         1 <0>         0.0735
     78 H41       -12.4623   -4.4929  -13.1771 H         1 <0>         0.0815
     79 H42       -13.8682   -4.6063  -12.0883 H         1 <0>         0.0965
     80 H43       -14.1270   -2.9038  -13.9472 H         1 <0>         0.1123
     81 H44       -14.3137   -2.2349  -12.3111 H         1 <0>         0.1224
     82 N3         -1.0995    5.1585    0.1660 N.ar      1 <0>        -0.5152
     83 H45        -1.0265    5.6606    1.0587 H         1 <0>         0.4695
     84 N4        -12.8472   -0.6949  -14.1528 N.ar      1 <0>        -0.5148
     85 H46       -13.7837   -0.6422  -14.5704 H         1 <0>         0.4695
@<TRIPOS>BOND
     1    1    6 ar
     2    1    2 ar
     3    1   38 1
     4    2    3 ar
     5    2   39 1
     6    3    4 ar
     7    3   40 1
     8    4    5 ar
     9    4   82 ar
    10    5    6 ar
    11    5    7 ar
    12    6   41 1
    13    7    8 ar
    14    7   14 1
    15    8   13 1
    16    8    9 ar
    17    9   10 1
    18    9   82 ar
    19   10   11 1
    20   10   42 1
    21   10   43 1
    22   11   12 1
    23   11   44 1
    24   11   45 1
    25   12   13 1
    26   12   46 1
    27   12   47 1
    28   13   48 1
    29   13   49 1
    30   14   15 1
    31   14   50 1
    32   15   16 1
    33   15   51 1
    34   15   52 1
    35   16   17 1
    36   16   53 1
    37   16   54 1
    38   17   18 1
    39   17   55 1
    40   17   56 1
    41   18   19 1
    42   18   57 1
    43   18   58 1
    44   19   20 1
    45   19   59 1
    46   19   60 1
    47   20   21 1
    48   20   61 1
    49   20   62 1
    50   21   22 1
    51   21   63 1
    52   21   64 1
    53   22   23 1
    54   22   65 1
    55   22   66 1
    56   23   24 1
    57   23   67 1
    58   23   68 1
    59   24   25 1
    60   24   69 1
    61   25   33 ar
    62   25   26 ar
    63   26   31 ar
    64   26   27 ar
    65   27   28 ar
    66   27   70 1
    67   28   29 ar
    68   28   71 1
    69   29   30 ar
    70   29   72 1
    71   30   31 ar
    72   30   73 1
    73   31   84 ar
    74   32   37 1
    75   32   33 ar
    76   32   84 ar
    77   33   34 1
    78   34   35 1
    79   34   74 1
    80   34   75 1
    81   35   36 1
    82   35   76 1
    83   35   77 1
    84   36   37 1
    85   36   78 1
    86   36   79 1
    87   37   80 1
    88   37   81 1
    89   82   83 1
    90   84   85 1
@<TRIPOS>MOLECULE
ZINC14946467
   31    33     0     0     0
SMALL
USER_CHARGES

@<TRIPOS>ATOM
      1 C1          0.0471    1.3858    0.6482 C.ar      1 <0>        -0.1513
      2 C2          1.1879    2.1001    0.4378 C.ar      1 <0>        -0.0193
      3 C3          2.3940    1.4268    0.2015 C.ar      1 <0>        -0.1591
      4 C4          2.4178    0.0113    0.1853 C.ar      1 <0>         0.2148
      5 C5          1.2229   -0.6934    0.4058 C.ar      1 <0>        -0.1988
      6 C6          0.0652   -0.0086    0.6320 C.ar      1 <0>         0.2045
      7 F1         -1.0813   -0.6914    0.8434 F         1 <0>        -0.1056
      8 N1          3.5672   -0.6288   -0.0373 N.ar      1 <0>        -0.5205
      9 C7          4.7064    0.0075   -0.2512 C.ar      1 <0>         0.2770
     10 C8          4.7595    1.3902   -0.2554 C.ar      1 <0>        -0.2194
     11 C9          3.6005    2.1254   -0.0247 C.ar      1 <0>         0.3844
     12 N2          3.6296    3.5116   -0.0176 N.pl3     1 <0>        -0.7756
     13 C10         6.0306    2.1563   -0.5100 C.3       1 <0>         0.1586
     14 C11         7.2489    1.2552   -0.3191 C.3       1 <0>        -0.1597
     15 C12         7.0381   -0.0218   -1.1409 C.3       1 <0>        -0.1178
     16 C13         5.9316   -0.8423   -0.4826 C.3       1 <0>        -0.1126
     17 O1          6.1094    3.2543    0.4011 O.3       1 <0>        -0.5672
     18 H1         -0.8813    1.9054    0.8341 H         1 <0>         0.1656
     19 H2          1.1629    3.1797    0.4527 H         1 <0>         0.1579
     20 H3          1.2207   -1.7733    0.3959 H         1 <0>         0.1688
     21 H4          2.8829    4.0104    0.3492 H         1 <0>         0.4191
     22 H5          4.3965    3.9825   -0.3793 H         1 <0>         0.4303
     23 H6          6.0220    2.5375   -1.5312 H         1 <0>         0.0833
     24 H7          8.1448    1.7708   -0.6650 H         1 <0>         0.0926
     25 H8          7.3553    1.0000    0.7352 H         1 <0>         0.0867
     26 H9          6.7452    0.2402   -2.1576 H         1 <0>         0.0825
     27 H10         7.9613   -0.6010   -1.1623 H         1 <0>         0.1002
     28 H11         6.2888   -1.2257    0.4732 H         1 <0>         0.1230
     29 H12         5.6712   -1.6795   -1.1302 H         1 <0>         0.1140
     30 H13         6.9040    3.7956    0.2970 H         1 <0>         0.4017
     31 H14         3.5671   -1.5987   -0.0421 H         1 <0>         0.4420
@<TRIPOS>BOND
     1    1    6 ar
     2    1    2 ar
     3    1   18 1
     4    2    3 ar
     5    2   19 1
     6    3   11 ar
     7    3    4 ar
     8    4    5 ar
     9    4    8 ar
    10    5    6 ar
    11    5   20 1
    12    6    7 1
    13    8    9 ar
    14    8   31 1
    15    9   16 1
    16    9   10 ar
    17   10   11 ar
    18   10   13 1
    19   11   12 1
    20   12   21 1
    21   12   22 1
    22   13   14 1
    23   13   17 1
    24   13   23 1
    25   14   15 1
    26   14   24 1
    27   14   25 1
    28   15   16 1
    29   15   26 1
    30   15   27 1
    31   16   28 1
    32   16   29 1
    33   17   30 1
@<TRIPOS>MOLECULE
ZINC14946468
   30    32     0     0     0
SMALL
USER_CHARGES
(1R)-9-amino-6-fluoro-1,2,3,4-tetrahydroacridin-1-ol
@<TRIPOS>ATOM
      1 C1          2.4026    0.0332   -0.0206 C.ar      1 <0>        -0.1713
      2 C2          2.4202    1.3954   -0.0132 C.ar      1 <0>        -0.0459
      3 C3          1.2114    2.1043    0.0018 C.ar      1 <0>        -0.1794
      4 C4         -0.0170    1.4004    0.0097 C.ar      1 <0>         0.2088
      5 C5          0.0021   -0.0041    0.0020 C.ar      1 <0>        -0.1502
      6 C6          1.1952   -0.6648   -0.0129 C.ar      1 <0>         0.1376
      7 F1          1.2075   -2.0157   -0.0200 F         1 <0>        -0.1332
      8 N1         -1.1671    2.0768    0.0188 N.ar      1 <0>        -0.5335
      9 C7         -1.2159    3.3982    0.0308 C.ar      1 <0>         0.2361
     10 C8         -0.0563    4.1532    0.0276 C.ar      1 <0>        -0.2369
     11 C9          1.1811    3.5164    0.0111 C.ar      1 <0>         0.3040
     12 N2          2.3569    4.2511    0.0043 N.pl3     1 <0>        -0.8422
     13 C10        -0.0637    5.6588    0.0490 C.3       1 <0>         0.1626
     14 H1          0.6906    6.0318   -0.6439 H         1 <0>         0.0551
     15 C11        -1.4337    6.1951   -0.3613 C.3       1 <0>        -0.1516
     16 C12        -2.5003    5.4898    0.4847 C.3       1 <0>        -0.1167
     17 C13        -2.5851    4.0323    0.0382 C.3       1 <0>        -0.0747
     18 O1          0.2442    6.1128    1.3686 O.3       1 <0>        -0.5615
     19 H2          3.3345   -0.5126   -0.0321 H         1 <0>         0.1407
     20 H3          3.3607    1.9262   -0.0196 H         1 <0>         0.1320
     21 H4         -0.9246   -0.5587    0.0083 H         1 <0>         0.1490
     22 H5          3.2133    3.7957   -0.0070 H         1 <0>         0.4034
     23 H6          2.3231    5.2205    0.0108 H         1 <0>         0.4086
     24 H7         -1.6074    5.9894   -1.4175 H         1 <0>         0.0766
     25 H8         -1.4761    7.2698   -0.1845 H         1 <0>         0.0742
     26 H9         -3.4651    5.9750    0.3367 H         1 <0>         0.0748
     27 H10        -2.2253    5.5348    1.5385 H         1 <0>         0.0759
     28 H11        -3.0070    3.9881   -0.9659 H         1 <0>         0.0894
     29 H12        -3.2312    3.4842    0.7238 H         1 <0>         0.0911
     30 H13         0.2579    7.0754    1.4601 H         1 <0>         0.3773
@<TRIPOS>BOND
     1    1    6 ar
     2    1    2 ar
     3    1   19 1
     4    2    3 ar
     5    2   20 1
     6    3   11 ar
     7    3    4 ar
     8    4    5 ar
     9    4    8 ar
    10    5    6 ar
    11    5   21 1
    12    6    7 1
    13    8    9 ar
    14    9   17 1
    15    9   10 ar
    16   10   11 ar
    17   10   13 1
    18   11   12 1
    19   12   22 1
    20   12   23 1
    21   13   14 1
    22   13   15 1
    23   13   18 1
    24   15   16 1
    25   15   24 1
    26   15   25 1
    27   16   17 1
    28   16   26 1
    29   16   27 1
    30   17   28 1
    31   17   29 1
    32   18   30 1
@<TRIPOS>MOLECULE
ZINC14946463
   35    37     0     0     0
SMALL
USER_CHARGES
(1S)-9-amino-6-methoxy-1,2,3,4-tetrahydroacridin-1-ol
@<TRIPOS>ATOM
      1 C1         -0.9465    1.1485   -0.4550 C.3       1 <0>         0.0154
      2 O1         -1.4240    1.5962    0.8153 O.3       1 <0>        -0.2964
      3 C2         -1.3473    2.9286    1.0683 C.ar      1 <0>         0.2241
      4 C3         -0.8122    3.7856    0.1019 C.ar      1 <0>        -0.2022
      5 C4         -0.7292    5.1249    0.3289 C.ar      1 <0>        -0.0064
      6 C5         -1.1734    5.6545    1.5488 C.ar      1 <0>        -0.1800
      7 C6         -1.7133    4.7959    2.5368 C.ar      1 <0>         0.2307
      8 C7         -1.7921    3.4183    2.2751 C.ar      1 <0>        -0.2092
      9 C8         -2.0793    6.5965    3.9700 C.ar      1 <0>         0.2807
     10 C9         -1.5590    7.4948    3.0562 C.ar      1 <0>        -0.2217
     11 C10        -1.0977    7.0371    1.8247 C.ar      1 <0>         0.3947
     12 N1         -0.5755    7.9189    0.8910 N.pl3     1 <0>        -0.7777
     13 C11        -1.4568    8.9715    3.3327 C.3       1 <0>         0.1612
     14 H1         -0.4264    9.2189    3.5877 H         1 <0>         0.0819
     15 C12        -2.3701    9.3657    4.4917 C.3       1 <0>        -0.1595
     16 C13        -2.0888    8.4249    5.6691 C.3       1 <0>        -0.1181
     17 C14        -2.6109    7.0353    5.3122 C.3       1 <0>        -0.1184
     18 O2         -1.8400    9.6975    2.1630 O.3       1 <0>        -0.5674
     19 H2         -1.0651    0.0674   -0.5273 H         1 <0>         0.1178
     20 H3          0.1076    1.4060   -0.5582 H         1 <0>         0.0691
     21 H4         -1.5176    1.6306   -1.2484 H         1 <0>         0.0692
     22 H5         -0.4651    3.3808   -0.8373 H         1 <0>         0.1564
     23 H6         -0.3172    5.7774   -0.4266 H         1 <0>         0.1510
     24 H7         -2.1991    2.7471    3.0168 H         1 <0>         0.1613
     25 H8         -0.3266    8.8175    1.1585 H         1 <0>         0.4291
     26 H9         -0.4590    7.6374   -0.0299 H         1 <0>         0.4178
     27 H10        -2.1653   10.3948    4.7870 H         1 <0>         0.0911
     28 H11        -3.4122    9.2710    4.1867 H         1 <0>         0.0859
     29 H12        -1.0153    8.3772    5.8516 H         1 <0>         0.0815
     30 H13        -2.5992    8.7903    6.5602 H         1 <0>         0.0976
     31 H14        -3.7001    7.0587    5.2771 H         1 <0>         0.1200
     32 H15        -2.2919    6.3248    6.0748 H         1 <0>         0.1115
     33 H16        -1.7992   10.6582    2.2654 H         1 <0>         0.4006
     34 N2         -2.1704    5.2509    3.7542 N.ar      1 <0>        -0.5578
     35 H17        -2.5581    4.6138    4.4600 H         1 <0>         0.4662
@<TRIPOS>BOND
     1    1    2 1
     2    1   19 1
     3    1   20 1
     4    1   21 1
     5    2    3 1
     6    3    8 ar
     7    3    4 ar
     8    4    5 ar
     9    4   22 1
    10    5    6 ar
    11    5   23 1
    12    6   11 ar
    13    6    7 ar
    14    7    8 ar
    15    7   34 ar
    16    8   24 1
    17    9   17 1
    18    9   10 ar
    19    9   34 ar
    20   10   11 ar
    21   10   13 1
    22   11   12 1
    23   12   25 1
    24   12   26 1
    25   13   14 1
    26   13   15 1
    27   13   18 1
    28   15   16 1
    29   15   27 1
    30   15   28 1
    31   16   17 1
    32   16   29 1
    33   16   30 1
    34   17   31 1
    35   17   32 1
    36   18   33 1
    37   34   35 1
@<TRIPOS>MOLECULE
ZINC14946464
   35    37     0     0     0
SMALL
USER_CHARGES
(1R)-9-amino-6-methoxy-1,2,3,4-tetrahydroacridin-1-ol
@<TRIPOS>ATOM
      1 C1          1.2479    2.0201    0.0010 C.3       1 <0>         0.0151
      2 O1         -0.0163    1.3541    0.0095 O.3       1 <0>        -0.2958
      3 C2          0.0021   -0.0041    0.0020 C.ar      1 <0>         0.2249
      4 C3          1.2267   -0.6783   -0.0190 C.ar      1 <0>        -0.2007
      5 C4          1.2722   -2.0384   -0.0217 C.ar      1 <0>        -0.0073
      6 C5          0.0801   -2.7764   -0.0137 C.ar      1 <0>        -0.1784
      7 C6         -1.1663   -2.1046    0.0020 C.ar      1 <0>         0.2315
      8 C7         -1.1850   -0.7003    0.0096 C.ar      1 <0>        -0.2082
      9 C8         -2.3137   -4.1328    0.0019 C.ar      1 <0>         0.2906
     10 C9         -1.1357   -4.8572   -0.0162 C.ar      1 <0>        -0.2203
     11 C10         0.0855   -4.1882   -0.0218 C.ar      1 <0>         0.3925
     12 N1          1.2797   -4.8926   -0.0355 N.pl3     1 <0>        -0.7891
     13 C11        -1.1047   -6.3626   -0.0349 C.3       1 <0>         0.1600
     14 H1         -0.3297   -6.7145    0.6460 H         1 <0>         0.0742
     15 C12        -2.4533   -6.9335    0.3989 C.3       1 <0>        -0.1591
     16 C13        -3.5521   -6.2566   -0.4290 C.3       1 <0>        -0.1184
     17 C14        -3.6662   -4.8015    0.0189 C.3       1 <0>        -0.1187
     18 O2         -0.8069   -6.8113   -1.3586 O.3       1 <0>        -0.5615
     19 H2          1.8173    1.7301    0.8840 H         1 <0>         0.0693
     20 H3          1.8003    1.7397   -0.8958 H         1 <0>         0.0694
     21 H4          1.0905    3.0987    0.0083 H         1 <0>         0.1181
     22 H5          2.1471   -0.1133   -0.0295 H         1 <0>         0.1571
     23 H6          2.2243   -2.5481   -0.0336 H         1 <0>         0.1510
     24 H7         -2.1257   -0.1699    0.0217 H         1 <0>         0.1620
     25 H8          1.2706   -5.8625   -0.0413 H         1 <0>         0.4267
     26 H9          2.1242   -4.4154   -0.0393 H         1 <0>         0.4212
     27 H10        -2.6142   -6.7315    1.4578 H         1 <0>         0.0849
     28 H11        -2.4712   -8.0091    0.2233 H         1 <0>         0.0921
     29 H12        -4.5015   -6.7664   -0.2655 H         1 <0>         0.0937
     30 H13        -3.2920   -6.2956   -1.4868 H         1 <0>         0.0872
     31 H14        -4.0712   -4.7676    1.0304 H         1 <0>         0.1203
     32 H15        -4.3382   -4.2703   -0.6551 H         1 <0>         0.1115
     33 H16        -0.7531   -7.7729   -1.4451 H         1 <0>         0.3949
     34 N2         -2.3735   -2.7683    0.0113 N.ar      1 <0>        -0.5572
     35 H17        -3.2685   -2.2651    0.0246 H         1 <0>         0.4665
@<TRIPOS>BOND
     1    1    2 1
     2    1   19 1
     3    1   20 1
     4    1   21 1
     5    2    3 1
     6    3    8 ar
     7    3    4 ar
     8    4    5 ar
     9    4   22 1
    10    5    6 ar
    11    5   23 1
    12    6   11 ar
    13    6    7 ar
    14    7    8 ar
    15    7   34 ar
    16    8   24 1
    17    9   17 1
    18    9   10 ar
    19    9   34 ar
    20   10   11 ar
    21   10   13 1
    22   11   12 1
    23   12   25 1
    24   12   26 1
    25   13   14 1
    26   13   15 1
    27   13   18 1
    28   15   16 1
    29   15   27 1
    30   15   28 1
    31   16   17 1
    32   16   29 1
    33   16   30 1
    34   17   31 1
    35   17   32 1
    36   18   33 1
    37   34   35 1
@<TRIPOS>MOLECULE
ZINC14946469
   28    30     0     0     0
SMALL
USER_CHARGES
(1S)-9-amino-2,3-dihydro-1H-cyclopenta[b]quinolin-1-ol
@<TRIPOS>ATOM
      1 C1          3.4550    3.5217   -0.0127 C.ar      1 <0>        -0.1126
      2 C2          2.2174    4.1603   -0.0002 C.ar      1 <0>        -0.0280
      3 C3          1.0588    3.4459    0.0075 C.ar      1 <0>        -0.1510
      4 C4          1.1050    2.0408    0.0025 C.ar      1 <0>         0.1859
      5 C5          2.3647    1.3957   -0.0105 C.ar      1 <0>        -0.1346
      6 C6          3.5384    2.1617   -0.0174 C.ar      1 <0>        -0.0548
      7 C7          2.4049   -0.0179   -0.0177 C.ar      1 <0>         0.3933
      8 C8          1.2003   -0.7061   -0.0120 C.ar      1 <0>        -0.2392
      9 C9          0.0021   -0.0041    0.0020 C.ar      1 <0>         0.2649
     10 C10        -1.1552   -0.9839    0.0066 C.3       1 <0>        -0.1037
     11 C11        -0.5511   -2.3282   -0.4500 C.3       1 <0>        -0.1480
     12 C12         0.9248   -2.1938   -0.0196 C.3       1 <0>         0.1596
     13 H1          1.5751   -2.6954   -0.7363 H         1 <0>         0.0828
     14 O1          1.1140   -2.7399    1.2873 O.3       1 <0>        -0.5586
     15 N1          3.6137   -0.6967   -0.0304 N.pl3     1 <0>        -0.7891
     16 H2          4.3597    4.1117   -0.0188 H         1 <0>         0.1527
     17 H3          2.1762    5.2395    0.0037 H         1 <0>         0.1545
     18 H4          0.1073    3.9568    0.0172 H         1 <0>         0.1555
     19 H5          4.5033    1.6768   -0.0265 H         1 <0>         0.1480
     20 H6         -1.5677   -1.0769    1.0113 H         1 <0>         0.1262
     21 H7         -1.9274   -0.6601   -0.6913 H         1 <0>         0.1131
     22 H8         -0.6303   -2.4408   -1.5313 H         1 <0>         0.0994
     23 H9         -1.0289   -3.1642    0.0607 H         1 <0>         0.1083
     24 H10         0.9512   -3.6915    1.3433 H         1 <0>         0.3970
     25 H11         3.6253   -1.6666   -0.0355 H         1 <0>         0.4280
     26 H12         4.4479   -0.2017   -0.0343 H         1 <0>         0.4221
     27 N2         -0.0892    1.3531    0.0102 N.ar      1 <0>        -0.5374
     28 H13        -0.9948    1.8368    0.0215 H         1 <0>         0.4657
@<TRIPOS>BOND
     1    1    6 ar
     2    1    2 ar
     3    1   16 1
     4    2    3 ar
     5    2   17 1
     6    3    4 ar
     7    3   18 1
     8    4    5 ar
     9    4   27 ar
    10    5    6 ar
    11    5    7 ar
    12    6   19 1
    13    7    8 ar
    14    7   15 1
    15    8   12 1
    16    8    9 ar
    17    9   10 1
    18    9   27 ar
    19   10   11 1
    20   10   20 1
    21   10   21 1
    22   11   12 1
    23   11   22 1
    24   11   23 1
    25   12   13 1
    26   12   14 1
    27   14   24 1
    28   15   25 1
    29   15   26 1
    30   27   28 1
@<TRIPOS>MOLECULE
ZINC14946470
   28    30     0     0     0
SMALL
USER_CHARGES
(1R)-9-amino-2,3-dihydro-1H-cyclopenta[b]quinolin-1-ol
@<TRIPOS>ATOM
      1 C1         -3.8140    7.0592    0.5854 C.ar      1 <0>        -0.1132
      2 C2         -3.7865    7.0072   -0.8061 C.ar      1 <0>        -0.0285
      3 C3         -3.2107    5.9604   -1.4584 C.ar      1 <0>        -0.1515
      4 C4         -2.6329    4.9115   -0.7218 C.ar      1 <0>         0.1857
      5 C5         -2.6619    4.9688    0.6921 C.ar      1 <0>        -0.1356
      6 C6         -3.2635    6.0610    1.3318 C.ar      1 <0>        -0.0548
      7 C7         -2.0763    3.9123    1.4276 C.ar      1 <0>         0.3938
      8 C8         -1.5000    2.8657    0.7225 C.ar      1 <0>        -0.2383
      9 C9         -1.5115    2.8776   -0.6663 C.ar      1 <0>         0.2549
     10 C10        -0.8247    1.6295   -1.1859 C.3       1 <0>        -0.1034
     11 C11        -0.0127    1.0858    0.0080 C.3       1 <0>        -0.1507
     12 C12        -0.8019    1.6167    1.2233 C.3       1 <0>         0.1616
     13 H1         -1.5355    0.8794    1.5495 H         1 <0>         0.0906
     14 O1          0.0903    1.9368    2.2927 O.3       1 <0>        -0.5646
     15 N1         -2.0778    3.9223    2.8140 N.pl3     1 <0>        -0.7824
     16 H2         -4.2770    7.9010    1.0787 H         1 <0>         0.1523
     17 H3         -4.2289    7.8104   -1.3767 H         1 <0>         0.1541
     18 H4         -3.1973    5.9359   -2.5381 H         1 <0>         0.1551
     19 H5         -3.2909    6.1111    2.4103 H         1 <0>         0.1477
     20 H6         -0.1597    1.8803   -2.0123 H         1 <0>         0.1137
     21 H7         -1.5650    0.8958   -1.5049 H         1 <0>         0.1258
     22 H8          0.0021   -0.0041    0.0020 H         1 <0>         0.1061
     23 H9          1.0015    1.4852    0.0005 H         1 <0>         0.1005
     24 H10         0.5965    1.1815    2.6220 H         1 <0>         0.4009
     25 H11        -2.4843    4.6612    3.2932 H         1 <0>         0.4200
     26 H12        -1.6722    3.1905    3.3048 H         1 <0>         0.4322
     27 N2         -2.0609    3.8691   -1.4182 N.ar      1 <0>        -0.5376
     28 H13        -2.0500    3.8424   -2.4445 H         1 <0>         0.4656
@<TRIPOS>BOND
     1    1    6 ar
     2    1    2 ar
     3    1   16 1
     4    2    3 ar
     5    2   17 1
     6    3    4 ar
     7    3   18 1
     8    4    5 ar
     9    4   27 ar
    10    5    6 ar
    11    5    7 ar
    12    6   19 1
    13    7    8 ar
    14    7   15 1
    15    8   12 1
    16    8    9 ar
    17    9   10 1
    18    9   27 ar
    19   10   11 1
    20   10   20 1
    21   10   21 1
    22   11   12 1
    23   11   22 1
    24   11   23 1
    25   12   13 1
    26   12   14 1
    27   14   24 1
    28   15   25 1
    29   15   26 1
    30   27   28 1
@<TRIPOS>MOLECULE
ZINC13152358
   36    37     0     0     0
SMALL
USER_CHARGES

@<TRIPOS>ATOM
      1 C1         -0.1676    1.4068    0.1251 C.3       1 <0>        -0.1799
      2 C2         -0.0698   -0.1200    0.1075 C.3       1 <0>         0.1499
      3 H1          0.2965   -0.4514   -0.8642 H         1 <0>         0.0766
      4 C3         -1.4521   -0.7261    0.3693 C.3       1 <0>        -0.1281
      5 C4         -1.3236   -2.2465    0.4888 C.3       1 <0>        -0.1205
      6 C5         -0.4132   -2.5920    1.6693 C.3       1 <0>        -0.1281
      7 C6          0.9809   -2.0070    1.4222 C.3       1 <0>         0.1503
      8 H2          1.4340   -2.4944    0.5589 H         1 <0>         0.0764
      9 N1          0.8528   -0.5666    1.1601 N.pl3     1 <0>        -0.9863
     10 S1          1.7277    0.5323    2.0372 S.o2      1 <0>         2.6828
     11 O1          1.0237    1.7643    1.9628 O.2       1 <0>        -0.9494
     12 O2          2.0409   -0.0926    3.2744 O.2       1 <0>        -0.9499
     13 C7          3.2559    0.7737    1.1939 C.ar      1 <0>        -0.6759
     14 C8          4.3564    0.0052    1.5245 C.ar      1 <0>        -0.0111
     15 C9          5.5554    0.1942    0.8634 C.ar      1 <0>        -0.1304
     16 C10         5.6540    1.1527   -0.1295 C.ar      1 <0>         0.0163
     17 C11         4.5522    1.9214   -0.4599 C.ar      1 <0>        -0.1305
     18 C12         3.3522    1.7277    0.1981 C.ar      1 <0>        -0.0111
     19 Cl1         7.1597    1.3909   -0.9599 Cl        1 <0>        -0.0518
     20 C13         1.8573   -2.2310    2.6562 C.3       1 <0>        -0.1800
     21 H3          0.8324    1.8357    0.0605 H         1 <0>         0.0664
     22 H4         -0.7625    1.7426   -0.7243 H         1 <0>         0.0674
     23 H5         -0.6423    1.7298    1.0516 H         1 <0>         0.0962
     24 H6         -1.8571   -0.3213    1.2968 H         1 <0>         0.0706
     25 H7         -2.1192   -0.4812   -0.4571 H         1 <0>         0.0773
     26 H8         -2.3094   -2.6826    0.6506 H         1 <0>         0.0679
     27 H9         -0.8955   -2.6480   -0.4297 H         1 <0>         0.0644
     28 H10        -0.8280   -2.1696    2.5845 H         1 <0>         0.0707
     29 H11        -0.3409   -3.6751    1.7682 H         1 <0>         0.0772
     30 H12         4.2794   -0.7427    2.2999 H         1 <0>         0.1515
     31 H13         6.4152   -0.4060    1.1220 H         1 <0>         0.1455
     32 H14         4.6286    2.6700   -1.2346 H         1 <0>         0.1454
     33 H15         2.4908    2.3245   -0.0631 H         1 <0>         0.1503
     34 H16         2.0407   -3.2980    2.7826 H         1 <0>         0.0681
     35 H17         2.8070   -1.7120    2.5264 H         1 <0>         0.0645
     36 H18         1.3486   -1.8427    3.5385 H         1 <0>         0.0972
@<TRIPOS>BOND
     1    1    2 1
     2    1   21 1
     3    1   22 1
     4    1   23 1
     5    2    3 1
     6    2    9 1
     7    2    4 1
     8    4    5 1
     9    4   24 1
    10    4   25 1
    11    5    6 1
    12    5   26 1
    13    5   27 1
    14    6    7 1
    15    6   28 1
    16    6   29 1
    17    7    8 1
    18    7    9 1
    19    7   20 1
    20    9   10 1
    21   10   11 2
    22   10   12 2
    23   10   13 1
    24   13   18 ar
    25   13   14 ar
    26   14   15 ar
    27   14   30 1
    28   15   16 ar
    29   15   31 1
    30   16   17 ar
    31   16   19 1
    32   17   18 ar
    33   17   32 1
    34   18   33 1
    35   20   34 1
    36   20   35 1
    37   20   36 1
@<TRIPOS>MOLECULE
ZINC16676942
   38    39     0     0     0
SMALL
USER_CHARGES

@<TRIPOS>ATOM
      1 C1         -0.1677    1.4069    0.1254 C.3       1 <0>        -0.1803
      2 C2         -0.0700   -0.1199    0.1077 C.3       1 <0>         0.1479
      3 H1          0.2962   -0.4514   -0.8640 H         1 <0>         0.0777
      4 C3         -1.4523   -0.7261    0.3696 C.3       1 <0>        -0.1277
      5 C4         -1.3239   -2.2464    0.4889 C.3       1 <0>        -0.1211
      6 C5         -0.4133   -2.5921    1.6694 C.3       1 <0>        -0.1278
      7 C6          0.9808   -2.0071    1.4222 C.3       1 <0>         0.1485
      8 H2          1.4337   -2.4944    0.5588 H         1 <0>         0.0776
      9 N1          0.8527   -0.5667    1.1602 N.pl3     1 <0>        -0.9839
     10 S1          1.7278    0.5321    2.0373 S.o2      1 <0>         2.6829
     11 O1          1.0237    1.7642    1.9630 O.2       1 <0>        -0.9403
     12 O2          2.0411   -0.0929    3.2744 O.2       1 <0>        -0.9420
     13 C7          3.2558    0.7736    1.1938 C.ar      1 <0>        -0.6798
     14 C8          4.3567    0.0051    1.5241 C.ar      1 <0>         0.0217
     15 C9          5.5553    0.1946    0.8625 C.ar      1 <0>        -0.1313
     16 C10         5.6533    1.1522   -0.1300 C.ar      1 <0>        -0.0052
     17 C11         4.5525    1.9198   -0.4607 C.ar      1 <0>        -0.0671
     18 C12         3.3523    1.7273    0.1982 C.ar      1 <0>         0.0388
     19 N2          4.6575    2.9454   -1.5228 N.pl3     1 <0>         0.0310
     20 O3          5.7062    3.1116   -2.1010 O.2       1 <0>        -0.1483
     21 O4          3.6946    3.6168   -1.8122 O.3       1 <0>        -0.1474
     22 C13         1.8573   -2.2313    2.6560 C.3       1 <0>        -0.1800
     23 H3          0.8323    1.8357    0.0608 H         1 <0>         0.0626
     24 H4         -0.7626    1.7427   -0.7239 H         1 <0>         0.0721
     25 H5         -0.6424    1.7298    1.0519 H         1 <0>         0.0981
     26 H6         -1.8572   -0.3212    1.2971 H         1 <0>         0.0719
     27 H7         -2.1195   -0.4810   -0.4567 H         1 <0>         0.0794
     28 H8         -2.3097   -2.6825    0.6509 H         1 <0>         0.0695
     29 H9         -0.8959   -2.6479   -0.4296 H         1 <0>         0.0648
     30 H10        -0.8280   -2.1697    2.5846 H         1 <0>         0.0718
     31 H11        -0.3411   -3.6752    1.7682 H         1 <0>         0.0786
     32 H12         4.2801   -0.7429    2.2993 H         1 <0>         0.1619
     33 H13         6.4154   -0.4052    1.1209 H         1 <0>         0.1608
     34 H14         6.5900    1.3007   -0.6465 H         1 <0>         0.1641
     35 H15         2.4912    2.3245   -0.0629 H         1 <0>         0.1697
     36 H16         2.0407   -3.2983    2.7824 H         1 <0>         0.0709
     37 H17         2.8069   -1.7122    2.5262 H         1 <0>         0.0612
     38 H18         1.3486   -1.8430    3.5384 H         1 <0>         0.0987
@<TRIPOS>BOND
     1    1    2 1
     2    1   23 1
     3    1   24 1
     4    1   25 1
     5    2    3 1
     6    2    9 1
     7    2    4 1
     8    4    5 1
     9    4   26 1
    10    4   27 1
    11    5    6 1
    12    5   28 1
    13    5   29 1
    14    6    7 1
    15    6   30 1
    16    6   31 1
    17    7    8 1
    18    7    9 1
    19    7   22 1
    20    9   10 1
    21   10   11 2
    22   10   12 2
    23   10   13 1
    24   13   18 ar
    25   13   14 ar
    26   14   15 ar
    27   14   32 1
    28   15   16 ar
    29   15   33 1
    30   16   17 ar
    31   16   34 1
    32   17   18 ar
    33   17   19 1
    34   18   35 1
    35   19   20 2
    36   19   21 1
    37   22   36 1
    38   22   37 1
    39   22   38 1
@<TRIPOS>MOLECULE
ZINC12406946
   38    39     0     0     0
SMALL
USER_CHARGES

@<TRIPOS>ATOM
      1 C1         -0.1677    1.4069    0.1254 C.3       1 <0>        -0.1804
      2 C2         -0.0700   -0.1199    0.1076 C.3       1 <0>         0.1482
      3 H1          0.2962   -0.4513   -0.8640 H         1 <0>         0.0784
      4 C3         -1.4523   -0.7260    0.3696 C.3       1 <0>        -0.1279
      5 C4         -1.3239   -2.2464    0.4889 C.3       1 <0>        -0.1212
      6 C5         -0.4134   -2.5921    1.6694 C.3       1 <0>        -0.1279
      7 C6          0.9807   -2.0071    1.4222 C.3       1 <0>         0.1486
      8 H2          1.4337   -2.4944    0.5588 H         1 <0>         0.0780
      9 N1          0.8526   -0.5667    1.1602 N.pl3     1 <0>        -0.9832
     10 S1          1.7277    0.5321    2.0373 S.o2      1 <0>         2.6797
     11 O1          1.0237    1.7642    1.9631 O.2       1 <0>        -0.9403
     12 O2          2.0411   -0.0929    3.2744 O.2       1 <0>        -0.9409
     13 C7          3.2558    0.7736    1.1938 C.ar      1 <0>        -0.6378
     14 C8          4.3565    0.0053    1.5240 C.ar      1 <0>        -0.0223
     15 C9          5.5553    0.1948    0.8623 C.ar      1 <0>        -0.0742
     16 C10         5.6532    1.1522   -0.1299 C.ar      1 <0>         0.0014
     17 C11         4.5523    1.9199   -0.4608 C.ar      1 <0>        -0.0742
     18 C12         3.3523    1.7275    0.1980 C.ar      1 <0>        -0.0224
     19 N2          6.9371    1.3558   -0.8378 N.pl3     1 <0>         0.0230
     20 O3          7.9001    0.6846   -0.5482 O.2       1 <0>        -0.1424
     21 O4          7.0228    2.1932   -1.7056 O.3       1 <0>        -0.1424
     22 C13         1.8572   -2.2313    2.6560 C.3       1 <0>        -0.1807
     23 H3          0.8324    1.8357    0.0608 H         1 <0>         0.0640
     24 H4         -0.7626    1.7428   -0.7239 H         1 <0>         0.0705
     25 H5         -0.6424    1.7298    1.0519 H         1 <0>         0.0976
     26 H6         -1.8572   -0.3212    1.2971 H         1 <0>         0.0717
     27 H7         -2.1195   -0.4810   -0.4568 H         1 <0>         0.0790
     28 H8         -2.3097   -2.6824    0.6508 H         1 <0>         0.0694
     29 H9         -0.8959   -2.6479   -0.4296 H         1 <0>         0.0650
     30 H10        -0.8281   -2.1697    2.5846 H         1 <0>         0.0718
     31 H11        -0.3411   -3.6752    1.7681 H         1 <0>         0.0789
     32 H12         4.2799   -0.7428    2.2992 H         1 <0>         0.1658
     33 H13         6.4154   -0.4050    1.1208 H         1 <0>         0.1654
     34 H14         4.6289    2.6682   -1.2357 H         1 <0>         0.1653
     35 H15         2.4911    2.3247   -0.0630 H         1 <0>         0.1646
     36 H16         2.0406   -3.2983    2.7824 H         1 <0>         0.0712
     37 H17         2.8069   -1.7123    2.5263 H         1 <0>         0.0620
     38 H18         1.3486   -1.8430    3.5384 H         1 <0>         0.0986
@<TRIPOS>BOND
     1    1    2 1
     2    1   23 1
     3    1   24 1
     4    1   25 1
     5    2    3 1
     6    2    9 1
     7    2    4 1
     8    4    5 1
     9    4   26 1
    10    4   27 1
    11    5    6 1
    12    5   28 1
    13    5   29 1
    14    6    7 1
    15    6   30 1
    16    6   31 1
    17    7    8 1
    18    7    9 1
    19    7   22 1
    20    9   10 1
    21   10   11 2
    22   10   12 2
    23   10   13 1
    24   13   18 ar
    25   13   14 ar
    26   14   15 ar
    27   14   32 1
    28   15   16 ar
    29   15   33 1
    30   16   17 ar
    31   16   19 1
    32   17   18 ar
    33   17   34 1
    34   18   35 1
    35   19   20 2
    36   19   21 1
    37   22   36 1
    38   22   37 1
    39   22   38 1
@<TRIPOS>MOLECULE
ZINC12417747
   36    37     0     0     0
SMALL
USER_CHARGES

@<TRIPOS>ATOM
      1 C1         -0.1677    1.4069    0.1254 C.3       1 <0>        -0.1799
      2 C2         -0.0700   -0.1199    0.1076 C.3       1 <0>         0.1506
      3 H1          0.2962   -0.4513   -0.8640 H         1 <0>         0.0756
      4 C3         -1.4523   -0.7260    0.3696 C.3       1 <0>        -0.1282
      5 C4         -1.3239   -2.2464    0.4889 C.3       1 <0>        -0.1203
      6 C5         -0.4134   -2.5921    1.6694 C.3       1 <0>        -0.1282
      7 C6          0.9807   -2.0071    1.4222 C.3       1 <0>         0.1510
      8 H2          1.4337   -2.4944    0.5588 H         1 <0>         0.0754
      9 N1          0.8526   -0.5667    1.1602 N.pl3     1 <0>        -0.9874
     10 S1          1.7277    0.5321    2.0373 S.o2      1 <0>         2.6817
     11 O1          1.0237    1.7642    1.9631 O.2       1 <0>        -0.9529
     12 O2          2.0411   -0.0929    3.2744 O.2       1 <0>        -0.9534
     13 C7          3.2558    0.7736    1.1938 C.ar      1 <0>        -0.6756
     14 C8          4.3565    0.0053    1.5240 C.ar      1 <0>        -0.0255
     15 C9          5.5553    0.1948    0.8623 C.ar      1 <0>        -0.1392
     16 C10         5.6532    1.1522   -0.1299 C.ar      1 <0>        -0.0646
     17 C11         4.5523    1.9199   -0.4608 C.ar      1 <0>        -0.1393
     18 C12         3.3523    1.7275    0.1980 C.ar      1 <0>        -0.0255
     19 C13         1.8572   -2.2313    2.6560 C.3       1 <0>        -0.1801
     20 H3          0.8324    1.8357    0.0608 H         1 <0>         0.0677
     21 H4         -0.7626    1.7428   -0.7239 H         1 <0>         0.0663
     22 H5         -0.6424    1.7298    1.0519 H         1 <0>         0.0956
     23 H6         -1.8572   -0.3212    1.2971 H         1 <0>         0.0703
     24 H7         -2.1195   -0.4810   -0.4568 H         1 <0>         0.0768
     25 H8         -2.3097   -2.6824    0.6508 H         1 <0>         0.0675
     26 H9         -0.8959   -2.6479   -0.4296 H         1 <0>         0.0642
     27 H10        -0.8281   -2.1697    2.5846 H         1 <0>         0.0704
     28 H11        -0.3411   -3.6752    1.7681 H         1 <0>         0.0768
     29 H12         4.2799   -0.7428    2.2992 H         1 <0>         0.1412
     30 H13         6.4154   -0.4050    1.1208 H         1 <0>         0.1338
     31 H14         6.5900    1.3008   -0.6464 H         1 <0>         0.1320
     32 H15         4.6289    2.6682   -1.2357 H         1 <0>         0.1338
     33 H16         2.4911    2.3247   -0.0630 H         1 <0>         0.1401
     34 H17         2.0406   -3.2983    2.7824 H         1 <0>         0.0670
     35 H18         2.8069   -1.7123    2.5262 H         1 <0>         0.0657
     36 H19         1.3486   -1.8430    3.5384 H         1 <0>         0.0966
@<TRIPOS>BOND
     1    1    2 1
     2    1   20 1
     3    1   21 1
     4    1   22 1
     5    2    3 1
     6    2    9 1
     7    2    4 1
     8    4    5 1
     9    4   23 1
    10    4   24 1
    11    5    6 1
    12    5   25 1
    13    5   26 1
    14    6    7 1
    15    6   27 1
    16    6   28 1
    17    7    8 1
    18    7    9 1
    19    7   19 1
    20    9   10 1
    21   10   11 2
    22   10   12 2
    23   10   13 1
    24   13   18 ar
    25   13   14 ar
    26   14   15 ar
    27   14   29 1
    28   15   16 ar
    29   15   30 1
    30   16   17 ar
    31   16   31 1
    32   17   18 ar
    33   17   32 1
    34   18   33 1
    35   19   34 1
    36   19   35 1
    37   19   36 1
@<TRIPOS>MOLECULE
ZINC17885367
   39    40     0     0     0
SMALL
USER_CHARGES

@<TRIPOS>ATOM
      1 C1          1.1289    1.8750   -1.2211 C.3       1 <0>        -0.1261
      2 C2          0.9078    0.4112   -0.9394 C.ar      1 <0>        -0.0294
      3 C3          0.7281   -0.4746   -1.9854 C.ar      1 <0>        -0.1418
      4 C4          0.5252   -1.8173   -1.7269 C.ar      1 <0>        -0.0201
      5 C5          0.5025   -2.2744   -0.4226 C.ar      1 <0>        -0.6827
      6 C6          0.6831   -1.3888    0.6234 C.ar      1 <0>        -0.0202
      7 C7          0.8903   -0.0467    0.3648 C.ar      1 <0>        -0.1418
      8 S1          0.2428   -3.9857   -0.0931 S.o2      1 <0>         2.6823
      9 O1         -0.2782   -4.0708    1.2261 O.2       1 <0>        -0.9540
     10 O2         -0.4430   -4.5165   -1.2188 O.2       1 <0>        -0.9539
     11 N1          1.7319   -4.7097   -0.0615 N.pl3     1 <0>        -0.9875
     12 C8          2.3215   -5.2629   -1.2883 C.3       1 <0>         0.1509
     13 H1          3.2092   -4.6904   -1.5574 H         1 <0>         0.0753
     14 C9          2.7095   -6.7229   -1.0340 C.3       1 <0>        -0.1281
     15 C10         3.6231   -6.7977    0.1916 C.3       1 <0>        -0.1202
     16 C11         2.8748   -6.2757    1.4203 C.3       1 <0>        -0.1278
     17 C12         2.4911   -4.8057    1.1927 C.3       1 <0>         0.1507
     18 H2          3.3923   -4.1967    1.1218 H         1 <0>         0.0758
     19 C13         1.6261   -4.3135    2.3548 C.3       1 <0>        -0.1802
     20 C14         1.3006   -5.1911   -2.4256 C.3       1 <0>        -0.1801
     21 H3          2.1962    2.0665   -1.3321 H         1 <0>         0.0799
     22 H4          0.6128    2.1500   -2.1410 H         1 <0>         0.0736
     23 H5          0.7376    2.4673   -0.3940 H         1 <0>         0.0736
     24 H6          0.7458   -0.1174   -3.0044 H         1 <0>         0.1331
     25 H7          0.3841   -2.5092   -2.5441 H         1 <0>         0.1408
     26 H8          0.6651   -1.7459    1.6425 H         1 <0>         0.1408
     27 H9          1.0351    0.6445    1.1819 H         1 <0>         0.1331
     28 H10         1.8104   -7.3122   -0.8541 H         1 <0>         0.0703
     29 H11         3.2351   -7.1165   -1.9040 H         1 <0>         0.0765
     30 H12         3.9206   -7.8327    0.3601 H         1 <0>         0.0674
     31 H13         4.5105   -6.1882    0.0208 H         1 <0>         0.0640
     32 H14         1.9742   -6.8693    1.5771 H         1 <0>         0.0705
     33 H15         3.5180   -6.3510    2.2971 H         1 <0>         0.0762
     34 H16         0.7874   -4.9949    2.4974 H         1 <0>         0.0965
     35 H17         2.2253   -4.2794    3.2647 H         1 <0>         0.0665
     36 H18         1.2495   -3.3156    2.1302 H         1 <0>         0.0665
     37 H19         0.9347   -4.1688   -2.5214 H         1 <0>         0.0666
     38 H20         1.7741   -5.4964   -3.3587 H         1 <0>         0.0664
     39 H21         0.4657   -5.8568   -2.2070 H         1 <0>         0.0965
@<TRIPOS>BOND
     1    1    2 1
     2    1   21 1
     3    1   22 1
     4    1   23 1
     5    2    7 ar
     6    2    3 ar
     7    3    4 ar
     8    3   24 1
     9    4    5 ar
    10    4   25 1
    11    5    6 ar
    12    5    8 1
    13    6    7 ar
    14    6   26 1
    15    7   27 1
    16    8    9 2
    17    8   10 2
    18    8   11 1
    19   11   17 1
    20   11   12 1
    21   12   13 1
    22   12   14 1
    23   12   20 1
    24   14   15 1
    25   14   28 1
    26   14   29 1
    27   15   16 1
    28   15   30 1
    29   15   31 1
    30   16   17 1
    31   16   32 1
    32   16   33 1
    33   17   18 1
    34   17   19 1
    35   19   34 1
    36   19   35 1
    37   19   36 1
    38   20   37 1
    39   20   38 1
    40   20   39 1
@<TRIPOS>MOLECULE
ZINC13471675
   48    49     0     0     0
SMALL
USER_CHARGES

@<TRIPOS>ATOM
      1 C1          1.7176   -2.2053    2.4470 C.3       1 <0>        -0.1798
      2 C2          0.7501   -1.8756    1.3084 C.3       1 <0>         0.1509
      3 H1         -0.2088   -2.3601    1.4920 H         1 <0>         0.0753
      4 C3          1.3309   -2.3727   -0.0191 C.3       1 <0>        -0.1282
      5 C4          0.4280   -1.9185   -1.1683 C.3       1 <0>        -0.1202
      6 C5          0.3772   -0.3894   -1.2057 C.3       1 <0>        -0.1282
      7 C6         -0.2144    0.1302    0.1084 C.3       1 <0>         0.1513
      8 H2         -1.2532   -0.1889    0.1929 H         1 <0>         0.0751
      9 N1          0.5599   -0.4209    1.2295 N.pl3     1 <0>        -0.9876
     10 S1          1.2092    0.5786    2.3791 S.o2      1 <0>         2.6819
     11 O1          2.2964   -0.1261    2.9627 O.2       1 <0>        -0.9540
     12 O2          1.3668    1.8519    1.7682 O.2       1 <0>        -0.9545
     13 C7         -0.0017    0.7735    3.6441 C.ar      1 <0>        -0.6805
     14 C8         -0.8956    1.8266    3.5889 C.ar      1 <0>        -0.0213
     15 C9         -1.8456    1.9794    4.5814 C.ar      1 <0>        -0.1362
     16 C10        -1.9021    1.0790    5.6287 C.ar      1 <0>        -0.0133
     17 C11        -1.0089    0.0255    5.6834 C.ar      1 <0>        -0.1419
     18 C12        -0.0616   -0.1299    4.6887 C.ar      1 <0>        -0.0209
     19 C13        -2.9372    1.2463    6.7112 C.3       1 <0>        -0.0386
     20 C14        -4.3356    1.1832    6.0937 C.3       1 <0>        -0.1400
     21 C15        -2.7835    0.1255    7.7413 C.3       1 <0>        -0.1477
     22 C16        -2.7433    2.5999    7.3975 C.3       1 <0>        -0.1411
     23 C17        -0.1435    1.6583    0.1341 C.3       1 <0>        -0.1799
     24 H3          1.3630   -1.7458    3.3696 H         1 <0>         0.0679
     25 H4          1.7712   -3.2862    2.5767 H         1 <0>         0.0658
     26 H5          2.7078   -1.8187    2.2058 H         1 <0>         0.0955
     27 H6          2.3302   -1.9595   -0.1565 H         1 <0>         0.0701
     28 H7          1.3853   -3.4613   -0.0076 H         1 <0>         0.0766
     29 H8          0.8257   -2.2918   -2.1120 H         1 <0>         0.0674
     30 H9         -0.5774   -2.3116   -1.0173 H         1 <0>         0.0641
     31 H10         1.3855    0.0051   -1.3318 H         1 <0>         0.0703
     32 H11        -0.2472   -0.0664   -2.0386 H         1 <0>         0.0766
     33 H12        -0.8514    2.5300    2.7707 H         1 <0>         0.1404
     34 H13        -2.5435    2.8026    4.5387 H         1 <0>         0.1317
     35 H14        -1.0528   -0.6778    6.5019 H         1 <0>         0.1371
     36 H15         0.6339   -0.9551    4.7295 H         1 <0>         0.1393
     37 H16        -4.4738    0.2189    5.6048 H         1 <0>         0.0579
     38 H17        -5.0843    1.3042    6.8766 H         1 <0>         0.0637
     39 H18        -4.4451    1.9817    5.3598 H         1 <0>         0.0591
     40 H19        -1.7873    0.1704    8.1812 H         1 <0>         0.0610
     41 H20        -3.5322    0.2465    8.5242 H         1 <0>         0.0631
     42 H21        -2.9217   -0.8388    7.2524 H         1 <0>         0.0606
     43 H22        -2.8528    3.3984    6.6636 H         1 <0>         0.0594
     44 H23        -3.4920    2.7209    8.1804 H         1 <0>         0.0639
     45 H24        -1.7470    2.6448    7.8374 H         1 <0>         0.0586
     46 H25        -0.8061    2.0656   -0.6295 H         1 <0>         0.0666
     47 H26        -0.4533    2.0200    1.1146 H         1 <0>         0.0660
     48 H27         0.8795    1.9780   -0.0645 H         1 <0>         0.0965
@<TRIPOS>BOND
     1    1    2 1
     2    1   24 1
     3    1   25 1
     4    1   26 1
     5    2    3 1
     6    2    9 1
     7    2    4 1
     8    4    5 1
     9    4   27 1
    10    4   28 1
    11    5    6 1
    12    5   29 1
    13    5   30 1
    14    6    7 1
    15    6   31 1
    16    6   32 1
    17    7    8 1
    18    7    9 1
    19    7   23 1
    20    9   10 1
    21   10   11 2
    22   10   12 2
    23   10   13 1
    24   13   18 ar
    25   13   14 ar
    26   14   15 ar
    27   14   33 1
    28   15   16 ar
    29   15   34 1
    30   16   17 ar
    31   16   19 1
    32   17   18 ar
    33   17   35 1
    34   18   36 1
    35   19   20 1
    36   19   21 1
    37   19   22 1
    38   20   37 1
    39   20   38 1
    40   20   39 1
    41   21   40 1
    42   21   41 1
    43   21   42 1
    44   22   43 1
    45   22   44 1
    46   22   45 1
    47   23   46 1
    48   23   47 1
    49   23   48 1
@<TRIPOS>MOLECULE
ZINC13946918
   38    39     0     0     0
SMALL
USER_CHARGES

@<TRIPOS>ATOM
      1 C1         -0.1566    0.5148    0.0414 C.3       1 <0>        -0.1788
      2 C2          0.3225   -0.9320    0.1761 C.3       1 <0>         0.1463
      3 H1          0.7544   -1.2632   -0.7683 H         1 <0>         0.0771
      4 C3         -0.8608   -1.8328    0.5437 C.3       1 <0>        -0.1285
      5 C4         -0.3527   -3.2510    0.8129 C.3       1 <0>        -0.1203
      6 C5          0.6228   -3.2300    1.9919 C.3       1 <0>        -0.1285
      7 C6          1.8230   -2.3451    1.6407 C.3       1 <0>         0.1489
      8 H2          2.3787   -2.7932    0.8170 H         1 <0>         0.0766
      9 N1          1.3345   -1.0189    1.2377 N.pl3     1 <0>        -0.9910
     10 S1          1.9098    0.3509    1.9691 S.o2      1 <0>         2.6884
     11 O1          0.9181    1.3530    1.7920 O.2       1 <0>        -0.9286
     12 O2          2.3772   -0.0399    3.2529 O.2       1 <0>        -0.9251
     13 C7          3.3233    0.8742    1.0565 C.ar      1 <0>        -0.6246
     14 C8          3.5960    0.3134   -0.1774 C.ar      1 <0>        -0.0322
     15 C9          4.7047    0.7240   -0.8933 C.ar      1 <0>        -0.0847
     16 C10         5.5408    1.6958   -0.3757 C.ar      1 <0>        -0.0696
     17 C11         5.2678    2.2571    0.8575 C.ar      1 <0>        -0.0642
     18 C12         4.1563    1.8494    1.5717 C.ar      1 <0>         0.0367
     19 N2          3.8610    2.4542    2.8900 N.pl3     1 <0>         0.0175
     20 O3          4.6542    3.2114    3.3991 O.2       1 <0>        -0.1163
     21 O4          2.8266    2.1909    3.4578 O.3       1 <0>        -0.1509
     22 C13         2.7353   -2.2100    2.8615 C.3       1 <0>        -0.1780
     23 H3          0.7053    1.1764   -0.0452 H         1 <0>         0.0680
     24 H4         -0.7788    0.6102   -0.8485 H         1 <0>         0.0681
     25 H5         -0.7377    0.7885    0.9220 H         1 <0>         0.0937
     26 H6         -1.3489   -1.4453    1.4379 H         1 <0>         0.0726
     27 H7         -1.5733   -1.8520   -0.2810 H         1 <0>         0.0788
     28 H8         -1.1958   -3.8997    1.0507 H         1 <0>         0.0693
     29 H9          0.1570   -3.6286   -0.0735 H         1 <0>         0.0645
     30 H10         0.1207   -2.8294    2.8725 H         1 <0>         0.0727
     31 H11         0.9663   -4.2438    2.1980 H         1 <0>         0.0785
     32 H12         2.9428   -0.4457   -0.5818 H         1 <0>         0.1563
     33 H13         4.9181    0.2854   -1.8569 H         1 <0>         0.1545
     34 H14         6.4076    2.0161   -0.9347 H         1 <0>         0.1587
     35 H15         5.9211    3.0159    1.2620 H         1 <0>         0.1651
     36 H16         3.1736   -3.1799    3.0966 H         1 <0>         0.0686
     37 H17         3.5293   -1.4955    2.6444 H         1 <0>         0.0594
     38 H18         2.1529   -1.8584    3.7131 H         1 <0>         0.1008
@<TRIPOS>BOND
     1    1    2 1
     2    1   23 1
     3    1   24 1
     4    1   25 1
     5    2    3 1
     6    2    9 1
     7    2    4 1
     8    4    5 1
     9    4   26 1
    10    4   27 1
    11    5    6 1
    12    5   28 1
    13    5   29 1
    14    6    7 1
    15    6   30 1
    16    6   31 1
    17    7    8 1
    18    7    9 1
    19    7   22 1
    20    9   10 1
    21   10   11 2
    22   10   12 2
    23   10   13 1
    24   13   18 ar
    25   13   14 ar
    26   14   15 ar
    27   14   32 1
    28   15   16 ar
    29   15   33 1
    30   16   17 ar
    31   16   34 1
    32   17   18 ar
    33   17   35 1
    34   18   19 1
    35   19   20 2
    36   19   21 1
    37   22   36 1
    38   22   37 1
    39   22   38 1
@<TRIPOS>MOLECULE
ZINC13946936
   29    29     0     0     0
SMALL
USER_CHARGES

@<TRIPOS>ATOM
      1 C1          0.2349    1.5008    0.4244 C.3       1 <0>        -0.1718
      2 C2          0.1408   -0.0110    0.2091 C.3       1 <0>         0.1511
      3 H1          0.5187   -0.2633   -0.7817 H         1 <0>         0.0742
      4 C3         -1.3197   -0.4572    0.3307 C.3       1 <0>        -0.1278
      5 C4         -1.3906   -1.9840    0.2533 C.3       1 <0>        -0.1199
      6 C5         -0.6014   -2.5925    1.4148 C.3       1 <0>        -0.1279
      7 C6          0.8672   -2.1706    1.3055 C.3       1 <0>         0.1509
      8 H2          1.3050   -2.6012    0.4050 H         1 <0>         0.0739
      9 N1          0.9367   -0.7045    1.2310 N.pl3     1 <0>        -0.9907
     10 S1          1.8901    0.1499    2.2814 S.o2      1 <0>         2.5980
     11 O1          1.2686    1.4240    2.3808 O.2       1 <0>        -0.9520
     12 O2          2.0126   -0.6873    3.4230 O.2       1 <0>        -0.9513
     13 C7          3.4910    0.2995    1.4416 C.3       1 <0>        -0.6769
     14 C8          1.6348   -2.6619    2.5344 C.3       1 <0>        -0.1702
     15 H3          1.2827    1.7941    0.4887 H         1 <0>         0.0608
     16 H4         -0.2362    2.0169   -0.4122 H         1 <0>         0.0634
     17 H5         -0.2748    1.7685    1.3499 H         1 <0>         0.0973
     18 H6         -1.7241   -0.1221    1.2858 H         1 <0>         0.0700
     19 H7         -1.9013   -0.0242   -0.4832 H         1 <0>         0.0751
     20 H8         -2.4312   -2.3027    0.3149 H         1 <0>         0.0664
     21 H9         -0.9634   -2.3199   -0.6915 H         1 <0>         0.0635
     22 H10        -1.0126   -2.2373    2.3597 H         1 <0>         0.0698
     23 H11        -0.6718   -3.6794    1.3725 H         1 <0>         0.0751
     24 H12         3.3581    0.8273    0.4973 H         1 <0>         0.1252
     25 H13         4.1827    0.8556    2.0744 H         1 <0>         0.1271
     26 H14         3.8943   -0.6946    1.2486 H         1 <0>         0.1253
     27 H15         1.6910   -3.7503    2.5166 H         1 <0>         0.0621
     28 H16         2.6422   -2.2459    2.5238 H         1 <0>         0.0633
     29 H17         1.1181   -2.3396    3.4384 H         1 <0>         0.0961
@<TRIPOS>BOND
     1    1    2 1
     2    1   15 1
     3    1   16 1
     4    1   17 1
     5    2    3 1
     6    2    9 1
     7    2    4 1
     8    4    5 1
     9    4   18 1
    10    4   19 1
    11    5    6 1
    12    5   20 1
    13    5   21 1
    14    6    7 1
    15    6   22 1
    16    6   23 1
    17    7    8 1
    18    7    9 1
    19    7   14 1
    20    9   10 1
    21   10   11 2
    22   10   12 2
    23   10   13 1
    24   13   24 1
    25   13   25 1
    26   13   26 1
    27   14   27 1
    28   14   28 1
    29   14   29 1
@<TRIPOS>MOLECULE
ZINC13946897
   36    37     0     0     0
SMALL
USER_CHARGES

@<TRIPOS>ATOM
      1 C1         -0.8174    0.9340    0.6475 C.3       1 <0>        -0.2155
      2 C2         -0.2907   -0.4727    0.3562 C.3       1 <0>         0.1553
      3 H1          0.1396   -0.5017   -0.6448 H         1 <0>         0.0776
      4 C3         -1.4401   -1.4811    0.4506 C.3       1 <0>        -0.1270
      5 C4         -0.8838   -2.8984    0.2964 C.3       1 <0>        -0.1195
      6 C5          0.1053   -3.1861    1.4283 C.3       1 <0>        -0.1292
      7 C6          1.2721   -2.1970    1.3450 C.3       1 <0>         0.1528
      8 H2          1.8316   -2.3684    0.4253 H         1 <0>         0.0764
      9 N1          0.7366   -0.8284    1.3445 N.pl3     1 <0>        -0.9815
     10 S1          1.2772    0.2901    2.4396 S.o2      1 <0>         2.6819
     11 O1          0.1228    0.8976    3.0031 O.2       1 <0>        -0.9490
     12 O2          2.2599   -0.3606    3.2333 O.2       1 <0>        -0.9320
     13 C7          2.1146    1.5462    1.5310 C.ar      1 <0>        -0.6622
     14 C8          1.6357    2.8427    1.5417 C.ar      1 <0>        -0.0045
     15 C9          2.2931    3.8289    0.8283 C.ar      1 <0>        -0.0538
     16 C10         3.4303    3.5173    0.1040 C.ar      1 <0>        -0.0443
     17 C11         3.9091    2.2212    0.0933 C.ar      1 <0>        -0.1147
     18 C12         3.2547    1.2359    0.8115 C.ar      1 <0>         0.0540
     19 Cl1         3.8603   -0.3910    0.8039 Cl        1 <0>        -0.0271
     20 Cl2         1.6912    5.4571    0.8413 Cl        1 <0>        -0.0442
     21 C13         2.1949   -2.3897    2.5501 C.3       1 <0>        -0.1804
     22 H3          0.0123    1.6409    0.6424 H         1 <0>         0.0569
     23 H4         -1.5404    1.2169   -0.1176 H         1 <0>         0.0856
     24 H5         -1.2993    0.9464    1.6251 H         1 <0>         0.1068
     25 H6         -1.9291   -1.3857    1.4201 H         1 <0>         0.0733
     26 H7         -2.1619   -1.2853   -0.3423 H         1 <0>         0.0766
     27 H8         -1.7027   -3.6165    0.3385 H         1 <0>         0.0680
     28 H9         -0.3734   -2.9859   -0.6628 H         1 <0>         0.0645
     29 H10        -0.3983   -3.0746    2.3885 H         1 <0>         0.0699
     30 H11         0.4834   -4.2038    1.3312 H         1 <0>         0.0776
     31 H12         0.7479    3.0858    2.1067 H         1 <0>         0.1633
     32 H13         3.9433    4.2872   -0.4532 H         1 <0>         0.1537
     33 H14         4.7964    1.9780   -0.4723 H         1 <0>         0.1546
     34 H15         2.4730   -3.4405    2.6304 H         1 <0>         0.0607
     35 H16         3.0925   -1.7851    2.4207 H         1 <0>         0.0954
     36 H17         1.6764   -2.0807    3.4578 H         1 <0>         0.0802
@<TRIPOS>BOND
     1    1    2 1
     2    1   22 1
     3    1   23 1
     4    1   24 1
     5    2    3 1
     6    2    9 1
     7    2    4 1
     8    4    5 1
     9    4   25 1
    10    4   26 1
    11    5    6 1
    12    5   27 1
    13    5   28 1
    14    6    7 1
    15    6   29 1
    16    6   30 1
    17    7    8 1
    18    7    9 1
    19    7   21 1
    20    9   10 1
    21   10   11 2
    22   10   12 2
    23   10   13 1
    24   13   18 ar
    25   13   14 ar
    26   14   15 ar
    27   14   31 1
    28   15   16 ar
    29   15   20 1
    30   16   17 ar
    31   16   32 1
    32   17   18 ar
    33   17   33 1
    34   18   19 1
    35   21   34 1
    36   21   35 1
    37   21   36 1
@<TRIPOS>MOLECULE
ZINC00004413
   41    41     0     0     0
SMALL
USER_CHARGES

@<TRIPOS>ATOM
      1 C1          4.4626    0.9331   -2.8658 C.3       1 <0>        -0.1716
      2 C2          3.0922    1.3370   -2.3184 C.3       1 <0>         0.1225
      3 N1          2.1977    0.1769   -2.3368 N.am      1 <0>        -0.5889
      4 C3          2.1273   -0.7122   -1.1746 C.3       1 <0>         0.0754
      5 C4          1.4396   -0.0723   -3.4229 C.2       1 <0>         0.6477
      6 O1          1.4980    0.6652   -4.3869 O.2       1 <0>        -0.5535
      7 O2          0.6173   -1.1388   -3.4398 O.3       1 <0>        -0.3075
      8 C5         -0.2031   -1.2952   -4.5123 C.ar      1 <0>         0.1261
      9 C6         -1.5478   -0.9685   -4.4120 C.ar      1 <0>        -0.0937
     10 C7         -2.3794   -1.1283   -5.5033 C.ar      1 <0>        -0.0860
     11 C8         -1.8728   -1.6139   -6.6949 C.ar      1 <0>        -0.1221
     12 C9         -0.5334   -1.9405   -6.7972 C.ar      1 <0>        -0.1238
     13 C10         0.3039   -1.7762   -5.7104 C.ar      1 <0>        -0.0901
     14 C11         0.0152   -2.4704   -8.0969 C.3       1 <0>         0.0788
     15 H1          0.9527   -2.9938   -7.9091 H         1 <0>         0.1439
     16 C12         0.2648   -1.3060   -9.0576 C.3       1 <0>        -0.1799
     17 N2         -0.9531   -3.3994   -8.6947 N.4       1 <0>        -0.3859
     18 C13        -0.4184   -3.9159   -9.9616 C.3       1 <0>        -0.0520
     19 C14        -1.1928   -4.5173   -7.7723 C.3       1 <0>        -0.0508
     20 H2          4.8824    0.1408   -2.2460 H         1 <0>         0.0603
     21 H3          4.3537    0.5745   -3.8894 H         1 <0>         0.0581
     22 H4          5.1281    1.7962   -2.8522 H         1 <0>         0.0766
     23 H5          3.2011    1.6957   -1.2949 H         1 <0>         0.0928
     24 H6          2.6725    2.1293   -2.9383 H         1 <0>         0.0905
     25 H7          1.3554   -0.3572   -0.4918 H         1 <0>         0.0654
     26 H8          1.8843   -1.7224   -1.5042 H         1 <0>         0.0784
     27 H9          3.0898   -0.7185   -0.6631 H         1 <0>         0.0821
     28 H10        -1.9440   -0.5899   -3.4814 H         1 <0>         0.1446
     29 H11        -3.4262   -0.8742   -5.4257 H         1 <0>         0.1465
     30 H12        -2.5247   -1.7385   -7.5469 H         1 <0>         0.1259
     31 H13         1.3512   -2.0270   -5.7923 H         1 <0>         0.1385
     32 H14         0.9833   -0.6167   -8.6140 H         1 <0>         0.1084
     33 H15         0.6616   -1.6892   -9.9977 H         1 <0>         0.0875
     34 H16        -0.6727   -0.7825   -9.2453 H         1 <0>         0.0834
     35 H17        -0.2406   -3.0863  -10.6460 H         1 <0>         0.1268
     36 H18         0.5191   -4.4393   -9.7738 H         1 <0>         0.1237
     37 H19        -1.1369   -4.6052  -10.4052 H         1 <0>         0.1270
     38 H20        -1.5895   -4.1341   -6.8322 H         1 <0>         0.1235
     39 H21        -1.9113   -5.2066   -8.2158 H         1 <0>         0.1263
     40 H22        -0.2553   -5.0408   -7.5845 H         1 <0>         0.1229
     41 H23        -1.8209   -2.9148   -8.8685 H         1 <0>         0.4225
@<TRIPOS>BOND
     1    1    2 1
     2    1   20 1
     3    1   21 1
     4    1   22 1
     5    2    3 1
     6    2   23 1
     7    2   24 1
     8    3    4 1
     9    3    5 am
    10    4   25 1
    11    4   26 1
    12    4   27 1
    13    5    6 2
    14    5    7 1
    15    7    8 1
    16    8   13 ar
    17    8    9 ar
    18    9   10 ar
    19    9   28 1
    20   10   11 ar
    21   10   29 1
    22   11   12 ar
    23   11   30 1
    24   12   13 ar
    25   12   14 1
    26   13   31 1
    27   14   15 1
    28   14   16 1
    29   14   17 1
    30   16   32 1
    31   16   33 1
    32   16   34 1
    33   17   18 1
    34   17   19 1
    35   17   41 1
    36   18   35 1
    37   18   36 1
    38   18   37 1
    39   19   38 1
    40   19   39 1
    41   19   40 1
@<TRIPOS>MOLECULE
ZINC00491073
   43    46     0     0     0
SMALL
USER_CHARGES

@<TRIPOS>ATOM
      1 C1         -0.0178    1.4648    0.0101 C.3       1 <0>        -0.0508
      2 N1          0.0021   -0.0041    0.0020 N.4       1 <0>        -0.3695
      3 C2         -1.3487   -0.4766   -0.1051 C.3       1 <0>        -0.0209
      4 C3         -1.4957   -1.8208   -0.7552 C.3       1 <0>        -0.1240
      5 C4         -1.1986   -2.9607    0.1979 C.3       1 <0>        -0.0106
      6 C5         -2.0769   -2.9074    1.4042 C.2       1 <0>        -0.1408
      7 C6         -2.9213   -3.8188    1.7532 C.2       1 <0>        -0.1505
      8 C7         -3.1380   -5.0863    0.9901 C.3       1 <0>         0.1315
      9 H1         -4.2051   -5.3069    0.9636 H         1 <0>         0.0752
     10 C8         -2.6198   -4.9844   -0.4299 C.3       1 <0>        -0.1186
     11 C9         -1.2869   -4.2969   -0.5425 C.3       1 <0>         0.0975
     12 H2         -1.0674   -4.1273   -1.5966 H         1 <0>         0.0880
     13 O1         -0.2232   -5.0787    0.0155 O.3       1 <0>        -0.2581
     14 C10         0.7233   -4.2458    0.5013 C.ar      1 <0>         0.0952
     15 C11         0.2527   -2.9329    0.6428 C.ar      1 <0>        -0.1178
     16 C12         1.0216   -1.9269    1.1409 C.ar      1 <0>        -0.1302
     17 C13         2.3121   -2.2785    1.5668 C.ar      1 <0>        -0.0934
     18 C14         2.7995   -3.5564    1.4290 C.ar      1 <0>        -0.1641
     19 C15         2.0296   -4.5760    0.8827 C.ar      1 <0>         0.1377
     20 O2          2.5209   -5.8345    0.7267 O.3       1 <0>        -0.2954
     21 C16         3.8668   -6.0626    1.1493 C.3       1 <0>         0.0215
     22 C17         0.7068   -0.4603    1.1832 C.3       1 <0>         0.0520
     23 O3         -2.4591   -6.1527    1.6564 O.3       1 <0>        -0.5466
     24 H3          1.0047    1.8421    0.0024 H         1 <0>         0.1273
     25 H4         -0.5450    1.8259   -0.8730 H         1 <0>         0.1278
     26 H5         -0.5280    1.8163    0.9069 H         1 <0>         0.1247
     27 H6         -1.7753   -0.5300    0.8966 H         1 <0>         0.1288
     28 H7         -1.9228    0.2491   -0.6812 H         1 <0>         0.1383
     29 H8         -2.5166   -1.9252   -1.1226 H         1 <0>         0.1215
     30 H9         -0.8106   -1.8805   -1.6009 H         1 <0>         0.0938
     31 H10        -1.9990   -2.0352    2.0363 H         1 <0>         0.1089
     32 H11        -3.5045   -3.6570    2.6477 H         1 <0>         0.1222
     33 H12        -2.5282   -5.9902   -0.8398 H         1 <0>         0.1019
     34 H13        -3.3468   -4.4337   -1.0268 H         1 <0>         0.1027
     35 H14         2.9401   -1.5233    2.0159 H         1 <0>         0.1374
     36 H15         3.8066   -3.7734    1.7533 H         1 <0>         0.1450
     37 H16         4.5389   -5.4141    0.5873 H         1 <0>         0.0614
     38 H17         3.9556   -5.8433    2.2133 H         1 <0>         0.0618
     39 H18         4.1324   -7.1043    0.9696 H         1 <0>         0.1116
     40 H19         1.6391    0.0971    1.2738 H         1 <0>         0.1432
     41 H20         0.0917   -0.2576    2.0600 H         1 <0>         0.1319
     42 H21        -2.7602   -6.3053    2.5625 H         1 <0>         0.3809
     43 H22         0.5116   -0.3113   -0.8129 H         1 <0>         0.4218
@<TRIPOS>BOND
     1    1    2 1
     2    1   24 1
     3    1   25 1
     4    1   26 1
     5    2   22 1
     6    2    3 1
     7    2   43 1
     8    3    4 1
     9    3   27 1
    10    3   28 1
    11    4    5 1
    12    4   29 1
    13    4   30 1
    14    5   11 1
    15    5   15 1
    16    5    6 1
    17    6    7 2
    18    6   31 1
    19    7    8 1
    20    7   32 1
    21    8    9 1
    22    8   10 1
    23    8   23 1
    24   10   11 1
    25   10   33 1
    26   10   34 1
    27   11   12 1
    28   11   13 1
    29   13   14 1
    30   14   19 ar
    31   14   15 ar
    32   15   16 ar
    33   16   17 ar
    34   16   22 1
    35   17   18 ar
    36   17   35 1
    37   18   19 ar
    38   18   36 1
    39   19   20 1
    40   20   21 1
    41   21   37 1
    42   21   38 1
    43   21   39 1
    44   22   40 1
    45   22   41 1
    46   23   42 1
@<TRIPOS>MOLECULE
ZINC03641317
   76    81     0     0     0
SMALL
USER_CHARGES
N,N'-bis(1,2,3,4-tetrahydroacridin-9-yl)hexane-1,6-diamine
@<TRIPOS>ATOM
      1 C1         -0.7886    7.2681   -3.4742 C.ar      1 <0>        -0.0975
      2 C2         -0.6943    7.9404   -2.2580 C.ar      1 <0>        -0.0302
      3 C3         -0.8019    7.2728   -1.0766 C.ar      1 <0>        -0.1483
      4 C4         -1.0125    5.8829   -1.0771 C.ar      1 <0>         0.1646
      5 C5         -1.1097    5.2037   -2.3150 C.ar      1 <0>        -0.1239
      6 C6         -0.9930    5.9215   -3.5130 C.ar      1 <0>        -0.0730
      7 C7         -1.3246    3.8076   -2.3050 C.ar      1 <0>         0.2747
      8 C8         -1.4308    3.1620   -1.0767 C.ar      1 <0>        -0.1189
      9 C9         -1.3206    3.8925    0.0934 C.ar      1 <0>         0.2589
     10 C10        -1.4116    3.2457    1.4536 C.3       1 <0>        -0.1206
     11 C11        -2.0629    1.8688    1.3521 C.3       1 <0>        -0.1223
     12 C12        -1.3321    1.0654    0.2700 C.3       1 <0>        -0.1333
     13 C13        -1.6659    1.6747   -1.0901 C.3       1 <0>        -0.0660
     14 N1         -1.4277    3.0972   -3.4911 N.pl3     1 <0>        -0.6448
     15 C14        -2.7962    3.1548   -4.0220 C.3       1 <0>         0.0607
     16 C15        -2.8997    2.2658   -5.2629 C.3       1 <0>        -0.1208
     17 C16        -4.3251    2.3258   -5.8158 C.3       1 <0>        -0.1185
     18 C17        -4.4286    1.4368   -7.0567 C.3       1 <0>        -0.1181
     19 C18        -5.8539    1.4968   -7.6096 C.3       1 <0>        -0.1226
     20 C19        -5.9574    0.6078   -8.8506 C.3       1 <0>         0.0590
     21 N2         -7.3259    0.6654   -9.3814 N.pl3     1 <0>        -0.6458
     22 C20        -7.4751   -0.1872  -10.4645 C.ar      1 <0>         0.2751
     23 C21        -7.7454   -1.5603  -10.2715 C.ar      1 <0>        -0.1242
     24 C22        -7.8809   -2.1101   -8.9896 C.ar      1 <0>        -0.0729
     25 C23        -8.1483   -3.4391   -8.8517 C.ar      1 <0>        -0.0977
     26 C24        -8.2934   -4.2571   -9.9695 C.ar      1 <0>        -0.0303
     27 C25        -8.1725   -3.7536  -11.2284 C.ar      1 <0>        -0.1482
     28 C26        -7.8974   -2.3871  -11.4102 C.ar      1 <0>         0.1648
     29 C27        -7.5101   -0.5823  -12.8314 C.ar      1 <0>         0.2583
     30 C28        -7.3562    0.2884  -11.7669 C.ar      1 <0>        -0.1173
     31 C29        -7.0659    1.7548  -11.9484 C.3       1 <0>        -0.0649
     32 C30        -6.5505    2.0296  -13.3596 C.3       1 <0>        -0.1333
     33 C31        -7.5212    1.3910  -14.3599 C.3       1 <0>        -0.1232
     34 C32        -7.3843   -0.1265  -14.2643 C.3       1 <0>        -0.1200
     35 H1         -0.6991    7.8209   -4.3976 H         1 <0>         0.1541
     36 H2         -0.5329    9.0082   -2.2523 H         1 <0>         0.1570
     37 H3         -0.7260    7.8091   -0.1423 H         1 <0>         0.1568
     38 H4         -1.0641    5.4101   -4.4616 H         1 <0>         0.1488
     39 H5         -0.4093    3.1387    1.8685 H         1 <0>         0.1239
     40 H6         -2.0071    3.8774    2.1128 H         1 <0>         0.1123
     41 H7         -3.1128    1.9794    1.0808 H         1 <0>         0.0793
     42 H8         -1.9830    1.3531    2.3090 H         1 <0>         0.0968
     43 H9         -1.6619    0.0268    0.2981 H         1 <0>         0.0914
     44 H10        -0.2565    1.1138    0.4401 H         1 <0>         0.0763
     45 H11        -1.0354    1.2181   -1.8530 H         1 <0>         0.1067
     46 H12        -2.7121    1.4784   -1.3248 H         1 <0>         0.0920
     47 H13        -0.7616    3.4308   -4.1716 H         1 <0>         0.3758
     48 H14        -3.4953    2.8026   -3.2634 H         1 <0>         0.0888
     49 H15        -3.0389    4.1830   -4.2903 H         1 <0>         0.0552
     50 H16        -2.2007    2.6179   -6.0215 H         1 <0>         0.0713
     51 H17        -2.6571    1.2376   -4.9945 H         1 <0>         0.0816
     52 H18        -5.0241    1.9736   -5.0573 H         1 <0>         0.0680
     53 H19        -4.5677    3.3540   -6.0842 H         1 <0>         0.0676
     54 H20        -3.7295    1.7890   -7.8153 H         1 <0>         0.0690
     55 H21        -4.1859    0.4086   -6.7884 H         1 <0>         0.0673
     56 H22        -6.5530    1.1447   -6.8511 H         1 <0>         0.0705
     57 H23        -6.0966    2.5250   -7.8780 H         1 <0>         0.0825
     58 H24        -5.2583    0.9600   -9.6091 H         1 <0>         0.0910
     59 H25        -5.7148   -0.4204   -8.5822 H         1 <0>         0.0538
     60 H26        -8.0020    0.4576   -8.6618 H         1 <0>         0.3759
     61 H27        -7.7703   -1.4849   -8.1160 H         1 <0>         0.1486
     62 H28        -8.2487   -3.8633   -7.8636 H         1 <0>         0.1539
     63 H29        -8.5047   -5.3077   -9.8354 H         1 <0>         0.1570
     64 H30        -8.2880   -4.4017  -12.0846 H         1 <0>         0.1568
     65 H31        -7.9796    2.3253  -11.7820 H         1 <0>         0.1004
     66 H32        -6.3122    2.0642  -11.2244 H         1 <0>         0.0982
     67 H33        -6.5020    3.1051  -13.5301 H         1 <0>         0.0918
     68 H34        -5.5587    1.5936  -13.4799 H         1 <0>         0.0738
     69 H35        -8.5428    1.6828  -14.1163 H         1 <0>         0.0815
     70 H36        -7.2768    1.7212  -15.3695 H         1 <0>         0.0970
     71 H37        -8.1665   -0.5962  -14.8607 H         1 <0>         0.1128
     72 H38        -6.4098   -0.4244  -14.6512 H         1 <0>         0.1230
     73 N3         -1.1165    5.2418    0.1375 N.ar      1 <0>        -0.5142
     74 H39        -1.0446    5.7502    1.0266 H         1 <0>         0.4700
     75 N4         -7.7818   -1.9138  -12.6985 N.ar      1 <0>        -0.5138
     76 H40        -7.8938   -2.5281  -13.5135 H         1 <0>         0.4701
@<TRIPOS>BOND
     1    1    6 ar
     2    1    2 ar
     3    1   35 1
     4    2    3 ar
     5    2   36 1
     6    3    4 ar
     7    3   37 1
     8    4    5 ar
     9    4   73 ar
    10    5    6 ar
    11    5    7 ar
    12    6   38 1
    13    7    8 ar
    14    7   14 1
    15    8   13 1
    16    8    9 ar
    17    9   10 1
    18    9   73 ar
    19   10   11 1
    20   10   39 1
    21   10   40 1
    22   11   12 1
    23   11   41 1
    24   11   42 1
    25   12   13 1
    26   12   43 1
    27   12   44 1
    28   13   45 1
    29   13   46 1
    30   14   15 1
    31   14   47 1
    32   15   16 1
    33   15   48 1
    34   15   49 1
    35   16   17 1
    36   16   50 1
    37   16   51 1
    38   17   18 1
    39   17   52 1
    40   17   53 1
    41   18   19 1
    42   18   54 1
    43   18   55 1
    44   19   20 1
    45   19   56 1
    46   19   57 1
    47   20   21 1
    48   20   58 1
    49   20   59 1
    50   21   22 1
    51   21   60 1
    52   22   30 ar
    53   22   23 ar
    54   23   28 ar
    55   23   24 ar
    56   24   25 ar
    57   24   61 1
    58   25   26 ar
    59   25   62 1
    60   26   27 ar
    61   26   63 1
    62   27   28 ar
    63   27   64 1
    64   28   75 ar
    65   29   34 1
    66   29   30 ar
    67   29   75 ar
    68   30   31 1
    69   31   32 1
    70   31   65 1
    71   31   66 1
    72   32   33 1
    73   32   67 1
    74   32   68 1
    75   33   34 1
    76   33   69 1
    77   33   70 1
    78   34   71 1
    79   34   72 1
    80   73   74 1
    81   75   76 1
@<TRIPOS>MOLECULE
ZINC00003275
   34    37     0     0     0
SMALL
USER_CHARGES
BLAHamine
@<TRIPOS>ATOM
      1 C1          4.8173    0.0283   -0.0728 C.ar      1 <0>        -0.0653
      2 C2          4.8328    1.3639    0.2876 C.ar      1 <0>        -0.1171
      3 C3          3.6592    2.0916    0.2990 C.ar      1 <0>        -0.0814
      4 C4          2.4625    1.4739   -0.0519 C.ar      1 <0>        -0.1240
      5 C5          2.4528    0.1337   -0.4312 C.ar      1 <0>        -0.0236
      6 C6          3.6309   -0.5856   -0.4323 C.ar      1 <0>        -0.1149
      7 C7          1.1624   -0.5241   -0.8409 C.3       1 <0>        -0.0921
      8 C8          0.0021   -0.0041    0.0020 C.3       1 <0>        -0.0633
      9 C9         -0.0183    1.5006    0.0103 C.ar      1 <0>        -0.2171
     10 C10         1.1815    2.2222    0.0027 C.ar      1 <0>         0.3256
     11 C11         0.0567    4.2526    0.0556 C.ar      1 <0>         0.1826
     12 C12         0.0854    5.6584    0.0870 C.ar      1 <0>        -0.1519
     13 C13        -1.0822    6.3581    0.1031 C.ar      1 <0>        -0.0306
     14 C14        -2.3116    5.7038    0.0899 C.ar      1 <0>        -0.1132
     15 C15        -2.3779    4.3429    0.0619 C.ar      1 <0>        -0.0574
     16 C16        -1.1953    3.5912    0.0476 C.ar      1 <0>        -0.1317
     17 C17        -1.2248    2.1752    0.0312 C.ar      1 <0>         0.3671
     18 N1         -2.4284    1.4859    0.0324 N.pl3     1 <0>        -0.7981
     19 H1          5.7366   -0.5385   -0.0730 H         1 <0>         0.1418
     20 H2          5.7640    1.8382    0.5600 H         1 <0>         0.1420
     21 H3          3.6699    3.1345    0.5795 H         1 <0>         0.1268
     22 H4          3.6265   -1.6281   -0.7144 H         1 <0>         0.1434
     23 H5          1.2499   -1.6021   -0.7055 H         1 <0>         0.1027
     24 H6          0.9675   -0.3094   -1.8917 H         1 <0>         0.0941
     25 H7          0.1100   -0.3671    1.0241 H         1 <0>         0.0956
     26 H8         -0.9361   -0.3734   -0.4120 H         1 <0>         0.0901
     27 H9          1.0305    6.1810    0.0985 H         1 <0>         0.1536
     28 H10        -1.0548    7.4375    0.1262 H         1 <0>         0.1532
     29 H11        -3.2236    6.2821    0.1016 H         1 <0>         0.1512
     30 H12        -3.3368    3.8462    0.0512 H         1 <0>         0.1471
     31 H13        -2.4320    0.5160    0.0184 H         1 <0>         0.4252
     32 H14        -3.2667    1.9738    0.0472 H         1 <0>         0.4218
     33 N2          1.2596    3.5819    0.0336 N.ar      1 <0>        -0.5444
     34 H15         2.1595    4.0762    0.0401 H         1 <0>         0.4625
@<TRIPOS>BOND
     1    1    6 ar
     2    1    2 ar
     3    1   19 1
     4    2    3 ar
     5    2   20 1
     6    3    4 ar
     7    3   21 1
     8    4   10 1
     9    4    5 ar
    10    5    6 ar
    11    5    7 1
    12    6   22 1
    13    7    8 1
    14    7   23 1
    15    7   24 1
    16    8    9 1
    17    8   25 1
    18    8   26 1
    19    9   17 ar
    20    9   10 ar
    21   10   33 ar
    22   11   16 ar
    23   11   12 ar
    24   11   33 ar
    25   12   13 ar
    26   12   27 1
    27   13   14 ar
    28   13   28 1
    29   14   15 ar
    30   14   29 1
    31   15   16 ar
    32   15   30 1
    33   16   17 ar
    34   17   18 1
    35   18   31 1
    36   18   32 1
    37   33   34 1
@<TRIPOS>MOLECULE
ZINC33971762
   41    43     0     0     0
SMALL
USER_CHARGES

@<TRIPOS>ATOM
      1 C1         -0.1882    1.7290    0.1955 C.3       1 <0>        -0.1309
      2 C2         -0.0702    0.2073    0.0878 C.3       1 <0>        -0.0259
      3 C3          0.7161   -0.2302   -1.1676 C.3       1 <0>        -0.1094
      4 C4          2.1268   -0.5350   -0.6041 C.3       1 <0>         0.0405
      5 N1          1.8390   -1.1603    0.7115 N.3       1 <0>        -0.5322
      6 C5          0.6980   -0.4088    1.2788 C.3       1 <0>         0.2994
      7 H1          1.0394    0.3565    1.9759 H         1 <0>         0.0776
      8 N2         -0.2494   -1.3390    1.8987 N.pl3     1 <0>        -0.6082
      9 C6         -1.4512   -1.3519    1.1851 C.ar      1 <0>         0.2180
     10 C7         -1.4185   -0.4740    0.1132 C.ar      1 <0>        -0.1472
     11 C8         -2.5141   -0.3423   -0.7184 C.ar      1 <0>        -0.0389
     12 C9         -3.6592   -1.0890   -0.4850 C.ar      1 <0>         0.0429
     13 C10        -3.7001   -1.9683    0.5867 C.ar      1 <0>        -0.0563
     14 C11        -2.6072   -2.1000    1.4164 C.ar      1 <0>        -0.1688
     15 O1         -4.7376   -0.9593   -1.3035 O.3       1 <0>        -0.2261
     16 C12        -4.6383   -1.4352   -2.5634 C.2       1 <0>         0.4996
     17 N3         -3.5806   -2.0956   -2.9265 N.2       1 <0>        -0.6269
     18 C13        -3.4728   -2.6119   -4.2933 C.3       1 <0>         0.0245
     19 O2         -5.6388   -1.2245   -3.4457 O.3       1 <0>        -0.4978
     20 C14         0.0235   -2.1399    3.0947 C.3       1 <0>         0.1095
     21 C15         3.0095   -1.0875    1.5963 C.3       1 <0>         0.0155
     22 H2          0.8083    2.1700    0.2180 H         1 <0>         0.0606
     23 H3         -0.7361    2.1127   -0.6652 H         1 <0>         0.0678
     24 H4         -0.7211    1.9882    1.1104 H         1 <0>         0.0624
     25 H5          0.2747   -1.1248   -1.6069 H         1 <0>         0.0841
     26 H6          0.7587    0.5784   -1.8973 H         1 <0>         0.0791
     27 H7          2.6581   -1.2312   -1.2530 H         1 <0>         0.0875
     28 H8          2.6971    0.3850   -0.4763 H         1 <0>         0.0502
     29 H9         -2.4788    0.3438   -1.5516 H         1 <0>         0.1225
     30 H10        -4.5905   -2.5508    0.7720 H         1 <0>         0.1326
     31 H11        -2.6452   -2.7858    2.2498 H         1 <0>         0.1268
     32 H12        -4.2937   -3.3025   -4.4866 H         1 <0>         0.0494
     33 H13        -3.5212   -1.7831   -4.9996 H         1 <0>         0.0495
     34 H14        -2.5234   -3.1342   -4.4105 H         1 <0>         0.0898
     35 H15        -5.4773   -1.6022   -4.3211 H         1 <0>         0.4199
     36 H16        -0.2683   -1.5785    3.9823 H         1 <0>         0.0491
     37 H17        -0.5461   -3.0680    3.0482 H         1 <0>         0.0679
     38 H18         1.0881   -2.3690    3.1434 H         1 <0>         0.0697
     39 H19         3.2777   -0.0435    1.7587 H         1 <0>         0.0309
     40 H20         2.7720   -1.5546    2.5521 H         1 <0>         0.0681
     41 H21         3.8471   -1.6102    1.1345 H         1 <0>         0.0733
@<TRIPOS>BOND
     1    1    2 1
     2    1   22 1
     3    1   23 1
     4    1   24 1
     5    2    6 1
     6    2   10 1
     7    2    3 1
     8    3    4 1
     9    3   25 1
    10    3   26 1
    11    4    5 1
    12    4   27 1
    13    4   28 1
    14    5    6 1
    15    5   21 1
    16    6    7 1
    17    6    8 1
    18    8    9 1
    19    8   20 1
    20    9   14 ar
    21    9   10 ar
    22   10   11 ar
    23   11   12 ar
    24   11   29 1
    25   12   13 ar
    26   12   15 1
    27   13   14 ar
    28   13   30 1
    29   14   31 1
    30   15   16 1
    31   16   17 2
    32   16   19 1
    33   17   18 1
    34   18   32 1
    35   18   33 1
    36   18   34 1
    37   19   35 1
    38   20   36 1
    39   20   37 1
    40   20   38 1
    41   21   39 1
    42   21   40 1
    43   21   41 1
@<TRIPOS>MOLECULE
ZINC33971762
   42    44     0     0     0
SMALL
USER_CHARGES

@<TRIPOS>ATOM
      1 C1         -0.1882    1.7290    0.1955 C.3       1 <0>        -0.1392
      2 C2         -0.0702    0.2073    0.0878 C.3       1 <0>        -0.0229
      3 C3          0.7161   -0.2302   -1.1676 C.3       1 <0>        -0.1344
      4 C4          2.1268   -0.5350   -0.6041 C.3       1 <0>        -0.0013
      5 N1          1.8390   -1.1603    0.7115 N.4       1 <0>        -0.4135
      6 C5          0.6980   -0.4088    1.2788 C.3       1 <0>         0.2646
      7 H1          1.0394    0.3565    1.9759 H         1 <0>         0.1606
      8 N2         -0.2494   -1.3390    1.8987 N.pl3     1 <0>        -0.6268
      9 C6         -1.4512   -1.3519    1.1851 C.ar      1 <0>         0.1765
     10 C7         -1.4185   -0.4740    0.1132 C.ar      1 <0>        -0.1459
     11 C8         -2.5141   -0.3423   -0.7184 C.ar      1 <0>        -0.0416
     12 C9         -3.6592   -1.0890   -0.4850 C.ar      1 <0>         0.0843
     13 C10        -3.7001   -1.9683    0.5867 C.ar      1 <0>        -0.0559
     14 C11        -2.6072   -2.1000    1.4164 C.ar      1 <0>        -0.1358
     15 O1         -4.7376   -0.9593   -1.3035 O.3       1 <0>        -0.2266
     16 C12        -4.6383   -1.4352   -2.5634 C.2       1 <0>         0.5068
     17 N3         -3.5806   -2.0956   -2.9265 N.2       1 <0>        -0.6345
     18 C13        -3.4728   -2.6119   -4.2933 C.3       1 <0>         0.0224
     19 O2         -5.6388   -1.2245   -3.4457 O.3       1 <0>        -0.4909
     20 C14         0.0238   -2.1405    3.0942 C.3       1 <0>         0.0905
     21 C15         3.0087   -1.0454    1.5928 C.3       1 <0>        -0.0450
     22 H2          0.8083    2.1700    0.2180 H         1 <0>         0.0725
     23 H3         -0.7361    2.1127   -0.6652 H         1 <0>         0.0852
     24 H4         -0.7211    1.9882    1.1104 H         1 <0>         0.0759
     25 H5          0.2747   -1.1248   -1.6069 H         1 <0>         0.1057
     26 H6          0.7587    0.5784   -1.8973 H         1 <0>         0.1233
     27 H7          2.6581   -1.2312   -1.2530 H         1 <0>         0.1390
     28 H8          2.6971    0.3850   -0.4763 H         1 <0>         0.1379
     29 H9         -2.4788    0.3438   -1.5516 H         1 <0>         0.1344
     30 H10        -4.5905   -2.5508    0.7720 H         1 <0>         0.1460
     31 H11        -2.6452   -2.7858    2.2498 H         1 <0>         0.1374
     32 H12        -3.5212   -1.7831   -4.9996 H         1 <0>         0.0540
     33 H13        -2.5234   -3.1342   -4.4105 H         1 <0>         0.0911
     34 H14        -4.2937   -3.3025   -4.4866 H         1 <0>         0.0548
     35 H15        -5.4773   -1.6022   -4.3211 H         1 <0>         0.4255
     36 H16        -0.2674   -1.5795    3.9822 H         1 <0>         0.0730
     37 H17        -0.5461   -3.0685    3.0476 H         1 <0>         0.0899
     38 H18         1.0883   -2.3700    3.1423 H         1 <0>         0.0704
     39 H19         3.2642    0.0063    1.7221 H         1 <0>         0.1241
     40 H20         2.7772   -1.4850    2.5630 H         1 <0>         0.1183
     41 H21         3.8525   -1.5722    1.1472 H         1 <0>         0.1259
     42 H22         1.5894   -2.1301    0.5881 H         1 <0>         0.4242
@<TRIPOS>BOND
     1    1    2 1
     2    1   22 1
     3    1   23 1
     4    1   24 1
     5    2    6 1
     6    2   10 1
     7    2    3 1
     8    3    4 1
     9    3   25 1
    10    3   26 1
    11    4    5 1
    12    4   27 1
    13    4   28 1
    14    5    6 1
    15    5   21 1
    16    5   42 1
    17    6    7 1
    18    6    8 1
    19    8    9 1
    20    8   20 1
    21    9   14 ar
    22    9   10 ar
    23   10   11 ar
    24   11   12 ar
    25   11   29 1
    26   12   13 ar
    27   12   15 1
    28   13   14 ar
    29   13   30 1
    30   14   31 1
    31   15   16 1
    32   16   17 2
    33   16   19 1
    34   17   18 1
    35   18   32 1
    36   18   33 1
    37   18   34 1
    38   19   35 1
    39   20   36 1
    40   20   37 1
    41   20   38 1
    42   21   39 1
    43   21   40 1
    44   21   41 1
