@<TRIPOS>MOLECULE
ZINC00005898
   24    25     0     0     0
SMALL
USER_CHARGES
3-[(2R)-pyrrolidin-2-yl]pyridine
@<TRIPOS>ATOM
      1 C1         -3.5303    4.7937   -3.0864 C.ar      1 <0>        -0.1553
      2 C2         -3.3015    3.6409   -2.3505 C.ar      1 <0>        -0.0406
      3 C3         -2.2630    3.6396   -1.4321 C.ar      1 <0>        -0.1948
      4 C4         -1.4884    4.7755   -1.2899 C.ar      1 <0>         0.1032
      5 N1         -1.7311    5.8521   -2.0114 N.ar      1 <0>        -0.4673
      6 C5         -2.7136    5.8909   -2.8903 C.ar      1 <0>         0.1291
      7 C6         -1.9784    2.4133   -0.6038 C.3       1 <0>         0.0880
      8 H1         -2.8671    1.7856   -0.5376 H         1 <0>         0.1514
      9 C7         -0.8008    1.6177   -1.2067 C.3       1 <0>        -0.1418
     10 C8         -0.0127    1.0858    0.0080 C.3       1 <0>        -0.1510
     11 C9         -0.7780    1.6049    1.2442 C.3       1 <0>        -0.0060
     12 H2         -4.3332    4.8316   -3.8077 H         1 <0>         0.1533
     13 H3         -3.9205    2.7663   -2.4863 H         1 <0>         0.1482
     14 H4         -0.6746    4.7812   -0.5798 H         1 <0>         0.1483
     15 H5         -2.8820    6.7908   -3.4632 H         1 <0>         0.1724
     16 H6         -0.1711    2.2719   -1.8096 H         1 <0>         0.1009
     17 H7         -1.1729    0.7888   -1.8090 H         1 <0>         0.1144
     18 H8          0.0021   -0.0041    0.0020 H         1 <0>         0.1134
     19 H9          1.0044    1.4776    0.0004 H         1 <0>         0.1017
     20 H10        -1.4779    0.8500    1.6026 H         1 <0>         0.1366
     21 H11        -0.0803    1.8832    2.0340 H         1 <0>         0.1435
     22 N2         -1.5074    2.7697    0.7356 N.4       1 <0>        -0.5148
     23 H12        -2.3044    2.9835    1.3466 H         1 <0>         0.4380
     24 H13        -0.8848    3.5847    0.6874 H         1 <0>         0.4294
@<TRIPOS>BOND
     1    1    6 ar
     2    1    2 ar
     3    1   12 1
     4    2    3 ar
     5    2   13 1
     6    3    4 ar
     7    3    7 1
     8    4    5 ar
     9    4   14 1
    10    5    6 ar
    11    6   15 1
    12    7    8 1
    13    7    9 1
    14    7   22 1
    15    9   10 1
    16    9   16 1
    17    9   17 1
    18   10   11 1
    19   10   18 1
    20   10   19 1
    21   11   20 1
    22   11   21 1
    23   11   22 1
    24   22   23 1
    25   22   24 1
@<TRIPOS>MOLECULE
ZINC00391820
   24    25     0     0     0
SMALL
USER_CHARGES

@<TRIPOS>ATOM
      1 C1         -0.0167    1.3776    0.0096 C.ar      1 <0>        -0.1555
      2 C2          1.1849    2.0698    0.0019 C.ar      1 <0>        -0.0408
      3 C3          2.3651    1.3426   -0.0133 C.ar      1 <0>        -0.1999
      4 C4          2.3054   -0.0383   -0.0202 C.ar      1 <0>         0.1010
      5 N1          1.1443   -0.6632   -0.0129 N.ar      1 <0>        -0.4674
      6 C5          0.0021   -0.0041    0.0020 C.ar      1 <0>         0.1293
      7 C6          3.6964    2.0488   -0.0227 C.3       1 <0>         0.0843
      8 H1          3.5738    3.0754    0.3224 H         1 <0>         0.1494
      9 C7          4.2846    2.0413   -1.4494 C.3       1 <0>        -0.1342
     10 C8          5.8001    1.8213   -1.2015 C.3       1 <0>        -0.1434
     11 C9          5.7823    0.8677    0.0191 C.3       1 <0>        -0.0105
     12 N2          4.6482    1.3366    0.8495 N.4       1 <0>        -0.5163
     13 H2         -0.9552    1.9117    0.0259 H         1 <0>         0.1533
     14 H3          1.2009    3.1496    0.0072 H         1 <0>         0.1483
     15 H4          3.2203   -0.6121   -0.0320 H         1 <0>         0.1503
     16 H5         -0.9294   -0.5505    0.0083 H         1 <0>         0.1724
     17 H6          3.8668    1.2219   -2.0342 H         1 <0>         0.1017
     18 H7          4.1096    2.9971   -1.9434 H         1 <0>         0.1173
     19 H8          6.2715    1.3459   -2.0616 H         1 <0>         0.1204
     20 H9          6.2960    2.7605   -0.9560 H         1 <0>         0.1020
     21 H10         5.6177   -0.1600   -0.3047 H         1 <0>         0.1349
     22 H11         6.7162    0.9461    0.5756 H         1 <0>         0.1412
     23 H12         4.9851    1.9618    1.5663 H         1 <0>         0.4341
     24 H13         4.1901    0.5462    1.2779 H         1 <0>         0.4283
@<TRIPOS>BOND
     1    1    6 ar
     2    1    2 ar
     3    1   13 1
     4    2    3 ar
     5    2   14 1
     6    3    4 ar
     7    3    7 1
     8    4    5 ar
     9    4   15 1
    10    5    6 ar
    11    6   16 1
    12    7    8 1
    13    7   12 1
    14    7    9 1
    15    9   10 1
    16    9   17 1
    17    9   18 1
    18   10   11 1
    19   10   19 1
    20   10   20 1
    21   11   12 1
    22   11   21 1
    23   11   22 1
    24   12   23 1
    25   12   24 1
@<TRIPOS>MOLECULE
ZINC12359024
   22    21     0     0     0
SMALL
USER_CHARGES
(2R,3S,4R,5S)-2,3,4,5-tetrahydroxyhexanedioic acid
@<TRIPOS>ATOM
      1 C1          1.2864    1.5618   -0.0018 C.3       1 <0>         0.0712
      2 H1          1.1856    2.6471    0.0050 H         1 <0>         0.1105
      3 C2          2.0397    1.1274   -1.2607 C.3       1 <0>         0.0711
      4 H2          2.1405    0.0421   -1.2675 H         1 <0>         0.1105
      5 C3          1.2625    1.5752   -2.5002 C.3       1 <0>         0.0362
      6 H3          0.3080    1.0503   -2.5398 H         1 <0>         0.1065
      7 C4          2.0626    1.2568   -3.7369 C.2       1 <0>         0.4525
      8 O1          2.4758    2.1515   -4.4360 O.co2     1 <0>        -0.6382
      9 O2          1.0293    2.9834   -2.4331 O.3       1 <0>        -0.5517
     10 O3          3.3371    1.7263   -1.2698 O.3       1 <0>        -0.5435
     11 C5          2.0636    1.1140    1.2377 C.3       1 <0>         0.0362
     12 H4          3.0180    1.6389    1.2773 H         1 <0>         0.1065
     13 C6          1.2635    1.4323    2.4744 C.2       1 <0>         0.4525
     14 O4          0.8503    0.5377    3.1735 O.co2     1 <0>        -0.6381
     15 O5          2.2968   -0.2943    1.1706 O.3       1 <0>        -0.5517
     16 O6         -0.0110    0.9628    0.0073 O.3       1 <0>        -0.5436
     17 H5          1.8365    3.5144   -2.3953 H         1 <0>         0.3634
     18 H6          3.3240    2.6932   -1.2645 H         1 <0>         0.3613
     19 H7          1.4895   -0.8253    1.1328 H         1 <0>         0.3634
     20 H8          0.0021   -0.0041    0.0020 H         1 <0>         0.3613
     21 O7          2.3162   -0.0206   -4.0618 O.co2     1 <0>        -0.7681
     22 O8          1.0099    2.7098    2.7993 O.co2     1 <0>        -0.7682
@<TRIPOS>BOND
     1    1    2 1
     2    1    3 1
     3    1   11 1
     4    1   16 1
     5    3    4 1
     6    3    5 1
     7    3   10 1
     8    5    6 1
     9    5    7 1
    10    5    9 1
    11    7    8 2
    12    7   21 1
    13    9   17 1
    14   10   18 1
    15   11   12 1
    16   11   13 1
    17   11   15 1
    18   13   14 2
    19   13   22 1
    20   15   19 1
    21   16   20 1
@<TRIPOS>MOLECULE
ZINC03828421
   31    33     0     0     0
SMALL
USER_CHARGES
2-(3-pyridyl)quinuclidine
@<TRIPOS>ATOM
      1 C1         -4.4614    3.3273    1.6845 C.ar      1 <0>        -0.1528
      2 C2         -3.1715    2.8184    1.6924 C.ar      1 <0>        -0.0473
      3 C3         -2.1374    3.6349    1.2613 C.ar      1 <0>        -0.1897
      4 C4         -2.4237    4.9218    0.8459 C.ar      1 <0>         0.0954
      5 N1         -3.6636    5.3705    0.8466 N.ar      1 <0>        -0.4653
      6 C5         -4.6718    4.6222    1.2503 C.ar      1 <0>         0.1249
      7 C6         -0.7182    3.1280    1.2517 C.3       1 <0>         0.0934
      8 H1         -0.2495    3.3407    2.2125 H         1 <0>         0.1468
      9 C7         -0.7167    1.6166    1.0059 C.3       1 <0>        -0.1366
     10 C8          0.0705    1.3242   -0.2778 C.3       1 <0>        -0.1022
     11 C9         -0.5875    2.0579   -1.4532 C.3       1 <0>        -0.1291
     12 C10        -0.5992    3.5707   -1.1261 C.3       1 <0>        -0.0098
     13 C11         1.4368    3.3606    0.1698 C.3       1 <0>         0.0006
     14 C12         1.4992    1.8557   -0.1073 C.3       1 <0>        -0.1378
     15 H2         -5.2911    2.7194    2.0138 H         1 <0>         0.1528
     16 H3         -2.9770    1.8100    2.0268 H         1 <0>         0.1503
     17 H4         -1.6233    5.5656    0.5125 H         1 <0>         0.1452
     18 H5         -5.6734    5.0260    1.2410 H         1 <0>         0.1719
     19 H6         -1.7419    1.2637    0.8939 H         1 <0>         0.1052
     20 H7         -0.2441    1.1102    1.8475 H         1 <0>         0.1065
     21 H8          0.0901    0.2513   -0.4693 H         1 <0>         0.1180
     22 H9         -0.0226    1.8663   -2.3655 H         1 <0>         0.1037
     23 H10        -1.6121    1.7069   -1.5753 H         1 <0>         0.0970
     24 H11        -1.6268    3.9334   -1.0999 H         1 <0>         0.1255
     25 H12        -0.0441    4.1061   -1.8964 H         1 <0>         0.1306
     26 H13         1.8904    3.5712    1.1383 H         1 <0>         0.1294
     27 H14         1.9779    3.8966   -0.6099 H         1 <0>         0.1315
     28 H15         1.9796    1.3498    0.7302 H         1 <0>         0.1017
     29 H16         2.0672    1.6756   -1.0199 H         1 <0>         0.1022
     30 N2          0.0329    3.8250    0.1861 N.4       1 <0>        -0.3904
     31 H17         0.0180    4.8345    0.3733 H         1 <0>         0.4287
@<TRIPOS>BOND
     1    1    6 ar
     2    1    2 ar
     3    1   15 1
     4    2    3 ar
     5    2   16 1
     6    3    4 ar
     7    3    7 1
     8    4    5 ar
     9    4   17 1
    10    5    6 ar
    11    6   18 1
    12    7    8 1
    13    7    9 1
    14    7   30 1
    15    9   10 1
    16    9   19 1
    17    9   20 1
    18   10   14 1
    19   10   11 1
    20   10   21 1
    21   11   12 1
    22   11   22 1
    23   11   23 1
    24   12   24 1
    25   12   25 1
    26   12   30 1
    27   13   14 1
    28   13   26 1
    29   13   27 1
    30   13   30 1
    31   14   28 1
    32   14   29 1
    33   30   31 1
@<TRIPOS>MOLECULE
ZINC04632552
   31    33     0     0     0
SMALL
USER_CHARGES
2-(3-pyridyl)quinuclidine
@<TRIPOS>ATOM
      1 C1          0.7756   -0.3647    4.7066 C.ar      1 <0>        -0.1527
      2 C2          1.4456    0.1508    3.6073 C.ar      1 <0>        -0.0475
      3 C3          1.3999   -0.5560    2.4157 C.ar      1 <0>        -0.1895
      4 C4          0.6887   -1.7400    2.3617 C.ar      1 <0>         0.0952
      5 N1          0.0680   -2.2031    3.4288 N.ar      1 <0>        -0.4652
      6 C5          0.0895   -1.5573    4.5785 C.ar      1 <0>         0.1247
      7 C6          2.1115   -0.0369    1.1928 C.3       1 <0>         0.0934
      8 H1          3.1310   -0.4219    1.1745 H         1 <0>         0.1469
      9 C7          2.1434    1.4936    1.2315 C.3       1 <0>        -0.1377
     10 C8          1.4191    2.0356   -0.0073 C.3       1 <0>        -0.0995
     11 C9         -0.0234    1.5145    0.0023 C.3       1 <0>        -0.1341
     12 C10         0.0042   -0.0167   -0.0021 C.3       1 <0>        -0.0069
     13 C11         2.0932   -0.0305   -1.2286 C.3       1 <0>         0.0007
     14 C12         2.1244    1.5001   -1.2598 C.3       1 <0>        -0.1376
     15 H2          0.7896    0.1595    5.6507 H         1 <0>         0.1528
     16 H3          1.9904    1.0807    3.6781 H         1 <0>         0.1503
     17 H4          0.6448   -2.2945    1.4359 H         1 <0>         0.1451
     18 H5         -0.4348   -1.9655    5.4299 H         1 <0>         0.1719
     19 H6          1.6409    1.8467    2.1319 H         1 <0>         0.1051
     20 H7          3.1777    1.8374    1.2317 H         1 <0>         0.1064
     21 H8          1.4240    3.1256    0.0026 H         1 <0>         0.1191
     22 H9         -0.5472    1.8729   -0.8839 H         1 <0>         0.1022
     23 H10        -0.5335    1.8680    0.8983 H         1 <0>         0.0976
     24 H11        -0.4957   -0.3919    0.8908 H         1 <0>         0.1251
     25 H12        -0.5090   -0.3871   -0.8894 H         1 <0>         0.1312
     26 H13         3.1131   -0.4151   -1.2274 H         1 <0>         0.1295
     27 H14         1.5654   -0.4015   -2.1072 H         1 <0>         0.1316
     28 H15         1.6083    1.8578   -2.1507 H         1 <0>         0.1023
     29 H16         3.1586    1.8441   -1.2718 H         1 <0>         0.1019
     30 N2          1.3989   -0.5080   -0.0138 N.4       1 <0>        -0.3910
     31 H17         1.3906   -1.5348   -0.0164 H         1 <0>         0.4286
@<TRIPOS>BOND
     1    1    6 ar
     2    1    2 ar
     3    1   15 1
     4    2    3 ar
     5    2   16 1
     6    3    4 ar
     7    3    7 1
     8    4    5 ar
     9    4   17 1
    10    5    6 ar
    11    6   18 1
    12    7    8 1
    13    7    9 1
    14    7   30 1
    15    9   10 1
    16    9   19 1
    17    9   20 1
    18   10   14 1
    19   10   11 1
    20   10   21 1
    21   11   12 1
    22   11   22 1
    23   11   23 1
    24   12   24 1
    25   12   25 1
    26   12   30 1
    27   13   14 1
    28   13   26 1
    29   13   27 1
    30   13   30 1
    31   14   28 1
    32   14   29 1
    33   30   31 1
@<TRIPOS>MOLECULE
ZINC00391812
   27    28     0     0     0
SMALL
USER_CHARGES

@<TRIPOS>ATOM
      1 C1          0.3944    1.5372   -0.0882 C.3       1 <0>        -0.0517
      2 N1          0.2218    0.0783   -0.0924 N.4       1 <0>        -0.3878
      3 C2          0.9063   -0.4989   -1.2638 C.3       1 <0>        -0.0125
      4 C3          1.9925   -1.4575   -0.7321 C.3       1 <0>        -0.1421
      5 C4          2.2411   -0.9393    0.7089 C.3       1 <0>        -0.1364
      6 C5          0.8181   -0.4968    1.1321 C.3       1 <0>         0.0811
      7 H1          0.2382   -1.3559    1.4692 H         1 <0>         0.1507
      8 C6          0.8940    0.5453    2.2181 C.ar      1 <0>        -0.2036
      9 C7          1.8431    1.5545    2.1577 C.ar      1 <0>        -0.0573
     10 C8          1.8760    2.4913    3.1790 C.ar      1 <0>        -0.1660
     11 C9          0.9680    2.3891    4.2162 C.ar      1 <0>         0.1377
     12 N2          0.0793    1.4154    4.2410 N.ar      1 <0>        -0.4739
     13 C10         0.0150    0.5105    3.2837 C.ar      1 <0>         0.1353
     14 H2          1.4576    1.7772   -0.0812 H         1 <0>         0.1215
     15 H3         -0.0678    1.9603   -0.9800 H         1 <0>         0.1243
     16 H4         -0.0786    1.9564    0.7999 H         1 <0>         0.1209
     17 H5          0.1926   -1.0502   -1.8760 H         1 <0>         0.1353
     18 H6          1.3676    0.2945   -1.8519 H         1 <0>         0.1319
     19 H7          1.6257   -2.4838   -0.7146 H         1 <0>         0.1029
     20 H8          2.9001   -1.3816   -1.3309 H         1 <0>         0.1144
     21 H9          2.6094   -1.7378    1.3529 H         1 <0>         0.1203
     22 H10         2.9285   -0.0933    0.7065 H         1 <0>         0.0978
     23 H11         2.5404    1.6091    1.3347 H         1 <0>         0.1428
     24 H12         2.6020    3.2907    3.1646 H         1 <0>         0.1512
     25 H13         0.9870    3.1149    5.0157 H         1 <0>         0.1712
     26 H14        -0.7302   -0.2695    3.3356 H         1 <0>         0.1637
     27 H15        -0.7608   -0.1480   -0.1301 H         1 <0>         0.4285
@<TRIPOS>BOND
     1    1    2 1
     2    1   14 1
     3    1   15 1
     4    1   16 1
     5    2    6 1
     6    2    3 1
     7    2   27 1
     8    3    4 1
     9    3   17 1
    10    3   18 1
    11    4    5 1
    12    4   19 1
    13    4   20 1
    14    5    6 1
    15    5   21 1
    16    5   22 1
    17    6    7 1
    18    6    8 1
    19    8   13 ar
    20    8    9 ar
    21    9   10 ar
    22    9   23 1
    23   10   11 ar
    24   10   24 1
    25   11   12 ar
    26   11   25 1
    27   12   13 ar
    28   13   26 1
@<TRIPOS>MOLECULE
ZINC00967913
   28    30     0     0     0
SMALL
USER_CHARGES

@<TRIPOS>ATOM
      1 C1          1.2171   -0.6545    0.1555 C.ar      1 <0>        -0.0752
      2 C2          2.3777    0.1031    0.1418 C.ar      1 <0>        -0.1425
      3 C3          2.2860    1.4736   -0.0235 C.ar      1 <0>         0.1878
      4 N1          1.1116    2.0586   -0.1663 N.ar      1 <0>        -0.4633
      5 C4         -0.0121    1.3684   -0.1581 C.ar      1 <0>         0.1458
      6 C5          0.0021   -0.0041    0.0020 C.ar      1 <0>        -0.1631
      7 C6         -1.2872   -0.7844    0.0101 C.3       1 <0>        -0.0612
      8 H1         -2.1393   -0.1141    0.1233 H         1 <0>         0.1365
      9 C7         -1.2749   -1.8456    1.1375 C.3       1 <0>        -0.1443
     10 C8         -1.4042   -3.1952    0.3689 C.3       1 <0>         0.0384
     11 H2         -1.0647   -4.0789    0.9092 H         1 <0>         0.1726
     12 C9         -2.8802   -3.2368   -0.1294 C.3       1 <0>        -0.1467
     13 C10        -2.9122   -2.1745   -1.2554 C.3       1 <0>        -0.1410
     14 C11        -1.4241   -1.6312   -1.2910 C.3       1 <0>         0.0452
     15 H3         -1.1139   -1.1348   -2.2105 H         1 <0>         0.1734
     16 N2         -0.6607   -2.8754   -0.9018 N.4       1 <0>        -0.5418
     17 Cl1         3.7316    2.4346   -0.0426 Cl        1 <0>        -0.0014
     18 H4          1.2583   -1.7267    0.2784 H         1 <0>         0.1305
     19 H5          3.3413   -0.3704    0.2590 H         1 <0>         0.1568
     20 H6         -0.9547    1.8820   -0.2775 H         1 <0>         0.1733
     21 H7         -0.3364   -1.8073    1.6905 H         1 <0>         0.1022
     22 H8         -2.1225   -1.7031    1.8079 H         1 <0>         0.1235
     23 H9         -3.1240   -4.2228   -0.5251 H         1 <0>         0.1015
     24 H10        -3.5644   -2.9648    0.6743 H         1 <0>         0.1177
     25 H11        -3.1719   -2.6339   -2.2092 H         1 <0>         0.1026
     26 H12        -3.6123   -1.3759   -1.0098 H         1 <0>         0.1175
     27 H13         0.3118   -2.6745   -0.7232 H         1 <0>         0.4224
     28 H14        -0.7670   -3.6066   -1.5889 H         1 <0>         0.4327
@<TRIPOS>BOND
     1    1    6 ar
     2    1    2 ar
     3    1   18 1
     4    2    3 ar
     5    2   19 1
     6    3    4 ar
     7    3   17 1
     8    4    5 ar
     9    5    6 ar
    10    5   20 1
    11    6    7 1
    12    7    8 1
    13    7   14 1
    14    7    9 1
    15    9   10 1
    16    9   21 1
    17    9   22 1
    18   10   11 1
    19   10   16 1
    20   10   12 1
    21   12   13 1
    22   12   23 1
    23   12   24 1
    24   13   14 1
    25   13   25 1
    26   13   26 1
    27   14   15 1
    28   14   16 1
    29   16   27 1
    30   16   28 1
@<TRIPOS>MOLECULE
ZINC02565794
   28    30     0     0     0
SMALL
USER_CHARGES

@<TRIPOS>ATOM
      1 C1          1.0928   -0.4585   -0.7237 C.ar      1 <0>        -0.0620
      2 C2          2.2584    0.2913   -0.7024 C.ar      1 <0>        -0.1496
      3 C3          2.2945    1.4601    0.0370 C.ar      1 <0>         0.1879
      4 N1          1.2364    1.8615    0.7161 N.ar      1 <0>        -0.4678
      5 C4          0.1118    1.1728    0.7180 C.ar      1 <0>         0.1387
      6 C5          0.0021   -0.0041    0.0020 C.ar      1 <0>        -0.1517
      7 C6         -1.2872   -0.7844    0.0101 C.3       1 <0>        -0.0603
      8 H1         -2.1406   -0.1121    0.0984 H         1 <0>         0.1214
      9 C7         -1.4069   -1.6526   -1.2663 C.3       1 <0>        -0.1520
     10 C8         -1.4635   -3.1084   -0.7127 C.3       1 <0>         0.0416
     11 H2         -1.8985   -3.8501   -1.3825 H         1 <0>         0.1732
     12 C9         -0.0153   -3.4112   -0.2228 C.3       1 <0>        -0.1506
     13 C10         0.1242   -2.5441    1.0524 C.3       1 <0>        -0.1538
     14 C11        -1.2892   -1.8286    1.1671 C.3       1 <0>         0.0430
     15 H3         -1.5584   -1.4416    2.1499 H         1 <0>         0.1768
     16 N2         -2.1888   -2.8932    0.5901 N.4       1 <0>        -0.5340
     17 Cl1         3.7479    2.4089    0.0725 Cl        1 <0>        -0.0051
     18 H4          1.0341   -1.3727   -1.2956 H         1 <0>         0.1499
     19 H5          3.1274   -0.0328   -1.2557 H         1 <0>         0.1556
     20 H6         -0.7333    1.5325    1.2862 H         1 <0>         0.1691
     21 H7         -2.3211   -1.4127   -1.8092 H         1 <0>         0.1082
     22 H8         -0.5337   -1.5186   -1.9048 H         1 <0>         0.1199
     23 H9          0.0951   -4.4685    0.0180 H         1 <0>         0.1039
     24 H10         0.7148   -3.1093   -0.9738 H         1 <0>         0.1130
     25 H11         0.3037   -3.1717    1.9253 H         1 <0>         0.1016
     26 H12         0.9234   -1.8126    0.9335 H         1 <0>         0.1174
     27 H13        -3.1247   -2.5463    0.4419 H         1 <0>         0.4324
     28 H14        -2.1894   -3.7275    1.1576 H         1 <0>         0.4332
@<TRIPOS>BOND
     1    1    6 ar
     2    1    2 ar
     3    1   18 1
     4    2    3 ar
     5    2   19 1
     6    3    4 ar
     7    3   17 1
     8    4    5 ar
     9    5    6 ar
    10    5   20 1
    11    6    7 1
    12    7    8 1
    13    7   14 1
    14    7    9 1
    15    9   10 1
    16    9   21 1
    17    9   22 1
    18   10   11 1
    19   10   16 1
    20   10   12 1
    21   12   13 1
    22   12   23 1
    23   12   24 1
    24   13   14 1
    25   13   25 1
    26   13   26 1
    27   14   15 1
    28   14   16 1
    29   16   27 1
    30   16   28 1
