@<TRIPOS>MOLECULE
ZINC00008089
   24    25     0     0     0
SMALL
USER_CHARGES
3-methyl-5-[(2S)-pyrrolidin-2-yl]isoxazole
@<TRIPOS>ATOM
      1 C1         -5.8651    0.2746   -3.8050 C.3       1 <0>        -0.0899
      2 C2         -4.8057    0.3689   -2.7374 C.2       1 <0>         0.0302
      3 C3         -4.0562    1.5153   -2.3869 C.2       1 <0>        -0.1599
      4 C4         -3.2494    1.0859   -1.3872 C.2       1 <0>        -0.1195
      5 O1         -3.5312   -0.2115   -1.2029 O.3       1 <0>         0.1072
      6 N1         -4.3988   -0.5893   -1.9558 N.2       1 <0>        -0.3306
      7 C5         -2.2314    1.9037   -0.6350 C.3       1 <0>         0.1355
      8 H1         -2.4663    2.9642   -0.7266 H         1 <0>         0.1691
      9 C6         -0.8223    1.6286   -1.1920 C.3       1 <0>        -0.1425
     10 C7         -0.0127    1.0858    0.0080 C.3       1 <0>        -0.1491
     11 C8         -0.8009    1.6167    1.2317 C.3       1 <0>        -0.0042
     12 H2         -5.4031   -0.0065   -4.7515 H         1 <0>         0.0917
     13 H3         -6.6003   -0.4787   -3.5218 H         1 <0>         0.0864
     14 H4         -6.3580    1.2406   -3.9141 H         1 <0>         0.0916
     15 H5         -4.1137    2.5044   -2.8167 H         1 <0>         0.1871
     16 H6         -0.3756    2.5508   -1.5636 H         1 <0>         0.1165
     17 H7         -0.8682    0.8829   -1.9857 H         1 <0>         0.1085
     18 H8          0.0021   -0.0041    0.0020 H         1 <0>         0.1017
     19 H9          1.0019    1.4840    0.0005 H         1 <0>         0.1220
     20 H10        -0.6178    0.9936    2.1071 H         1 <0>         0.1467
     21 H11        -0.5403    2.6552    1.4361 H         1 <0>         0.1405
     22 N2         -2.2000    1.5144    0.7760 N.4       1 <0>        -0.5194
     23 H12        -2.5334    0.5490    0.8811 H         1 <0>         0.4393
     24 H13        -2.7953    2.1439    1.3270 H         1 <0>         0.4411
@<TRIPOS>BOND
     1    1    2 1
     2    1   12 1
     3    1   13 1
     4    1   14 1
     5    2    6 2
     6    2    3 1
     7    3    4 2
     8    3   15 1
     9    4    5 1
    10    4    7 1
    11    5    6 1
    12    7    8 1
    13    7    9 1
    14    7   22 1
    15    9   10 1
    16    9   16 1
    17    9   17 1
    18   10   11 1
    19   10   18 1
    20   10   19 1
    21   11   20 1
    22   11   21 1
    23   11   22 1
    24   22   23 1
    25   22   24 1
@<TRIPOS>MOLECULE
ZINC04098884
   28    29     0     0     0
SMALL
USER_CHARGES

@<TRIPOS>ATOM
      1 C1         -0.0184    1.5028    0.0103 C.3       1 <0>        -0.2103
      2 C2          0.0021   -0.0041    0.0020 C.2       1 <0>         0.3798
      3 O1          1.0609   -0.5963   -0.0113 O.2       1 <0>        -0.4350
      4 C3         -1.2613   -0.7566    0.0100 C.2       1 <0>        -0.2743
      5 C4         -1.1803   -2.0831   -0.0453 C.2       1 <0>         0.0084
      6 C5         -2.4528   -2.9230    0.0168 C.3       1 <0>        -0.1381
      7 C6         -3.2610   -2.6693   -1.2566 C.3       1 <0>        -0.1290
      8 C7         -4.0383   -1.3685   -1.1625 C.3       1 <0>         0.0182
      9 H1         -4.8385   -1.3502   -1.9105 H         1 <0>         0.1517
     10 C8         -4.6272   -1.2637    0.2730 C.3       1 <0>        -0.1447
     11 C9         -3.5252   -0.5381    1.0778 C.3       1 <0>        -0.1436
     12 C10        -2.5467    0.0118    0.0264 C.3       1 <0>         0.0890
     13 H2         -2.3553    1.0768    0.2028 H         1 <0>         0.1562
     14 N1         -3.2191   -0.1720   -1.2776 N.4       1 <0>        -0.5030
     15 H3          1.0042    1.8801    0.0026 H         1 <0>         0.0980
     16 H4         -0.5455    1.8639   -0.8728 H         1 <0>         0.0909
     17 H5         -0.5286    1.8543    0.9071 H         1 <0>         0.0992
     18 H6         -0.2176   -2.5630   -0.1336 H         1 <0>         0.1540
     19 H7         -2.1651   -3.9823    0.0362 H         1 <0>         0.1025
     20 H8         -3.0265   -2.7041    0.9010 H         1 <0>         0.1147
     21 H9         -2.5779   -2.6225   -2.1050 H         1 <0>         0.0906
     22 H10        -3.9564   -3.4962   -1.4038 H         1 <0>         0.1217
     23 H11        -5.5484   -0.6718    0.2684 H         1 <0>         0.1026
     24 H12        -4.8307   -2.2519    0.6887 H         1 <0>         0.1173
     25 H13        -3.9662    0.2902    1.6448 H         1 <0>         0.1084
     26 H14        -3.0243   -1.2129    1.7669 H         1 <0>         0.1113
     27 H15        -2.5327   -0.2917   -2.0062 H         1 <0>         0.4285
     28 H16        -3.8015    0.6268   -1.4787 H         1 <0>         0.4349
@<TRIPOS>BOND
     1    1    2 1
     2    1   15 1
     3    1   16 1
     4    1   17 1
     5    2    3 2
     6    2    4 1
     7    4   12 1
     8    4    5 2
     9    5    6 1
    10    5   18 1
    11    6    7 1
    12    6   19 1
    13    6   20 1
    14    7    8 1
    15    7   21 1
    16    7   22 1
    17    8    9 1
    18    8   14 1
    19    8   10 1
    20   10   11 1
    21   10   23 1
    22   10   24 1
    23   11   12 1
    24   11   25 1
    25   11   26 1
    26   12   13 1
    27   12   14 1
    28   14   27 1
    29   14   28 1
@<TRIPOS>MOLECULE
ZINC49035878
   55    57     0     0     0
SMALL
USER_CHARGES

@<TRIPOS>ATOM
      1 C1          1.1571   -0.7804   -0.8292 C.ar      1 <0>        -0.0505
      2 C2          2.3897   -0.1616   -0.8639 C.ar      1 <0>        -0.1576
      3 C3          2.6059    0.9977   -0.1363 C.ar      1 <0>         0.1124
      4 C4          1.5862    1.5410    0.6285 C.ar      1 <0>        -0.1556
      5 C5          0.3505    0.9290    0.6692 C.ar      1 <0>        -0.0718
      6 C6          0.1284   -0.2374   -0.0611 C.ar      1 <0>        -0.0634
      7 C7         -1.1983   -0.8987   -0.0210 C.ar      1 <0>         0.1569
      8 C8         -2.2222   -0.3445    0.7458 C.ar      1 <0>        -0.1399
      9 C9         -3.4549   -0.9696    0.7756 C.ar      1 <0>        -0.0720
     10 C10        -3.6259   -2.1368    0.0329 C.ar      1 <0>         0.1069
     11 C11        -2.5602   -2.6314   -0.7083 C.ar      1 <0>         0.0888
     12 N1         -1.4000   -2.0084   -0.7194 N.ar      1 <0>        -0.4554
     13 N2         -4.8564   -2.8027    0.0344 N.am      1 <0>        -0.6775
     14 C12        -6.0020   -2.1014    0.1456 C.2       1 <0>         0.7052
     15 O1         -5.9729   -0.8859    0.1475 O.2       1 <0>        -0.5674
     16 N3         -7.1798   -2.7475    0.2547 N.am      1 <0>        -0.7443
     17 C13        -8.4250   -1.9852    0.3756 C.3       1 <0>         0.1372
     18 C14        -9.6061   -2.9517    0.4838 C.3       1 <0>        -0.1301
     19 C15       -10.9066   -2.1556    0.6101 C.3       1 <0>        -0.1465
     20 C16       -12.0877   -3.1220    0.7182 C.3       1 <0>        -0.0090
     21 N4        -13.3363   -2.3577    0.8395 N.4       1 <0>        -0.3832
     22 C17       -13.3255   -1.6021    2.0978 C.3       1 <0>        -0.0125
     23 C18       -14.5873   -0.7415    2.1913 C.3       1 <0>        -0.1464
     24 C19       -15.8210   -1.6477    2.1488 C.3       1 <0>        -0.1399
     25 C20       -15.7833   -2.4851    0.8672 C.3       1 <0>        -0.1468
     26 C21       -14.4772   -3.2811    0.8228 C.3       1 <0>        -0.0065
     27 F1          3.8147    1.5999   -0.1725 F         1 <0>        -0.1351
     28 H1          0.9882   -1.6816   -1.3998 H         1 <0>         0.1456
     29 H2          3.1873   -0.5815   -1.4587 H         1 <0>         0.1411
     30 H3          1.7592    2.4447    1.1940 H         1 <0>         0.1413
     31 H4         -0.4436    1.3529    1.2659 H         1 <0>         0.1372
     32 H5         -2.0545    0.5613    1.3095 H         1 <0>         0.1433
     33 H6         -4.2664   -0.5633    1.3610 H         1 <0>         0.1483
     34 H7         -2.6859   -3.5354   -1.2857 H         1 <0>         0.1611
     35 H8         -4.8851   -3.7690   -0.0447 H         1 <0>         0.4112
     36 H9         -7.2029   -3.7172    0.2531 H         1 <0>         0.4007
     37 H10        -8.3835   -1.3608    1.2681 H         1 <0>         0.0725
     38 H11        -8.5514   -1.3539   -0.5040 H         1 <0>         0.0728
     39 H12        -9.6476   -3.5761   -0.4087 H         1 <0>         0.0831
     40 H13        -9.4797   -3.5829    1.3633 H         1 <0>         0.0827
     41 H14       -10.8651   -1.5311    1.5025 H         1 <0>         0.0920
     42 H15       -11.0330   -1.5243   -0.2695 H         1 <0>         0.0923
     43 H16       -12.1292   -3.7465   -0.1742 H         1 <0>         0.1320
     44 H17       -11.9613   -3.7533    1.5978 H         1 <0>         0.1302
     45 H18       -13.2967   -2.2963    2.9377 H         1 <0>         0.1284
     46 H19       -12.4452   -0.9600    2.1280 H         1 <0>         0.1316
     47 H20       -14.5782   -0.1826    3.1271 H         1 <0>         0.1121
     48 H21       -14.6170   -0.0467    1.3520 H         1 <0>         0.0877
     49 H22       -15.8181   -2.3082    3.0160 H         1 <0>         0.0816
     50 H23       -16.7231   -1.0360    2.1581 H         1 <0>         0.0944
     51 H24       -16.6291   -3.1726    0.8565 H         1 <0>         0.1123
     52 H25       -15.8378   -1.8265    0.0004 H         1 <0>         0.0877
     53 H26       -14.4471   -3.8786   -0.0884 H         1 <0>         0.1299
     54 H27       -14.4238   -3.9395    1.6898 H         1 <0>         0.1280
     55 H28       -13.4131   -1.7158    0.0648 H         1 <0>         0.4227
@<TRIPOS>BOND
     1    1    6 ar
     2    1    2 ar
     3    1   28 1
     4    2    3 ar
     5    2   29 1
     6    3    4 ar
     7    3   27 1
     8    4    5 ar
     9    4   30 1
    10    5    6 ar
    11    5   31 1
    12    6    7 1
    13    7   12 ar
    14    7    8 ar
    15    8    9 ar
    16    8   32 1
    17    9   10 ar
    18    9   33 1
    19   10   11 ar
    20   10   13 1
    21   11   12 ar
    22   11   34 1
    23   13   14 am
    24   13   35 1
    25   14   15 2
    26   14   16 am
    27   16   17 1
    28   16   36 1
    29   17   18 1
    30   17   37 1
    31   17   38 1
    32   18   19 1
    33   18   39 1
    34   18   40 1
    35   19   20 1
    36   19   41 1
    37   19   42 1
    38   20   21 1
    39   20   43 1
    40   20   44 1
    41   21   26 1
    42   21   22 1
    43   21   55 1
    44   22   23 1
    45   22   45 1
    46   22   46 1
    47   23   24 1
    48   23   47 1
    49   23   48 1
    50   24   25 1
    51   24   49 1
    52   24   50 1
    53   25   26 1
    54   25   51 1
    55   25   52 1
    56   26   53 1
    57   26   54 1
@<TRIPOS>MOLECULE
ZINC13819699
   21    21     0     0     0
SMALL
USER_CHARGES
2-[(5-chloro-3-pyridyl)oxy]ethanamine
@<TRIPOS>ATOM
      1 C1         -0.7416    1.5908    3.5700 C.ar      1 <0>        -0.0908
      2 C2         -0.1488    1.1821    2.3797 C.ar      1 <0>         0.0743
      3 C3          0.9906    0.3925    2.4307 C.ar      1 <0>         0.0295
      4 N1          1.5141    0.0396    3.5881 N.ar      1 <0>        -0.4282
      5 C4          0.9782    0.4096    4.7344 C.ar      1 <0>         0.0970
      6 C5         -0.1619    1.1934    4.7650 C.ar      1 <0>        -0.0512
      7 Cl1        -0.8581    1.6726    6.2814 Cl        1 <0>        -0.0224
      8 O1         -0.6816    1.5467    1.1837 O.3       1 <0>        -0.3223
      9 C6         -0.0127    1.0858    0.0080 C.3       1 <0>         0.0164
     10 C7         -0.7527    1.5927   -1.2315 C.3       1 <0>         0.0082
     11 H1         -1.6314    2.2028    3.5633 H         1 <0>         0.1574
     12 H2          1.4559    0.0662    1.5123 H         1 <0>         0.1647
     13 H3          1.4348    0.0966    5.6618 H         1 <0>         0.1772
     14 H4          0.0021   -0.0041    0.0020 H         1 <0>         0.1146
     15 H5          1.0099    1.4631    0.0003 H         1 <0>         0.0930
     16 H6         -0.2958    1.1691   -2.1259 H         1 <0>         0.1579
     17 H7         -1.7985    1.2898   -1.1795 H         1 <0>         0.1449
     18 H8          0.2910    3.3668   -1.2701 H         1 <0>         0.4378
     19 H9         -1.1511    3.4177   -2.0968 H         1 <0>         0.4437
     20 N2         -0.6816    3.0641   -1.2648 N.4       1 <0>        -0.6479
     21 H10        -1.1460    3.4434   -0.4314 H         1 <0>         0.4461
@<TRIPOS>BOND
     1    1    6 ar
     2    1    2 ar
     3    1   11 1
     4    2    3 ar
     5    2    8 1
     6    3    4 ar
     7    3   12 1
     8    4    5 ar
     9    5    6 ar
    10    5   13 1
    11    6    7 1
    12    8    9 1
    13    9   10 1
    14    9   14 1
    15    9   15 1
    16   10   16 1
    17   10   17 1
    18   10   20 1
    19   18   20 1
    20   19   20 1
    21   20   21 1
@<TRIPOS>MOLECULE
ZINC13589050
   24    24     0     0     0
SMALL
USER_CHARGES
N-methyl-2-(3-pyridyloxy)ethanamine
@<TRIPOS>ATOM
      1 C1         -5.6415    6.1621    1.3823 C.3       1 <0>        -0.0435
      2 C2         -3.6213    5.9165    0.0704 C.3       1 <0>         0.0046
      3 C3         -2.2257    5.2898    0.0532 C.3       1 <0>         0.0202
      4 O1         -2.3430    3.8657    0.0462 O.3       1 <0>        -0.3252
      5 C4         -1.1869    3.1513    0.0309 C.ar      1 <0>         0.0578
      6 C5         -1.2170    1.7603    0.0173 C.ar      1 <0>        -0.0962
      7 C6         -0.0126    1.0758    0.0080 C.ar      1 <0>        -0.1278
      8 C7          1.1704    1.7914    0.0005 C.ar      1 <0>         0.0820
      9 N1          1.1639    3.1098    0.0081 N.ar      1 <0>        -0.4474
     10 C8          0.0399    3.7986    0.0226 C.ar      1 <0>         0.0264
     11 H1         -5.5685    7.2470    1.3072 H         1 <0>         0.1241
     12 H2         -6.2366    5.7797    0.5530 H         1 <0>         0.1239
     13 H3         -6.1182    5.8945    2.3253 H         1 <0>         0.1269
     14 H4         -3.5343    6.9997   -0.0139 H         1 <0>         0.1526
     15 H5         -4.2024    5.5324   -0.7680 H         1 <0>         0.1429
     16 H6         -1.6751    5.6047    0.9397 H         1 <0>         0.0900
     17 H7         -1.6924    5.6148   -0.8402 H         1 <0>         0.1123
     18 H8         -2.1563    1.2273    0.0184 H         1 <0>         0.1461
     19 H9          0.0021   -0.0041    0.0020 H         1 <0>         0.1517
     20 H10         2.1124    1.2633   -0.0114 H         1 <0>         0.1677
     21 H11         0.0746    4.8780    0.0285 H         1 <0>         0.1565
     22 N2         -4.2912    5.5699    1.3381 N.4       1 <0>        -0.5214
     23 H12        -4.3666    4.5487    1.4131 H         1 <0>         0.4411
     24 H13        -3.7372    5.9309    2.1236 H         1 <0>         0.4346
@<TRIPOS>BOND
     1    1   11 1
     2    1   12 1
     3    1   13 1
     4    1   22 1
     5    2    3 1
     6    2   14 1
     7    2   15 1
     8    2   22 1
     9    3    4 1
    10    3   16 1
    11    3   17 1
    12    4    5 1
    13    5   10 ar
    14    5    6 ar
    15    6    7 ar
    16    6   18 1
    17    7    8 ar
    18    7   19 1
    19    8    9 ar
    20    8   20 1
    21    9   10 ar
    22   10   21 1
    23   22   23 1
    24   22   24 1
@<TRIPOS>MOLECULE
ZINC13819629
   30    30     0     0     0
SMALL
USER_CHARGES
(2R)-1-[(6-fluoro-3-pyridyl)oxy]-N,N-dimethyl-propan-2-amine
@<TRIPOS>ATOM
      1 C1          0.2678    7.9917   -1.1362 C.3       1 <0>        -0.1849
      2 C2          1.1542    7.5620    0.0344 C.3       1 <0>         0.0396
      3 H1          2.1345    8.0288   -0.0617 H         1 <0>         0.1577
      4 C3          1.3108    6.0401    0.0238 C.3       1 <0>         0.0220
      5 O1          0.0195    5.4283    0.0324 O.3       1 <0>        -0.3157
      6 C4         -0.0198    4.0693    0.0246 C.ar      1 <0>         0.0493
      7 C5         -1.2395    3.3990    0.0326 C.ar      1 <0>        -0.0654
      8 C6         -1.2303    2.0145    0.0189 C.ar      1 <0>        -0.1491
      9 C7         -0.0162    1.3468    0.0094 C.ar      1 <0>         0.2941
     10 N1          1.1226    2.0141    0.0022 N.ar      1 <0>        -0.4770
     11 C8          1.1543    3.3330    0.0089 C.ar      1 <0>         0.0645
     12 F1          0.0021   -0.0041    0.0020 F         1 <0>        -0.1010
     13 C9          1.3104    7.5038    2.4500 C.3       1 <0>        -0.0500
     14 C10         0.3674    9.4404    1.3441 C.3       1 <0>        -0.0467
     15 H2          0.1562    9.0760   -1.1286 H         1 <0>         0.0865
     16 H3          0.7281    7.6804   -2.0739 H         1 <0>         0.1067
     17 H4         -0.7125    7.5249   -1.0401 H         1 <0>         0.0900
     18 H5          1.8676    5.7259    0.9066 H         1 <0>         0.0921
     19 H6          1.8507    5.7367   -0.8732 H         1 <0>         0.1122
     20 H7         -2.1708    3.9457    0.0444 H         1 <0>         0.1584
     21 H8         -2.1581    1.4617    0.0203 H         1 <0>         0.1649
     22 H9          2.1055    3.8444    0.0026 H         1 <0>         0.1673
     23 H10         2.3194    7.9135    2.4030 H         1 <0>         0.1262
     24 H11         0.8291    7.8284    3.3725 H         1 <0>         0.1268
     25 H12         1.3590    6.4151    2.4290 H         1 <0>         0.1195
     26 H13        -0.2696    9.7596    0.5192 H         1 <0>         0.1245
     27 H14        -0.0939    9.7239    2.2901 H         1 <0>         0.1249
     28 H15         1.3422    9.9202    1.2571 H         1 <0>         0.1247
     29 N2          0.5078    7.9697    1.2996 N.4       1 <0>        -0.3977
     30 H16        -0.4252    7.5440    1.3497 H         1 <0>         0.4354
@<TRIPOS>BOND
     1    1    2 1
     2    1   15 1
     3    1   16 1
     4    1   17 1
     5    2    3 1
     6    2    4 1
     7    2   29 1
     8    4    5 1
     9    4   18 1
    10    4   19 1
    11    5    6 1
    12    6   11 ar
    13    6    7 ar
    14    7    8 ar
    15    7   20 1
    16    8    9 ar
    17    8   21 1
    18    9   10 ar
    19    9   12 1
    20   10   11 ar
    21   11   22 1
    22   13   23 1
    23   13   24 1
    24   13   25 1
    25   13   29 1
    26   14   26 1
    27   14   27 1
    28   14   28 1
    29   14   29 1
    30   29   30 1
@<TRIPOS>MOLECULE
ZINC13819631
   30    30     0     0     0
SMALL
USER_CHARGES
(2S)-1-[(6-fluoro-3-pyridyl)oxy]-N,N-dimethyl-propan-2-amine
@<TRIPOS>ATOM
      1 C1         -2.2405    1.4762   -1.0179 C.3       1 <0>        -0.1849
      2 C2         -0.8017    1.9868   -1.1173 C.3       1 <0>         0.0394
      3 H1         -0.3600    1.6485   -2.0545 H         1 <0>         0.1577
      4 C3         -0.7993    3.5163   -1.0752 C.3       1 <0>         0.0217
      5 O1         -1.4822    3.9616    0.0984 O.3       1 <0>        -0.3155
      6 C4         -1.5705    5.3048    0.2889 C.ar      1 <0>         0.0493
      7 C5         -2.2202    5.8172    1.4081 C.ar      1 <0>        -0.0654
      8 C6         -2.2848    7.1918    1.5604 C.ar      1 <0>        -0.1491
      9 C7         -1.7051    8.0061    0.6009 C.ar      1 <0>         0.2941
     10 N1         -1.0961    7.4866   -0.4487 N.ar      1 <0>        -0.4769
     11 C8         -1.0098    6.1822   -0.6258 C.ar      1 <0>         0.0645
     12 F1         -1.7635    9.3485    0.7415 F         1 <0>        -0.1010
     13 C9          0.0021   -0.0041    0.0020 C.3       1 <0>        -0.0465
     14 C10         1.3463    2.0098   -0.0000 C.3       1 <0>        -0.0506
     15 H2         -2.2422    0.3866   -1.0478 H         1 <0>         0.0865
     16 H3         -2.6823    1.8145   -0.0806 H         1 <0>         0.0900
     17 H4         -2.8222    1.8635   -1.8544 H         1 <0>         0.1067
     18 H5          0.2288    3.8776   -1.0565 H         1 <0>         0.0923
     19 H6         -1.3050    3.9048   -1.9592 H         1 <0>         0.1124
     20 H7         -2.6629    5.1583    2.1404 H         1 <0>         0.1584
     21 H8         -2.7814    7.6241    2.4165 H         1 <0>         0.1649
     22 H9         -0.5002    5.7937   -1.4952 H         1 <0>         0.1673
     23 H10         0.5890   -0.3641    0.8470 H         1 <0>         0.1249
     24 H11        -1.0174   -0.3817    0.0806 H         1 <0>         0.1245
     25 H12         0.4494   -0.3563   -0.9275 H         1 <0>         0.1248
     26 H13         1.8658    1.6723   -0.8968 H         1 <0>         0.1265
     27 H14         1.3024    3.0989    0.0063 H         1 <0>         0.1197
     28 H15         1.8828    1.6627    0.8830 H         1 <0>         0.1266
     29 N2         -0.0305    1.4733    0.0344 N.4       1 <0>        -0.3976
     30 H16        -0.4856    1.7779    0.9029 H         1 <0>         0.4354
@<TRIPOS>BOND
     1    1    2 1
     2    1   15 1
     3    1   16 1
     4    1   17 1
     5    2    3 1
     6    2    4 1
     7    2   29 1
     8    4    5 1
     9    4   18 1
    10    4   19 1
    11    5    6 1
    12    6   11 ar
    13    6    7 ar
    14    7    8 ar
    15    7   20 1
    16    8    9 ar
    17    8   21 1
    18    9   10 ar
    19    9   12 1
    20   10   11 ar
    21   11   22 1
    22   13   23 1
    23   13   24 1
    24   13   25 1
    25   13   29 1
    26   14   26 1
    27   14   27 1
    28   14   28 1
    29   14   29 1
    30   29   30 1
@<TRIPOS>MOLECULE
ZINC13819658
   26    26     0     0     0
SMALL
USER_CHARGES
N-methyl-2-[(5-nitro-3-pyridyl)oxy]ethanamine
@<TRIPOS>ATOM
      1 C1         -1.3707    3.5816   -2.4663 C.3       1 <0>        -0.0440
      2 C2         -0.7527    1.5927   -1.2315 C.3       1 <0>         0.0046
      3 C3         -0.0127    1.0858    0.0080 C.3       1 <0>         0.0170
      4 O1         -0.6816    1.5467    1.1837 O.3       1 <0>        -0.3156
      5 C4         -0.1488    1.1821    2.3797 C.ar      1 <0>         0.0683
      6 C5         -0.7416    1.5907    3.5703 C.ar      1 <0>        -0.0357
      7 C6         -0.1621    1.1941    4.7644 C.ar      1 <0>        -0.0567
      8 C7          0.9773    0.4115    4.7345 C.ar      1 <0>         0.1553
      9 N1          1.5142    0.0413    3.5887 N.ar      1 <0>        -0.4271
     10 C8          0.9906    0.3926    2.4308 C.ar      1 <0>         0.0756
     11 N2         -0.7559    1.6030    6.0570 N.pl3     1 <0>         0.0229
     12 O2         -1.7600    2.2922    6.0750 O.2       1 <0>        -0.1396
     13 O3         -0.2405    1.2502    7.1027 O.3       1 <0>        -0.1254
     14 H1         -2.4208    3.2925   -2.4229 H         1 <0>         0.1250
     15 H2         -1.2935    4.6688   -2.4824 H         1 <0>         0.1282
     16 H3         -0.9181    3.1718   -3.3693 H         1 <0>         0.1251
     17 H4         -0.2958    1.1691   -2.1259 H         1 <0>         0.1566
     18 H5         -1.7985    1.2898   -1.1795 H         1 <0>         0.1456
     19 H6          0.0021   -0.0041    0.0020 H         1 <0>         0.1178
     20 H7          1.0099    1.4631    0.0003 H         1 <0>         0.0955
     21 H8         -1.6316    2.2025    3.5636 H         1 <0>         0.1771
     22 H9          1.4334    0.0989    5.6623 H         1 <0>         0.1965
     23 H10         1.4562    0.0661    1.5127 H         1 <0>         0.1793
     24 N3         -0.6645    3.0644   -1.2791 N.4       1 <0>        -0.5225
     25 H11        -1.0928    3.4569   -0.4325 H         1 <0>         0.4411
     26 H12         0.3227    3.3432   -1.3240 H         1 <0>         0.4351
@<TRIPOS>BOND
     1    1   14 1
     2    1   15 1
     3    1   16 1
     4    1   24 1
     5    2    3 1
     6    2   17 1
     7    2   18 1
     8    2   24 1
     9    3    4 1
    10    3   19 1
    11    3   20 1
    12    4    5 1
    13    5   10 ar
    14    5    6 ar
    15    6    7 ar
    16    6   21 1
    17    7    8 ar
    18    7   11 1
    19    8    9 ar
    20    8   22 1
    21    9   10 ar
    22   10   23 1
    23   11   12 2
    24   11   13 1
    25   24   25 1
    26   24   26 1
@<TRIPOS>MOLECULE
ZINC13819609
   27    27     0     0     0
SMALL
USER_CHARGES
2-[(5-bromo-3-pyridyl)oxy]-N,N-dimethyl-ethanamine
@<TRIPOS>ATOM
      1 C1          0.5417    3.6059   -1.5896 C.3       1 <0>        -0.0483
      2 C2         -1.8225    3.5786   -2.1113 C.3       1 <0>        -0.0429
      3 C3         -0.7543    1.5926   -1.2296 C.3       1 <0>         0.0037
      4 C4         -0.0306    1.0863    0.0197 C.3       1 <0>         0.0193
      5 O1         -0.7779    1.4485    1.1827 O.3       1 <0>        -0.3211
      6 C5         -0.2691    1.0713    2.3852 C.ar      1 <0>         0.0682
      7 C6         -0.9375    1.3861    3.5640 C.ar      1 <0>        -0.0697
      8 C7         -0.3796    0.9797    4.7661 C.ar      1 <0>        -0.1097
      9 C8          0.8138    0.2799    4.7540 C.ar      1 <0>         0.1142
     10 N1          1.4210   -0.0024    3.6184 N.ar      1 <0>        -0.4341
     11 C9          0.9210    0.3620    2.4542 C.ar      1 <0>         0.0402
     12 Br1        -1.2398    1.3762    6.4028 Br        1 <0>        -0.0001
     13 H1          0.8111    3.2640   -2.5889 H         1 <0>         0.1269
     14 H2          0.5001    4.6950   -1.5772 H         1 <0>         0.1257
     15 H3          1.2892    3.2627   -0.8743 H         1 <0>         0.1190
     16 H4         -2.7999    3.2880   -1.7260 H         1 <0>         0.1232
     17 H5         -1.7580    4.6658   -2.1554 H         1 <0>         0.1245
     18 H6         -1.6887    3.1658   -3.1111 H         1 <0>         0.1250
     19 H7         -0.2332    1.2395   -2.1195 H         1 <0>         0.1541
     20 H8         -1.7774    1.2165   -1.2344 H         1 <0>         0.1431
     21 H9          0.0626    0.0014   -0.0290 H         1 <0>         0.1141
     22 H10         0.9617    1.5343    0.0714 H         1 <0>         0.0907
     23 H11        -1.8679    1.9341    3.5430 H         1 <0>         0.1567
     24 H12         1.2536   -0.0396    5.6872 H         1 <0>         0.1766
     25 H13         1.4454    0.1087    1.5446 H         1 <0>         0.1647
     26 N2         -0.7786    3.0701   -1.1967 N.4       1 <0>        -0.4014
     27 H14        -0.9930    3.3790   -0.2413 H         1 <0>         0.4373
@<TRIPOS>BOND
     1    1   13 1
     2    1   14 1
     3    1   15 1
     4    1   26 1
     5    2   16 1
     6    2   17 1
     7    2   18 1
     8    2   26 1
     9    3    4 1
    10    3   19 1
    11    3   20 1
    12    3   26 1
    13    4    5 1
    14    4   21 1
    15    4   22 1
    16    5    6 1
    17    6   11 ar
    18    6    7 ar
    19    7    8 ar
    20    7   23 1
    21    8    9 ar
    22    8   12 1
    23    9   10 ar
    24    9   24 1
    25   10   11 ar
    26   11   25 1
    27   26   27 1
@<TRIPOS>MOLECULE
ZINC00967913
   28    30     0     0     0
SMALL
USER_CHARGES

@<TRIPOS>ATOM
      1 C1          1.2171   -0.6545    0.1555 C.ar      1 <0>        -0.0752
      2 C2          2.3777    0.1031    0.1418 C.ar      1 <0>        -0.1425
      3 C3          2.2860    1.4736   -0.0235 C.ar      1 <0>         0.1878
      4 N1          1.1116    2.0586   -0.1663 N.ar      1 <0>        -0.4633
      5 C4         -0.0121    1.3684   -0.1581 C.ar      1 <0>         0.1458
      6 C5          0.0021   -0.0041    0.0020 C.ar      1 <0>        -0.1631
      7 C6         -1.2872   -0.7844    0.0101 C.3       1 <0>        -0.0612
      8 H1         -2.1393   -0.1141    0.1233 H         1 <0>         0.1365
      9 C7         -1.2749   -1.8456    1.1375 C.3       1 <0>        -0.1443
     10 C8         -1.4042   -3.1952    0.3689 C.3       1 <0>         0.0384
     11 H2         -1.0647   -4.0789    0.9092 H         1 <0>         0.1726
     12 C9         -2.8802   -3.2368   -0.1294 C.3       1 <0>        -0.1467
     13 C10        -2.9122   -2.1745   -1.2554 C.3       1 <0>        -0.1410
     14 C11        -1.4241   -1.6312   -1.2910 C.3       1 <0>         0.0452
     15 H3         -1.1139   -1.1348   -2.2105 H         1 <0>         0.1734
     16 N2         -0.6607   -2.8754   -0.9018 N.4       1 <0>        -0.5418
     17 Cl1         3.7316    2.4346   -0.0426 Cl        1 <0>        -0.0014
     18 H4          1.2583   -1.7267    0.2784 H         1 <0>         0.1305
     19 H5          3.3413   -0.3704    0.2590 H         1 <0>         0.1568
     20 H6         -0.9547    1.8820   -0.2775 H         1 <0>         0.1733
     21 H7         -0.3364   -1.8073    1.6905 H         1 <0>         0.1022
     22 H8         -2.1225   -1.7031    1.8079 H         1 <0>         0.1235
     23 H9         -3.1240   -4.2228   -0.5251 H         1 <0>         0.1015
     24 H10        -3.5644   -2.9648    0.6743 H         1 <0>         0.1177
     25 H11        -3.1719   -2.6339   -2.2092 H         1 <0>         0.1026
     26 H12        -3.6123   -1.3759   -1.0098 H         1 <0>         0.1175
     27 H13         0.3118   -2.6745   -0.7232 H         1 <0>         0.4224
     28 H14        -0.7670   -3.6066   -1.5889 H         1 <0>         0.4327
@<TRIPOS>BOND
     1    1    6 ar
     2    1    2 ar
     3    1   18 1
     4    2    3 ar
     5    2   19 1
     6    3    4 ar
     7    3   17 1
     8    4    5 ar
     9    5    6 ar
    10    5   20 1
    11    6    7 1
    12    7    8 1
    13    7   14 1
    14    7    9 1
    15    9   10 1
    16    9   21 1
    17    9   22 1
    18   10   11 1
    19   10   16 1
    20   10   12 1
    21   12   13 1
    22   12   23 1
    23   12   24 1
    24   13   14 1
    25   13   25 1
    26   13   26 1
    27   14   15 1
    28   14   16 1
    29   16   27 1
    30   16   28 1
@<TRIPOS>MOLECULE
ZINC02565794
   28    30     0     0     0
SMALL
USER_CHARGES

@<TRIPOS>ATOM
      1 C1          1.0928   -0.4585   -0.7237 C.ar      1 <0>        -0.0620
      2 C2          2.2584    0.2913   -0.7024 C.ar      1 <0>        -0.1496
      3 C3          2.2945    1.4601    0.0370 C.ar      1 <0>         0.1879
      4 N1          1.2364    1.8615    0.7161 N.ar      1 <0>        -0.4678
      5 C4          0.1118    1.1728    0.7180 C.ar      1 <0>         0.1387
      6 C5          0.0021   -0.0041    0.0020 C.ar      1 <0>        -0.1517
      7 C6         -1.2872   -0.7844    0.0101 C.3       1 <0>        -0.0603
      8 H1         -2.1406   -0.1121    0.0984 H         1 <0>         0.1214
      9 C7         -1.4069   -1.6526   -1.2663 C.3       1 <0>        -0.1520
     10 C8         -1.4635   -3.1084   -0.7127 C.3       1 <0>         0.0416
     11 H2         -1.8985   -3.8501   -1.3825 H         1 <0>         0.1732
     12 C9         -0.0153   -3.4112   -0.2228 C.3       1 <0>        -0.1506
     13 C10         0.1242   -2.5441    1.0524 C.3       1 <0>        -0.1538
     14 C11        -1.2892   -1.8286    1.1671 C.3       1 <0>         0.0430
     15 H3         -1.5584   -1.4416    2.1499 H         1 <0>         0.1768
     16 N2         -2.1888   -2.8932    0.5901 N.4       1 <0>        -0.5340
     17 Cl1         3.7479    2.4089    0.0725 Cl        1 <0>        -0.0051
     18 H4          1.0341   -1.3727   -1.2956 H         1 <0>         0.1499
     19 H5          3.1274   -0.0328   -1.2557 H         1 <0>         0.1556
     20 H6         -0.7333    1.5325    1.2862 H         1 <0>         0.1691
     21 H7         -2.3211   -1.4127   -1.8092 H         1 <0>         0.1082
     22 H8         -0.5337   -1.5186   -1.9048 H         1 <0>         0.1199
     23 H9          0.0951   -4.4685    0.0180 H         1 <0>         0.1039
     24 H10         0.7148   -3.1093   -0.9738 H         1 <0>         0.1130
     25 H11         0.3037   -3.1717    1.9253 H         1 <0>         0.1016
     26 H12         0.9234   -1.8126    0.9335 H         1 <0>         0.1174
     27 H13        -3.1247   -2.5463    0.4419 H         1 <0>         0.4324
     28 H14        -2.1894   -3.7275    1.1576 H         1 <0>         0.4332
@<TRIPOS>BOND
     1    1    6 ar
     2    1    2 ar
     3    1   18 1
     4    2    3 ar
     5    2   19 1
     6    3    4 ar
     7    3   17 1
     8    4    5 ar
     9    5    6 ar
    10    5   20 1
    11    6    7 1
    12    7    8 1
    13    7   14 1
    14    7    9 1
    15    9   10 1
    16    9   21 1
    17    9   22 1
    18   10   11 1
    19   10   16 1
    20   10   12 1
    21   12   13 1
    22   12   23 1
    23   12   24 1
    24   13   14 1
    25   13   25 1
    26   13   26 1
    27   14   15 1
    28   14   16 1
    29   16   27 1
    30   16   28 1
@<TRIPOS>MOLECULE
ZINC49808162
   45    47     0     0     0
SMALL
USER_CHARGES

@<TRIPOS>ATOM
      1 C1         -3.6089   -7.4320   -3.6363 C.3       1 <0>         0.0270
      2 O1         -4.9195   -6.9482   -3.3355 O.3       1 <0>        -0.3173
      3 C2         -5.0095   -5.9186   -2.4530 C.ar      1 <0>         0.1639
      4 C3         -3.8569   -5.3130   -1.9724 C.ar      1 <0>        -0.2413
      5 C4         -3.9478   -4.2663   -1.0752 C.ar      1 <0>        -0.0398
      6 C5         -5.1860   -3.8200   -0.6537 C.ar      1 <0>        -0.1487
      7 C6         -6.3412   -4.4222   -1.1313 C.ar      1 <0>         0.1724
      8 C7         -6.2527   -5.4688   -2.0365 C.ar      1 <0>        -0.2421
      9 O2         -7.5585   -3.9830   -0.7164 O.3       1 <0>        -0.3050
     10 C8         -8.7048   -4.6494   -1.2492 C.3       1 <0>         0.0228
     11 C9         -5.2815   -2.6788    0.3258 C.3       1 <0>        -0.0593
     12 C10        -5.3293   -3.2327    1.7512 C.3       1 <0>        -0.0859
     13 H1         -4.4627   -3.8718    1.9205 H         1 <0>         0.0903
     14 C11        -6.6095   -4.0523    1.9357 C.3       1 <0>        -0.1092
     15 C12        -6.7830   -4.3385    3.4332 C.3       1 <0>        -0.1575
     16 C13        -7.0413   -3.0131    4.1521 C.3       1 <0>         0.0479
     17 N1         -6.0491   -2.0198    3.7635 N.2       1 <0>        -0.5182
     18 C14        -5.3079   -2.0943    2.7294 C.2       1 <0>         0.2304
     19 C15        -4.3637   -0.9875    2.4791 C.ar      1 <0>        -0.1084
     20 C16        -3.1340   -1.2282    1.8530 C.ar      1 <0>        -0.0551
     21 C17        -2.2851   -0.1564    1.6417 C.ar      1 <0>        -0.1761
     22 C18        -2.6739    1.1066    2.0515 C.ar      1 <0>         0.1075
     23 N2         -3.8383    1.3038    2.6394 N.ar      1 <0>        -0.4872
     24 C19        -4.6835    0.3175    2.8571 C.ar      1 <0>         0.1401
     25 H2         -3.6839   -8.3057   -4.2837 H         1 <0>         0.1014
     26 H3         -3.0411   -6.6519   -4.1432 H         1 <0>         0.0574
     27 H4         -3.1022   -7.7076   -2.7114 H         1 <0>         0.0578
     28 H5         -2.8881   -5.6604   -2.2997 H         1 <0>         0.1300
     29 H6         -3.0498   -3.7963   -0.7024 H         1 <0>         0.1313
     30 H7         -7.1509   -5.9359   -2.4128 H         1 <0>         0.1361
     31 H8         -8.7116   -4.5491   -2.3345 H         1 <0>         0.0576
     32 H9         -8.6679   -5.7055   -0.9821 H         1 <0>         0.0573
     33 H10        -9.6093   -4.2018   -0.8373 H         1 <0>         0.1016
     34 H11        -4.4109   -2.0321    0.2162 H         1 <0>         0.0793
     35 H12        -6.1872   -2.1053    0.1283 H         1 <0>         0.0784
     36 H13        -7.4651   -3.4859    1.5679 H         1 <0>         0.0772
     37 H14        -6.5269   -4.9915    1.3888 H         1 <0>         0.0710
     38 H15        -7.6297   -5.0083    3.5831 H         1 <0>         0.0748
     39 H16        -5.8764   -4.7986    3.8263 H         1 <0>         0.0655
     40 H17        -8.0352   -2.6500    3.8909 H         1 <0>         0.0871
     41 H18        -6.9886   -3.1719    5.2292 H         1 <0>         0.0907
     42 H19        -2.8557   -2.2247    1.5435 H         1 <0>         0.1373
     43 H20        -1.3288   -0.3042    1.1622 H         1 <0>         0.1388
     44 H21        -2.0130    1.9449    1.8877 H         1 <0>         0.1571
     45 H22        -5.6298    0.5194    3.3368 H         1 <0>         0.1613
@<TRIPOS>BOND
     1    1    2 1
     2    1   25 1
     3    1   26 1
     4    1   27 1
     5    2    3 1
     6    3    8 ar
     7    3    4 ar
     8    4    5 ar
     9    4   28 1
    10    5    6 ar
    11    5   29 1
    12    6    7 ar
    13    6   11 1
    14    7    8 ar
    15    7    9 1
    16    8   30 1
    17    9   10 1
    18   10   31 1
    19   10   32 1
    20   10   33 1
    21   11   12 1
    22   11   34 1
    23   11   35 1
    24   12   13 1
    25   12   18 1
    26   12   14 1
    27   14   15 1
    28   14   36 1
    29   14   37 1
    30   15   16 1
    31   15   38 1
    32   15   39 1
    33   16   17 1
    34   16   40 1
    35   16   41 1
    36   17   18 2
    37   18   19 1
    38   19   24 ar
    39   19   20 ar
    40   20   21 ar
    41   20   42 1
    42   21   22 ar
    43   21   43 1
    44   22   23 ar
    45   22   44 1
    46   23   24 ar
    47   24   45 1
@<TRIPOS>MOLECULE
ZINC49808163
   45    47     0     0     0
SMALL
USER_CHARGES

@<TRIPOS>ATOM
      1 C1         -8.8842    2.0360   -1.9736 C.3       1 <0>         0.0268
      2 O1         -7.6316    2.1930   -1.3039 O.3       1 <0>        -0.3169
      3 C2         -6.9705    1.0573   -0.9577 C.ar      1 <0>         0.1637
      4 C3         -7.5142   -0.1830   -1.2618 C.ar      1 <0>        -0.2412
      5 C4         -6.8426   -1.3379   -0.9101 C.ar      1 <0>        -0.0379
      6 C5         -5.6285   -1.2615   -0.2544 C.ar      1 <0>        -0.1470
      7 C6         -5.0808   -0.0240    0.0519 C.ar      1 <0>         0.1704
      8 C7         -5.7499    1.1366   -0.3056 C.ar      1 <0>        -0.2409
      9 O2         -3.8869    0.0505    0.6967 O.3       1 <0>        -0.3098
     10 C8         -3.4330    1.3521    1.0731 C.3       1 <0>         0.0227
     11 C9         -4.8990   -2.5233    0.1288 C.3       1 <0>        -0.0592
     12 C10        -5.1512   -2.8296    1.6064 C.3       1 <0>        -0.0860
     13 H1         -4.8681   -1.9662    2.2085 H         1 <0>         0.0952
     14 C11        -6.6377   -3.1309    1.8168 C.3       1 <0>        -0.1146
     15 C12        -6.8120   -3.7223    3.2220 C.3       1 <0>        -0.1566
     16 C13        -6.1113   -5.0815    3.2649 C.3       1 <0>         0.0474
     17 N1         -4.7570   -4.9744    2.7390 N.2       1 <0>        -0.5206
     18 C14        -4.3280   -4.0156    2.0174 C.2       1 <0>         0.2324
     19 C15        -2.9268   -4.0755    1.5566 C.ar      1 <0>        -0.1124
     20 C16        -2.1855   -2.9008    1.3761 C.ar      1 <0>        -0.0498
     21 C17        -0.8764   -3.0119    0.9426 C.ar      1 <0>        -0.1767
     22 C18        -0.3463   -4.2672    0.7035 C.ar      1 <0>         0.1073
     23 N2         -1.0682   -5.3569    0.8817 N.ar      1 <0>        -0.4892
     24 C19        -2.3163   -5.3039    1.2988 C.ar      1 <0>         0.1392
     25 H2         -9.3048    3.0175   -2.1923 H         1 <0>         0.1018
     26 H3         -8.7325    1.4900   -2.9047 H         1 <0>         0.0577
     27 H4         -9.5708    1.4807   -1.3345 H         1 <0>         0.0573
     28 H5         -8.4632   -0.2453   -1.7735 H         1 <0>         0.1298
     29 H6         -7.2673   -2.3021   -1.1476 H         1 <0>         0.1310
     30 H7         -5.3231    2.1008   -0.0721 H         1 <0>         0.1368
     31 H8         -3.3909    1.9914    0.1912 H         1 <0>         0.0587
     32 H9         -4.1224    1.7811    1.8003 H         1 <0>         0.0577
     33 H10        -2.4394    1.2768    1.5149 H         1 <0>         0.1026
     34 H11        -5.2607   -3.3514   -0.4808 H         1 <0>         0.0719
     35 H12        -3.8301   -2.3897   -0.0373 H         1 <0>         0.0854
     36 H13        -7.2154   -2.2106    1.7309 H         1 <0>         0.0756
     37 H14        -6.9765   -3.8496    1.0707 H         1 <0>         0.0675
     38 H15        -6.3646   -3.0554    3.9590 H         1 <0>         0.0672
     39 H16        -7.8729   -3.8495    3.4377 H         1 <0>         0.0759
     40 H17        -6.0700   -5.4325    4.2961 H         1 <0>         0.0912
     41 H18        -6.6748   -5.7958    2.6647 H         1 <0>         0.0866
     42 H19        -2.6247   -1.9334    1.5699 H         1 <0>         0.1445
     43 H20        -0.2747   -2.1278    0.7921 H         1 <0>         0.1377
     44 H21         0.6754   -4.3566    0.3651 H         1 <0>         0.1563
     45 H22        -2.8737   -6.2185    1.4377 H         1 <0>         0.1605
@<TRIPOS>BOND
     1    1    2 1
     2    1   25 1
     3    1   26 1
     4    1   27 1
     5    2    3 1
     6    3    8 ar
     7    3    4 ar
     8    4    5 ar
     9    4   28 1
    10    5    6 ar
    11    5   29 1
    12    6    7 ar
    13    6   11 1
    14    7    8 ar
    15    7    9 1
    16    8   30 1
    17    9   10 1
    18   10   31 1
    19   10   32 1
    20   10   33 1
    21   11   12 1
    22   11   34 1
    23   11   35 1
    24   12   13 1
    25   12   18 1
    26   12   14 1
    27   14   15 1
    28   14   36 1
    29   14   37 1
    30   15   16 1
    31   15   38 1
    32   15   39 1
    33   16   17 1
    34   16   40 1
    35   16   41 1
    36   17   18 2
    37   18   19 1
    38   19   24 ar
    39   19   20 ar
    40   20   21 ar
    41   20   42 1
    42   21   22 ar
    43   21   43 1
    44   22   23 ar
    45   22   44 1
    46   23   24 ar
    47   24   45 1
@<TRIPOS>MOLECULE
ZINC07992850
   44    46     0     0     0
SMALL
USER_CHARGES

@<TRIPOS>ATOM
      1 C1          0.7007    0.9725    0.2268 C.3       1 <0>         0.0797
      2 N1         -0.1180   -0.2340    0.0845 N.pl3     1 <0>        -0.6175
      3 C2         -0.8590   -0.7564    1.2353 C.3       1 <0>         0.0821
      4 C3         -0.1919   -0.8843   -1.1445 C.ar      1 <0>         0.2611
      5 C4         -0.9749   -2.0273   -1.2790 C.ar      1 <0>        -0.2054
      6 C5         -1.0506   -2.6730   -2.4920 C.ar      1 <0>        -0.0158
      7 C6         -0.3390   -2.1788   -3.5912 C.ar      1 <0>        -0.1928
      8 C7          0.4472   -1.0293   -3.4517 C.ar      1 <0>        -0.0270
      9 C8          0.5130   -0.3863   -2.2366 C.ar      1 <0>        -0.2114
     10 C9         -0.4166   -2.8659   -4.8891 C.2       1 <0>         0.0944
     11 C10        -0.3351   -2.1572   -6.0326 C.2       1 <0>        -0.2297
     12 C11        -0.3349   -0.6411   -6.0214 C.3       1 <0>        -0.0866
     13 C12        -1.2036   -0.1850   -7.2036 C.3       1 <0>        -0.1455
     14 C13        -0.5922   -0.7123   -8.5004 C.3       1 <0>         0.0609
     15 N2         -0.3722   -2.1501   -8.4433 N.pl3     1 <0>        -0.5607
     16 C14        -0.2365   -2.8250   -7.3407 C.2       1 <0>         0.4305
     17 C15         0.0146   -4.2850   -7.4004 C.ar      1 <0>        -0.2124
     18 C16         0.8299   -4.9054   -6.4483 C.ar      1 <0>        -0.0163
     19 C17         1.0330   -6.2707   -6.5480 C.ar      1 <0>        -0.1658
     20 C18         0.4288   -6.9715   -7.5763 C.ar      1 <0>         0.1599
     21 N3         -0.3350   -6.3588   -8.4602 N.ar      1 <0>        -0.4717
     22 C19        -0.5626   -5.0627   -8.4027 C.ar      1 <0>         0.1569
     23 H1          1.7126    0.6925    0.5200 H         1 <0>         0.0601
     24 H2          0.7320    1.5045   -0.7240 H         1 <0>         0.0743
     25 H3          0.2668    1.6181    0.9904 H         1 <0>         0.0777
     26 H4         -0.6797   -0.1202    2.1021 H         1 <0>         0.0833
     27 H5         -1.9247   -0.7672    1.0068 H         1 <0>         0.0637
     28 H6         -0.5239   -1.7704    1.4534 H         1 <0>         0.0640
     29 H7         -1.5234   -2.4081   -0.4302 H         1 <0>         0.1338
     30 H8         -1.6581   -3.5599   -2.5954 H         1 <0>         0.1322
     31 H9          0.9981   -0.6450   -4.2974 H         1 <0>         0.1345
     32 H10         1.1156    0.5035   -2.1293 H         1 <0>         0.1343
     33 H11        -0.5390   -3.9383   -4.9259 H         1 <0>         0.1400
     34 H12        -0.7583   -0.2758   -5.0858 H         1 <0>         0.1111
     35 H13         0.6823   -0.2682   -6.1414 H         1 <0>         0.0907
     36 H14        -2.2129   -0.5804   -7.0888 H         1 <0>         0.0875
     37 H15        -1.2377    0.9041   -7.2327 H         1 <0>         0.1130
     38 H16        -1.2650   -0.4879   -9.3281 H         1 <0>         0.1244
     39 H17         0.3612   -0.2130   -8.6731 H         1 <0>         0.1174
     40 H18         1.2896   -4.3336   -5.6558 H         1 <0>         0.1555
     41 H19         1.6568   -6.7835   -5.8308 H         1 <0>         0.1618
     42 H20         0.5852   -8.0371   -7.6570 H         1 <0>         0.1795
     43 H21        -1.1980   -4.5976   -9.1419 H         1 <0>         0.1648
     44 H22        -0.3196   -2.6352   -9.2817 H         1 <0>         0.4294
@<TRIPOS>BOND
     1    1    2 1
     2    1   23 1
     3    1   24 1
     4    1   25 1
     5    2    3 1
     6    2    4 1
     7    3   26 1
     8    3   27 1
     9    3   28 1
    10    4    9 ar
    11    4    5 ar
    12    5    6 ar
    13    5   29 1
    14    6    7 ar
    15    6   30 1
    16    7    8 ar
    17    7   10 1
    18    8    9 ar
    19    8   31 1
    20    9   32 1
    21   10   11 2
    22   10   33 1
    23   11   16 1
    24   11   12 1
    25   12   13 1
    26   12   34 1
    27   12   35 1
    28   13   14 1
    29   13   36 1
    30   13   37 1
    31   14   15 1
    32   14   38 1
    33   14   39 1
    34   15   16 2
    35   15   44 1
    36   16   17 1
    37   17   22 ar
    38   17   18 ar
    39   18   19 ar
    40   18   40 1
    41   19   20 ar
    42   19   41 1
    43   20   21 ar
    44   20   42 1
    45   21   22 ar
    46   22   43 1
@<TRIPOS>MOLECULE
ZINC03079336
   26    25     0     0     0
SMALL
USER_CHARGES

@<TRIPOS>ATOM
      1 C1          0.4567    1.0915    0.2066 C.3       1 <0>        -0.1505
      2 C2          0.2519   -0.4009    0.1635 C.2       1 <0>         0.4622
      3 O1          1.2065   -1.1415    0.1480 O.2       1 <0>        -0.4897
      4 O2         -0.9909   -0.9074    0.1422 O.3       1 <0>        -0.3664
      5 C3         -1.1108   -2.3308    0.1015 C.3       1 <0>         0.0295
      6 C4         -2.5910   -2.7176    0.0823 C.3       1 <0>        -0.0006
      7 N1         -3.1974   -2.2714   -1.1791 N.4       1 <0>        -0.2721
      8 C5         -2.4263   -2.8064   -2.3093 C.3       1 <0>        -0.0542
      9 C6         -4.5812   -2.7582   -1.2563 C.3       1 <0>        -0.0453
     10 C7         -3.1910   -0.8034   -1.2332 C.3       1 <0>        -0.0471
     11 H1          1.5242    1.3115    0.2188 H         1 <0>         0.1116
     12 H2          0.0021    1.5462   -0.6735 H         1 <0>         0.1044
     13 H3         -0.0079    1.4962    1.1057 H         1 <0>         0.1080
     14 H4         -0.6243   -2.7109   -0.7968 H         1 <0>         0.0948
     15 H5         -0.6343   -2.7609    0.9824 H         1 <0>         0.1144
     16 H6         -2.6847   -3.8002    0.1675 H         1 <0>         0.1489
     17 H7         -3.1018   -2.2417    0.9193 H         1 <0>         0.1414
     18 H8         -2.4311   -3.8957   -2.2692 H         1 <0>         0.1244
     19 H9         -2.8763   -2.4753   -3.2452 H         1 <0>         0.1264
     20 H10        -1.3995   -2.4452   -2.2520 H         1 <0>         0.1197
     21 H11        -5.1533   -2.3613   -0.4177 H         1 <0>         0.1231
     22 H12        -5.0311   -2.4272   -2.1923 H         1 <0>         0.1241
     23 H13        -4.5859   -3.8475   -1.2162 H         1 <0>         0.1220
     24 H14        -2.1697   -0.4495   -1.3740 H         1 <0>         0.1297
     25 H15        -3.8098   -0.4678   -2.0653 H         1 <0>         0.1185
     26 H16        -3.5886   -0.4038   -0.3003 H         1 <0>         0.1230
@<TRIPOS>BOND
     1    1    2 1
     2    1   11 1
     3    1   12 1
     4    1   13 1
     5    2    3 2
     6    2    4 1
     7    4    5 1
     8    5    6 1
     9    5   14 1
    10    5   15 1
    11    6    7 1
    12    6   16 1
    13    6   17 1
    14    7    8 1
    15    7    9 1
    16    7   10 1
    17    8   18 1
    18    8   19 1
    19    8   20 1
    20    9   21 1
    21    9   22 1
    22    9   23 1
    23   10   24 1
    24   10   25 1
    25   10   26 1
@<TRIPOS>MOLECULE
ZINC11934716
   60    63     0     0     0
SMALL
USER_CHARGES
N-[(1-benzyl-4-piperidyl)methyl]-1-[(2-chlorophenyl)methyl]-N-methyl-triazole-4-carboxamide
@<TRIPOS>ATOM
      1 C1          1.6655    5.3702    5.8555 C.3       1 <0>         0.0689
      2 N1          2.7597    6.1380    5.2560 N.am      1 <0>        -0.6044
      3 C2          3.3693    7.2452    5.9966 C.3       1 <0>         0.1190
      4 C3          2.6250    8.5433    5.6774 C.3       1 <0>        -0.1171
      5 C4          2.8223    8.8964    4.2006 C.3       1 <0>        -0.1358
      6 C5          2.1268   10.2265    3.9019 C.3       1 <0>        -0.0055
      7 C6          2.4737   10.9849    6.1771 C.3       1 <0>         0.0006
      8 C7          3.1796    9.6775    6.5438 C.3       1 <0>        -0.1409
      9 C8          2.1471   12.5955    4.3996 C.3       1 <0>         0.0489
     10 C9          2.6003   12.9691    3.0118 C.ar      1 <0>        -0.1622
     11 C10         3.7772   13.6724    2.8350 C.ar      1 <0>        -0.0940
     12 C11         4.1957   14.0105    1.5616 C.ar      1 <0>        -0.1129
     13 C12         3.4317   13.6548    0.4658 C.ar      1 <0>        -0.0844
     14 C13         2.2519   12.9565    0.6430 C.ar      1 <0>        -0.1139
     15 C14         1.8364   12.6134    1.9160 C.ar      1 <0>        -0.0967
     16 C15         3.2055    5.8257    4.0230 C.2       1 <0>         0.6093
     17 O1          4.1542    6.4216    3.5505 O.2       1 <0>        -0.5376
     18 C16         2.5424    4.7608    3.2467 C.2       1 <0>        -0.1148
     19 C17         2.8111    4.4342    1.9478 C.2       1 <0>         0.1045
     20 N2          1.9899    3.4154    1.6234 N.pl3     1 <0>        -0.3475
     21 N3          1.2160    3.1407    2.7598 N.2       1 <0>        -0.0479
     22 N4          1.5715    3.9482    3.6977 N.2       1 <0>        -0.2053
     23 C18         1.9160    2.7312    0.3301 C.3       1 <0>         0.1613
     24 C19         2.1071    1.2503    0.5337 C.ar      1 <0>        -0.1170
     25 C20         1.0106    0.4087    0.5586 C.ar      1 <0>        -0.0718
     26 C21         1.1857   -0.9496    0.7448 C.ar      1 <0>        -0.1134
     27 C22         2.4575   -1.4676    0.9060 C.ar      1 <0>        -0.0869
     28 C23         3.5543   -0.6274    0.8809 C.ar      1 <0>        -0.1116
     29 C24         3.3797    0.7326    0.6949 C.ar      1 <0>        -0.0169
     30 Cl1         4.7571    1.7887    0.6638 Cl        1 <0>        -0.0643
     31 H1          2.0668    4.4729    6.3266 H         1 <0>         0.0633
     32 H2          1.1620    5.9802    6.6055 H         1 <0>         0.0680
     33 H3          0.9536    5.0862    5.0805 H         1 <0>         0.1024
     34 H4          3.3075    7.0445    7.0662 H         1 <0>         0.0907
     35 H5          4.4150    7.3450    5.7055 H         1 <0>         0.0930
     36 H6          1.5624    8.4139    5.8832 H         1 <0>         0.0913
     37 H7          3.8873    8.9867    3.9872 H         1 <0>         0.0948
     38 H8          2.3910    8.1124    3.5782 H         1 <0>         0.1050
     39 H9          1.0596   10.1313    4.1024 H         1 <0>         0.1266
     40 H10         2.2775   10.4879    2.8545 H         1 <0>         0.1273
     41 H11         1.4049   10.8862    6.3670 H         1 <0>         0.1299
     42 H12         2.8764   11.7971    6.7823 H         1 <0>         0.1298
     43 H13         3.0036    9.4514    7.5955 H         1 <0>         0.1147
     44 H14         4.2503    9.7801    6.3673 H         1 <0>         0.0913
     45 H15         1.0581   12.5571    4.4281 H         1 <0>         0.1352
     46 H16         2.5031   13.3407    5.1110 H         1 <0>         0.1347
     47 H17         4.3718   13.9542    3.6914 H         1 <0>         0.1311
     48 H18         5.1175   14.5558    1.4231 H         1 <0>         0.1360
     49 H19         3.7567   13.9222   -0.5288 H         1 <0>         0.1355
     50 H20         1.6551   12.6786   -0.2131 H         1 <0>         0.1353
     51 H21         0.9147   12.0678    2.0545 H         1 <0>         0.1298
     52 H22         3.5411    4.9025    1.3042 H         1 <0>         0.2010
     53 H23         2.6979    3.1114   -0.3273 H         1 <0>         0.1191
     54 H24         0.9410    2.9130   -0.1219 H         1 <0>         0.1165
     55 H25         0.0173    0.8122    0.4280 H         1 <0>         0.1379
     56 H26         0.3288   -1.6067    0.7642 H         1 <0>         0.1375
     57 H27         2.5937   -2.5291    1.0511 H         1 <0>         0.1391
     58 H28         4.5477   -1.0322    1.0067 H         1 <0>         0.1391
     59 N5          2.7225   11.2806    4.7500 N.4       1 <0>        -0.3922
     60 H29         3.7359   11.3060    4.5870 H         1 <0>         0.4263
@<TRIPOS>BOND
     1    1    2 1
     2    1   31 1
     3    1   32 1
     4    1   33 1
     5    2    3 1
     6    2   16 am
     7    3    4 1
     8    3   34 1
     9    3   35 1
    10    4    8 1
    11    4    5 1
    12    4   36 1
    13    5    6 1
    14    5   37 1
    15    5   38 1
    16    6   39 1
    17    6   40 1
    18    6   59 1
    19    7    8 1
    20    7   41 1
    21    7   42 1
    22    7   59 1
    23    8   43 1
    24    8   44 1
    25    9   10 1
    26    9   45 1
    27    9   46 1
    28    9   59 1
    29   10   15 ar
    30   10   11 ar
    31   11   12 ar
    32   11   47 1
    33   12   13 ar
    34   12   48 1
    35   13   14 ar
    36   13   49 1
    37   14   15 ar
    38   14   50 1
    39   15   51 1
    40   16   17 2
    41   16   18 1
    42   18   22 1
    43   18   19 2
    44   19   20 1
    45   19   52 1
    46   20   21 1
    47   20   23 1
    48   21   22 2
    49   23   24 1
    50   23   53 1
    51   23   54 1
    52   24   29 ar
    53   24   25 ar
    54   25   26 ar
    55   25   55 1
    56   26   27 ar
    57   26   56 1
    58   27   28 ar
    59   27   57 1
    60   28   29 ar
    61   28   58 1
    62   29   30 1
    63   59   60 1
@<TRIPOS>MOLECULE
ZINC00000075
   35    37     0     0     0
SMALL
USER_CHARGES

@<TRIPOS>ATOM
      1 C1         -0.0167    1.3795    0.0096 C.ar      1 <0>        -0.0709
      2 C2          1.1683    2.0938    0.0021 C.ar      1 <0>        -0.1273
      3 C3          2.3774    1.4300   -0.0129 C.ar      1 <0>        -0.0497
      4 C4          2.4037    0.0340   -0.0206 C.ar      1 <0>        -0.1413
      5 C5          1.2041   -0.6806   -0.0130 C.ar      1 <0>        -0.0620
      6 C6          0.0021   -0.0041    0.0020 C.ar      1 <0>        -0.1319
      7 C7          3.6948   -0.6838   -0.0372 C.2       1 <0>         0.5143
      8 O1          4.7367   -0.0594   -0.0442 O.2       1 <0>        -0.4924
      9 O2          3.7166   -2.0307   -0.0446 O.3       1 <0>        -0.3358
     10 C8          5.0001   -2.6586   -0.0607 C.3       1 <0>         0.0764
     11 H1          5.7241   -2.0230    0.4490 H         1 <0>         0.1207
     12 C9          5.4435   -2.8823   -1.5082 C.3       1 <0>        -0.0267
     13 N1          5.6460   -4.3118   -1.7555 N.4       1 <0>        -0.3727
     14 C10         4.3965   -5.0509   -1.5603 C.3       1 <0>        -0.0085
     15 C11         3.9183   -4.8992   -0.1146 C.3       1 <0>        -0.1370
     16 C12         4.9174   -4.0159    0.6500 C.3       1 <0>        -0.0969
     17 C13         6.2984   -4.6815    0.5842 C.3       1 <0>        -0.1352
     18 C14         6.6998   -4.8412   -0.8867 C.3       1 <0>        -0.0108
     19 H2         -0.9605    1.9041    0.0260 H         1 <0>         0.1365
     20 H3          1.1465    3.1736    0.0078 H         1 <0>         0.1395
     21 H4          3.3016    1.9887   -0.0191 H         1 <0>         0.1398
     22 H5          1.2174   -1.7605   -0.0192 H         1 <0>         0.1356
     23 H6         -0.9265   -0.5555    0.0079 H         1 <0>         0.1365
     24 H7          4.6768   -2.5034   -2.1840 H         1 <0>         0.1380
     25 H8          6.3769   -2.3485   -1.6871 H         1 <0>         0.1431
     26 H9          3.6357   -4.6599   -2.2359 H         1 <0>         0.1309
     27 H10         4.5628   -6.1061   -1.7774 H         1 <0>         0.1336
     28 H11         2.9341   -4.4309   -0.1027 H         1 <0>         0.1074
     29 H12         3.8638   -5.8804    0.3570 H         1 <0>         0.1047
     30 H13         4.5952   -3.8825    1.6827 H         1 <0>         0.1273
     31 H14         7.0300   -4.0562    1.0959 H         1 <0>         0.1046
     32 H15         6.2549   -5.6608    1.0608 H         1 <0>         0.1118
     33 H16         6.8540   -5.8974   -1.1076 H         1 <0>         0.1357
     34 H17         7.6263   -4.2965   -1.0687 H         1 <0>         0.1329
     35 H18         5.9331   -4.4322   -2.7153 H         1 <0>         0.4299
@<TRIPOS>BOND
     1    1    6 ar
     2    1    2 ar
     3    1   19 1
     4    2    3 ar
     5    2   20 1
     6    3    4 ar
     7    3   21 1
     8    4    5 ar
     9    4    7 1
    10    5    6 ar
    11    5   22 1
    12    6   23 1
    13    7    8 2
    14    7    9 1
    15    9   10 1
    16   10   11 1
    17   10   16 1
    18   10   12 1
    19   12   13 1
    20   12   24 1
    21   12   25 1
    22   13   18 1
    23   13   14 1
    24   13   35 1
    25   14   15 1
    26   14   26 1
    27   14   27 1
    28   15   16 1
    29   15   28 1
    30   15   29 1
    31   16   17 1
    32   16   30 1
    33   17   18 1
    34   17   31 1
    35   17   32 1
    36   18   33 1
    37   18   34 1
@<TRIPOS>MOLECULE
ZINC00135992
   35    37     0     0     0
SMALL
USER_CHARGES

@<TRIPOS>ATOM
      1 C1         -0.0167    1.3795    0.0096 C.ar      1 <0>        -0.0709
      2 C2          1.1683    2.0938    0.0021 C.ar      1 <0>        -0.1273
      3 C3          2.3774    1.4300   -0.0129 C.ar      1 <0>        -0.0497
      4 C4          2.4037    0.0340   -0.0206 C.ar      1 <0>        -0.1412
      5 C5          1.2041   -0.6806   -0.0130 C.ar      1 <0>        -0.0620
      6 C6          0.0021   -0.0041    0.0020 C.ar      1 <0>        -0.1319
      7 C7          3.6948   -0.6838   -0.0372 C.2       1 <0>         0.5143
      8 O1          4.7367   -0.0594   -0.0442 O.2       1 <0>        -0.4924
      9 O2          3.7166   -2.0307   -0.0446 O.3       1 <0>        -0.3358
     10 C8          5.0001   -2.6586   -0.0607 C.3       1 <0>         0.0764
     11 H1          5.7140   -2.0175   -0.5779 H         1 <0>         0.1207
     12 C9          5.4721   -2.8976    1.3753 C.3       1 <0>        -0.0267
     13 N1          5.6793   -4.3297    1.6033 N.4       1 <0>        -0.3728
     14 C10         4.4261   -5.0668    1.4250 C.3       1 <0>        -0.0085
     15 C11         3.9193   -4.8998   -0.0093 C.3       1 <0>        -0.1370
     16 C12         4.9032   -4.0083   -0.7840 C.3       1 <0>        -0.0969
     17 C13         6.2851   -4.6744   -0.7527 C.3       1 <0>        -0.1352
     18 C14         6.7157   -4.8497    0.7081 C.3       1 <0>        -0.0107
     19 H2         -0.9605    1.9041    0.0260 H         1 <0>         0.1365
     20 H3          1.1465    3.1736    0.0078 H         1 <0>         0.1395
     21 H4          3.3016    1.9887   -0.0191 H         1 <0>         0.1398
     22 H5          1.2174   -1.7605   -0.0192 H         1 <0>         0.1357
     23 H6         -0.9265   -0.5555    0.0079 H         1 <0>         0.1365
     24 H7          6.4089   -2.3657    1.5414 H         1 <0>         0.1431
     25 H8          4.7190   -2.5260    2.0701 H         1 <0>         0.1380
     26 H9          4.5965   -6.1242    1.6275 H         1 <0>         0.1336
     27 H10         3.6789   -4.6831    2.1196 H         1 <0>         0.1309
     28 H11         3.8554   -5.8759   -0.4901 H         1 <0>         0.1047
     29 H12         2.9352   -4.4314    0.0033 H         1 <0>         0.1074
     30 H13         4.5606   -3.8639   -1.8086 H         1 <0>         0.1273
     31 H14         6.2321   -5.6486   -1.2388 H         1 <0>         0.1119
     32 H15         7.0065   -4.0435   -1.2721 H         1 <0>         0.1046
     33 H16         7.6455   -4.3069    0.8775 H         1 <0>         0.1328
     34 H17         6.8740   -5.9082    0.9146 H         1 <0>         0.1357
     35 H18         5.9853   -4.4603    2.5558 H         1 <0>         0.4299
@<TRIPOS>BOND
     1    1    6 ar
     2    1    2 ar
     3    1   19 1
     4    2    3 ar
     5    2   20 1
     6    3    4 ar
     7    3   21 1
     8    4    5 ar
     9    4    7 1
    10    5    6 ar
    11    5   22 1
    12    6   23 1
    13    7    8 2
    14    7    9 1
    15    9   10 1
    16   10   11 1
    17   10   16 1
    18   10   12 1
    19   12   13 1
    20   12   24 1
    21   12   25 1
    22   13   18 1
    23   13   14 1
    24   13   35 1
    25   14   15 1
    26   14   26 1
    27   14   27 1
    28   15   16 1
    29   15   28 1
    30   15   29 1
    31   16   17 1
    32   16   30 1
    33   17   18 1
    34   17   31 1
    35   17   32 1
    36   18   33 1
    37   18   34 1
@<TRIPOS>MOLECULE
ZINC00001624
   53    55     0     0     0
SMALL
USER_CHARGES

@<TRIPOS>ATOM
      1 C1         -0.5345    1.3876    0.5891 C.3       1 <0>        -0.0637
      2 N1         -0.8728   -0.0335    0.7443 N.4       1 <0>        -0.3784
      3 C2         -0.4779   -0.7639   -0.4661 C.3       1 <0>         0.0307
      4 H1          0.6039   -0.7076   -0.5872 H         1 <0>         0.1441
      5 C3         -0.9012   -2.2292   -0.3430 C.3       1 <0>        -0.1432
      6 C4         -0.2165   -2.8519    0.8771 C.3       1 <0>        -0.1338
      7 C5         -0.5761   -2.0373    2.1231 C.3       1 <0>        -0.1438
      8 C6         -0.1648   -0.5791    1.9086 C.3       1 <0>         0.0380
      9 H2          0.9103   -0.5268    1.7369 H         1 <0>         0.1451
     10 C7         -0.5220    0.2389    3.1513 C.3       1 <0>        -0.1973
     11 C8          0.3188   -0.2212    4.3142 C.2       1 <0>         0.4111
     12 O1          1.1969   -1.0393    4.1414 O.2       1 <0>        -0.4393
     13 C9          0.0741    0.3223    5.6598 C.ar      1 <0>        -0.1847
     14 C10        -0.9416    1.2617    5.8643 C.ar      1 <0>        -0.0760
     15 C11        -1.1650    1.7660    7.1280 C.ar      1 <0>        -0.1304
     16 C12        -0.3872    1.3448    8.1926 C.ar      1 <0>        -0.0738
     17 C13         0.6201    0.4158    7.9982 C.ar      1 <0>        -0.1275
     18 C14         0.8522   -0.1021    6.7416 C.ar      1 <0>        -0.0530
     19 C15        -1.1601   -0.1379   -1.6841 C.3       1 <0>        -0.1764
     20 C16        -0.6804   -0.8417   -2.9551 C.3       1 <0>         0.1585
     21 H3         -0.8469   -1.9148   -2.8610 H         1 <0>         0.1186
     22 C17        -1.4483   -0.3163   -4.1406 C.ar      1 <0>        -0.1341
     23 C18        -1.0265    0.8327   -4.7831 C.ar      1 <0>        -0.1096
     24 C19        -1.7309    1.3147   -5.8705 C.ar      1 <0>        -0.1139
     25 C20        -2.8567    0.6474   -6.3157 C.ar      1 <0>        -0.1081
     26 C21        -3.2779   -0.5021   -5.6737 C.ar      1 <0>        -0.1139
     27 C22        -2.5711   -0.9865   -4.5890 C.ar      1 <0>        -0.1085
     28 O2          0.7140   -0.5905   -3.1414 O.3       1 <0>        -0.5474
     29 H4          0.5421    1.4922    0.4544 H         1 <0>         0.1254
     30 H5         -1.0505    1.7909   -0.2821 H         1 <0>         0.1288
     31 H6         -0.8439    1.9341    1.4800 H         1 <0>         0.1266
     32 H7         -1.9829   -2.2867   -0.2221 H         1 <0>         0.0887
     33 H8         -0.6055   -2.7702   -1.2419 H         1 <0>         0.1146
     34 H9         -0.5584   -3.8793    1.0021 H         1 <0>         0.0967
     35 H10         0.8640   -2.8410    0.7338 H         1 <0>         0.0846
     36 H11        -1.6511   -2.0908    2.2951 H         1 <0>         0.0863
     37 H12        -0.0480   -2.4412    2.9869 H         1 <0>         0.1194
     38 H13        -0.3297    1.2944    2.9591 H         1 <0>         0.1249
     39 H14        -1.5768    0.0988    3.3877 H         1 <0>         0.1231
     40 H15        -1.5491    1.5916    5.0345 H         1 <0>         0.1277
     41 H16        -1.9488    2.4917    7.2876 H         1 <0>         0.1342
     42 H17        -0.5671    1.7434    9.1801 H         1 <0>         0.1346
     43 H18         1.2230    0.0924    8.8338 H         1 <0>         0.1362
     44 H19         1.6357   -0.8303    6.5923 H         1 <0>         0.1368
     45 H20        -2.2405   -0.2494   -1.5927 H         1 <0>         0.1010
     46 H21        -0.9073    0.9211   -1.7378 H         1 <0>         0.0953
     47 H22        -0.1470    1.3540   -4.4353 H         1 <0>         0.1194
     48 H23        -1.4018    2.2127   -6.3721 H         1 <0>         0.1278
     49 H24        -3.4074    1.0243   -7.1648 H         1 <0>         0.1284
     50 H25        -4.1577   -1.0233   -6.0213 H         1 <0>         0.1286
     51 H26        -2.8980   -1.8866   -4.0897 H         1 <0>         0.1238
     52 H27         0.9491    0.3474   -3.1334 H         1 <0>         0.3779
     53 H28        -1.8678   -0.1281    0.8823 H         1 <0>         0.4198
@<TRIPOS>BOND
     1    1    2 1
     2    1   29 1
     3    1   30 1
     4    1   31 1
     5    2    8 1
     6    2    3 1
     7    2   53 1
     8    3    4 1
     9    3    5 1
    10    3   19 1
    11    5    6 1
    12    5   32 1
    13    5   33 1
    14    6    7 1
    15    6   34 1
    16    6   35 1
    17    7    8 1
    18    7   36 1
    19    7   37 1
    20    8    9 1
    21    8   10 1
    22   10   11 1
    23   10   38 1
    24   10   39 1
    25   11   12 2
    26   11   13 1
    27   13   18 ar
    28   13   14 ar
    29   14   15 ar
    30   14   40 1
    31   15   16 ar
    32   15   41 1
    33   16   17 ar
    34   16   42 1
    35   17   18 ar
    36   17   43 1
    37   18   44 1
    38   19   20 1
    39   19   45 1
    40   19   46 1
    41   20   21 1
    42   20   22 1
    43   20   28 1
    44   22   27 ar
    45   22   23 ar
    46   23   24 ar
    47   23   47 1
    48   24   25 ar
    49   24   48 1
    50   25   26 ar
    51   25   49 1
    52   26   27 ar
    53   26   50 1
    54   27   51 1
    55   28   52 1
@<TRIPOS>MOLECULE
ZINC16082005
   55    57     0     0     0
SMALL
USER_CHARGES

@<TRIPOS>ATOM
      1 C1          0.6358    1.8051   -0.1271 C.3       1 <0>        -0.0612
      2 N1          0.4813    0.3593    0.0820 N.4       1 <0>        -0.3782
      3 C2         -0.9234    0.0571    0.3820 C.3       1 <0>         0.0315
      4 H1         -1.2080    0.5438    1.3148 H         1 <0>         0.1441
      5 C3         -1.1052   -1.4559    0.5207 C.3       1 <0>        -0.1427
      6 C4         -0.2169   -1.9692    1.6577 C.3       1 <0>        -0.1355
      7 C5          1.2369   -1.5833    1.3704 C.3       1 <0>        -0.1427
      8 C6          1.3320   -0.0656    1.2002 C.3       1 <0>         0.0308
      9 H2          0.9993    0.4238    2.1156 H         1 <0>         0.1435
     10 C7          2.7832    0.3249    0.9132 C.3       1 <0>        -0.1770
     11 C8          3.6570   -0.0408    2.1147 C.3       1 <0>         0.1590
     12 H3          3.5464   -1.1027    2.3345 H         1 <0>         0.1185
     13 C9          5.0992    0.2588    1.7968 C.ar      1 <0>        -0.1344
     14 C10         5.6005    1.5318    1.9947 C.ar      1 <0>        -0.1101
     15 C11         6.9235    1.8067    1.7030 C.ar      1 <0>        -0.1138
     16 C12         7.7453    0.8085    1.2140 C.ar      1 <0>        -0.1080
     17 C13         7.2442   -0.4647    1.0170 C.ar      1 <0>        -0.1138
     18 C14         5.9224   -0.7406    1.3126 C.ar      1 <0>        -0.1084
     19 O1          3.2503    0.7255    3.2502 O.3       1 <0>        -0.5476
     20 C15        -1.8093    0.5740   -0.7533 C.3       1 <0>        -0.1751
     21 C16        -3.2803    0.3662   -0.3873 C.3       1 <0>         0.1590
     22 H4         -3.4537   -0.6862   -0.1628 H         1 <0>         0.1177
     23 C17        -4.1498    0.7826   -1.5456 C.ar      1 <0>        -0.1350
     24 C18        -4.4222    2.1209   -1.7592 C.ar      1 <0>        -0.1140
     25 C19        -5.2198    2.5029   -2.8217 C.ar      1 <0>        -0.1126
     26 C20        -5.7445    1.5466   -3.6709 C.ar      1 <0>        -0.1076
     27 C21        -5.4713    0.2084   -3.4578 C.ar      1 <0>        -0.1128
     28 C22        -4.6702   -0.1733   -2.3978 C.ar      1 <0>        -0.1066
     29 O2         -3.6024    1.1571    0.7585 O.3       1 <0>        -0.5494
     30 H5          1.6891    2.0394   -0.2811 H         1 <0>         0.1265
     31 H6          0.0641    2.1085   -1.0041 H         1 <0>         0.1255
     32 H7          0.2688    2.3401    0.7488 H         1 <0>         0.1242
     33 H8         -2.1485   -1.6780    0.7452 H         1 <0>         0.1136
     34 H9         -0.8211   -1.9437   -0.4117 H         1 <0>         0.0878
     35 H10        -0.5340   -1.5203    2.5990 H         1 <0>         0.0843
     36 H11        -0.2999   -3.0540    1.7237 H         1 <0>         0.0964
     37 H12         1.8678   -1.8965    2.2022 H         1 <0>         0.1141
     38 H13         1.5697   -2.0737    0.4556 H         1 <0>         0.0879
     39 H14         3.1358   -0.2100    0.0313 H         1 <0>         0.1002
     40 H15         2.8421    1.3986    0.7345 H         1 <0>         0.0949
     41 H16         4.9585    2.3116    2.3768 H         1 <0>         0.1194
     42 H17         7.3150    2.8014    1.8570 H         1 <0>         0.1279
     43 H18         8.7787    1.0234    0.9855 H         1 <0>         0.1285
     44 H19         7.8862   -1.2445    0.6345 H         1 <0>         0.1286
     45 H20         5.5318   -1.7363    1.1622 H         1 <0>         0.1238
     46 H21         3.2425    1.6804    3.0980 H         1 <0>         0.3779
     47 H22        -1.6197    1.6363   -0.9072 H         1 <0>         0.0936
     48 H23        -1.5820    0.0280   -1.6689 H         1 <0>         0.0992
     49 H24        -4.0123    2.8681   -1.0958 H         1 <0>         0.1189
     50 H25        -5.4332    3.5484   -2.9882 H         1 <0>         0.1283
     51 H26        -6.3682    1.8450   -4.5005 H         1 <0>         0.1290
     52 H27        -5.8815   -0.5388   -4.1210 H         1 <0>         0.1292
     53 H28        -4.4537   -1.2185   -2.2335 H         1 <0>         0.1247
     54 H29        -3.5364    2.1103    0.6097 H         1 <0>         0.3793
     55 H30         0.7576   -0.1320   -0.7549 H         1 <0>         0.4187
@<TRIPOS>BOND
     1    1    2 1
     2    1   30 1
     3    1   31 1
     4    1   32 1
     5    2    8 1
     6    2    3 1
     7    2   55 1
     8    3    4 1
     9    3    5 1
    10    3   20 1
    11    5    6 1
    12    5   33 1
    13    5   34 1
    14    6    7 1
    15    6   35 1
    16    6   36 1
    17    7    8 1
    18    7   37 1
    19    7   38 1
    20    8    9 1
    21    8   10 1
    22   10   11 1
    23   10   39 1
    24   10   40 1
    25   11   12 1
    26   11   13 1
    27   11   19 1
    28   13   18 ar
    29   13   14 ar
    30   14   15 ar
    31   14   41 1
    32   15   16 ar
    33   15   42 1
    34   16   17 ar
    35   16   43 1
    36   17   18 ar
    37   17   44 1
    38   18   45 1
    39   19   46 1
    40   20   21 1
    41   20   47 1
    42   20   48 1
    43   21   22 1
    44   21   23 1
    45   21   29 1
    46   23   28 ar
    47   23   24 ar
    48   24   25 ar
    49   24   49 1
    50   25   26 ar
    51   25   50 1
    52   26   27 ar
    53   26   51 1
    54   27   28 ar
    55   27   52 1
    56   28   53 1
    57   29   54 1
@<TRIPOS>MOLECULE
ZINC04099970
   28    29     0     0     0
SMALL
USER_CHARGES
3-chloro-6-(4-methylpiperazin-1-yl)pyridazine
@<TRIPOS>ATOM
      1 C1         -0.0625    1.0307    2.4286 C.3       1 <0>        -0.0408
      2 C2         -0.0127    1.0858    0.0080 C.3       1 <0>         0.0011
      3 C3         -0.7538    1.5933   -1.2312 C.3       1 <0>         0.0296
      4 N1         -0.8062    3.0616   -1.2005 N.pl3     1 <0>        -0.4689
      5 C4         -1.4953    3.5359    0.0077 C.3       1 <0>         0.0233
      6 C5         -0.7542    3.0285    1.2469 C.3       1 <0>         0.0044
      7 C6         -1.4108    3.5630   -2.3486 C.ar      1 <0>         0.2350
      8 C7         -1.5652    4.9394   -2.5149 C.ar      1 <0>        -0.1104
      9 C8         -2.1685    5.3884   -3.6783 C.ar      1 <0>        -0.0764
     10 C9         -2.5922    4.4405   -4.6018 C.ar      1 <0>         0.1052
     11 N2         -2.4103    3.1571   -4.3596 N.ar      1 <0>        -0.2006
     12 N3         -1.8472    2.7354   -3.2861 N.ar      1 <0>        -0.2547
     13 Cl1        -3.3605    4.9458   -6.0742 Cl        1 <0>         0.0182
     14 H1          0.9757    1.3605    2.4658 H         1 <0>         0.1253
     15 H2         -0.5919    1.3972    3.3081 H         1 <0>         0.1240
     16 H3         -0.0972   -0.0587    2.4114 H         1 <0>         0.1247
     17 H4          0.0021   -0.0041    0.0020 H         1 <0>         0.1426
     18 H5          1.0098    1.4634    0.0003 H         1 <0>         0.1416
     19 H6         -0.2280    1.2668   -2.1285 H         1 <0>         0.1365
     20 H7         -1.7678    1.1933   -1.2378 H         1 <0>         0.0810
     21 H8         -1.5101    4.6258    0.0137 H         1 <0>         0.1320
     22 H9         -2.5178    3.1583    0.0150 H         1 <0>         0.0761
     23 H10         0.2597    3.4285    1.2535 H         1 <0>         0.1437
     24 H11        -1.2798    3.3552    2.1442 H         1 <0>         0.1429
     25 H12        -1.2212    5.6334   -1.7623 H         1 <0>         0.1653
     26 H13        -2.3090    6.4437   -3.8602 H         1 <0>         0.1721
     27 N4         -0.7278    1.5508    1.2149 N.4       1 <0>        -0.4018
     28 H14        -1.6925    1.2003    1.1871 H         1 <0>         0.4290
@<TRIPOS>BOND
     1    1   14 1
     2    1   15 1
     3    1   16 1
     4    1   27 1
     5    2    3 1
     6    2   17 1
     7    2   18 1
     8    2   27 1
     9    3    4 1
    10    3   19 1
    11    3   20 1
    12    4    5 1
    13    4    7 1
    14    5    6 1
    15    5   21 1
    16    5   22 1
    17    6   23 1
    18    6   24 1
    19    6   27 1
    20    7   12 ar
    21    7    8 ar
    22    8    9 ar
    23    8   25 1
    24    9   10 ar
    25    9   26 1
    26   10   11 ar
    27   10   13 1
    28   11   12 ar
    29   27   28 1
@<TRIPOS>MOLECULE
ZINC04502282
   25    26     0     0     0
SMALL
USER_CHARGES

@<TRIPOS>ATOM
      1 C1         -0.0092    1.3753   -0.2030 C.ar      1 <0>        -0.1585
      2 C2          1.2059    2.0413   -0.2015 C.ar      1 <0>        -0.0577
      3 C3          2.3593    1.2948    0.0038 C.ar      1 <0>         0.0798
      4 N1          2.2766   -0.0084    0.1898 N.ar      1 <0>        -0.1835
      5 N2          1.1540   -0.6307    0.1895 N.ar      1 <0>        -0.2760
      6 C4          0.0021   -0.0041    0.0020 C.ar      1 <0>         0.3300
      7 N3         -1.1914   -0.7190    0.0096 N.pl3     1 <0>        -0.6195
      8 C5         -1.1919   -2.1900    0.0079 C.3       1 <0>         0.0991
      9 C6         -2.1098   -2.6767    1.1341 C.3       1 <0>        -0.0226
     10 N4         -3.4378   -2.0700    0.9786 N.4       1 <0>        -0.5050
     11 C7         -3.3452   -0.6141    1.1457 C.3       1 <0>        -0.0217
     12 C8         -2.4885   -0.0253    0.0257 C.3       1 <0>         0.0971
     13 Cl1         3.9091    2.0768    0.0151 Cl        1 <0>         0.0119
     14 H1         -0.9363    1.9084   -0.3537 H         1 <0>         0.1591
     15 H2          1.2549    3.1091   -0.3558 H         1 <0>         0.1690
     16 H3         -1.5623   -2.5551   -0.9501 H         1 <0>         0.0948
     17 H4         -0.1794   -2.5569    0.1762 H         1 <0>         0.1406
     18 H5         -2.1983   -3.7621    1.0874 H         1 <0>         0.1488
     19 H6         -1.6885   -2.3874    2.0969 H         1 <0>         0.1361
     20 H7         -3.7964   -2.2796    0.0590 H         1 <0>         0.4296
     21 H8         -4.3442   -0.1796    1.1075 H         1 <0>         0.1496
     22 H9         -2.8866   -0.3872    2.1081 H         1 <0>         0.1357
     23 H10        -2.3329    1.0384    0.2058 H         1 <0>         0.1277
     24 H11        -2.9921   -0.1680   -0.9304 H         1 <0>         0.0997
     25 H12        -4.0627   -2.4482    1.6747 H         1 <0>         0.4360
@<TRIPOS>BOND
     1    1    6 ar
     2    1    2 ar
     3    1   14 1
     4    2    3 ar
     5    2   15 1
     6    3    4 ar
     7    3   13 1
     8    4    5 ar
     9    5    6 ar
    10    6    7 1
    11    7   12 1
    12    7    8 1
    13    8    9 1
    14    8   16 1
    15    8   17 1
    16    9   10 1
    17    9   18 1
    18    9   19 1
    19   10   11 1
    20   10   20 1
    21   10   25 1
    22   11   12 1
    23   11   21 1
    24   11   22 1
    25   12   23 1
    26   12   24 1
@<TRIPOS>MOLECULE
ZINC13491010
   31    32     0     0     0
SMALL
USER_CHARGES
1-(6-chloropyridazin-3-yl)-4-methyl-1,4-diazepane
@<TRIPOS>ATOM
      1 C1         -0.8888    3.4848   -2.6646 C.3       1 <0>        -0.0406
      2 C2         -0.6973    1.5589   -1.1933 C.3       1 <0>         0.0041
      3 C3         -0.0127    1.0858    0.0080 C.3       1 <0>        -0.1547
      4 C4         -0.7109    1.5715    1.2949 C.3       1 <0>         0.0319
      5 N1         -0.3391    2.9459    1.5304 N.pl3     1 <0>        -0.4911
      6 C5         -1.2871    3.9366    0.9682 C.3       1 <0>         0.0303
      7 C6         -1.7822    3.5558   -0.4387 C.3       1 <0>        -0.0118
      8 C7         -0.1191    3.1788    2.8841 C.ar      1 <0>         0.2420
      9 C8          0.3418    4.4230    3.3149 C.ar      1 <0>        -0.1122
     10 C9          0.5399    4.6063    4.6737 C.ar      1 <0>        -0.0773
     11 C10         0.2781    3.5371    5.5216 C.ar      1 <0>         0.1034
     12 N2         -0.1507    2.3926    5.0262 N.ar      1 <0>        -0.1999
     13 N3         -0.3410    2.2186    3.7689 N.ar      1 <0>        -0.2534
     14 Cl1         0.5150    3.7079    7.2329 Cl        1 <0>         0.0166
     15 H1         -1.8238    3.0937   -3.0658 H         1 <0>         0.1236
     16 H2         -0.9075    4.5742   -2.6957 H         1 <0>         0.1238
     17 H3         -0.0551    3.1185   -3.2636 H         1 <0>         0.1243
     18 H4         -0.1835    1.1665   -2.0709 H         1 <0>         0.1330
     19 H5         -1.7209    1.1842   -1.1878 H         1 <0>         0.1275
     20 H6          0.0021   -0.0041    0.0020 H         1 <0>         0.1251
     21 H7          1.0131    1.4543    0.0002 H         1 <0>         0.0974
     22 H8         -1.7918    1.4990    1.1743 H         1 <0>         0.0696
     23 H9         -0.3926    0.9578    2.1377 H         1 <0>         0.1269
     24 H10        -0.7925    4.9065    0.9164 H         1 <0>         0.1127
     25 H11        -2.1467    4.0177    1.6335 H         1 <0>         0.0933
     26 H12        -2.2066    4.4400   -0.9143 H         1 <0>         0.1449
     27 H13        -2.5609    2.7990   -0.3439 H         1 <0>         0.1302
     28 H14         0.5341    5.2197    2.6116 H         1 <0>         0.1631
     29 H15         0.8919    5.5506    5.0619 H         1 <0>         0.1707
     30 N4         -0.7082    3.0388   -1.2602 N.4       1 <0>        -0.3888
     31 H16         0.1871    3.3971   -0.9075 H         1 <0>         0.4351
@<TRIPOS>BOND
     1    1   15 1
     2    1   16 1
     3    1   17 1
     4    1   30 1
     5    2    3 1
     6    2   18 1
     7    2   19 1
     8    2   30 1
     9    3    4 1
    10    3   20 1
    11    3   21 1
    12    4    5 1
    13    4   22 1
    14    4   23 1
    15    5    6 1
    16    5    8 1
    17    6    7 1
    18    6   24 1
    19    6   25 1
    20    7   26 1
    21    7   27 1
    22    7   30 1
    23    8   13 ar
    24    8    9 ar
    25    9   10 ar
    26    9   28 1
    27   10   11 ar
    28   10   29 1
    29   11   12 ar
    30   11   14 1
    31   12   13 ar
    32   30   31 1
@<TRIPOS>MOLECULE
ZINC12410242
   29    31     0     0     0
SMALL
USER_CHARGES

@<TRIPOS>ATOM
      1 C1         -0.0239    1.3730    0.2203 C.ar      1 <0>        -0.1600
      2 C2         -1.2562    2.0068    0.2203 C.ar      1 <0>        -0.0573
      3 C3         -2.3886    1.2321    0.0032 C.ar      1 <0>         0.0789
      4 N1         -2.2708   -0.0666   -0.1950 N.ar      1 <0>        -0.1829
      5 N2         -1.1322   -0.6590   -0.1961 N.ar      1 <0>        -0.2761
      6 C4          0.0021   -0.0041    0.0020 C.ar      1 <0>         0.3316
      7 N3          1.2145   -0.6862   -0.0133 N.pl3     1 <0>        -0.6136
      8 C5          1.2482   -2.1573   -0.0277 C.3       1 <0>         0.1031
      9 C6          2.2418   -2.6006   -1.1161 C.3       1 <0>         0.0200
     10 H1          2.2927   -3.6855   -1.2081 H         1 <0>         0.1661
     11 C7          1.8265   -1.9208   -2.4404 C.3       1 <0>        -0.1364
     12 C8          2.5724   -0.5706   -2.4454 C.3       1 <0>        -0.1357
     13 C9          3.3729   -0.5528   -1.1236 C.3       1 <0>         0.0278
     14 H2          4.3230   -0.0280   -1.2243 H         1 <0>         0.1667
     15 C10         2.4894    0.0485   -0.0216 C.3       1 <0>         0.0990
     16 N4          3.5605   -2.0023   -0.7769 N.4       1 <0>        -0.5230
     17 Cl1        -3.9585    1.9730   -0.0068 Cl        1 <0>         0.0112
     18 H3          0.8882    1.9289    0.3798 H         1 <0>         0.1584
     19 H4         -1.3339    3.0714    0.3847 H         1 <0>         0.1684
     20 H5          1.5764   -2.5276    0.9435 H         1 <0>         0.0937
     21 H6          0.2556   -2.5462   -0.2547 H         1 <0>         0.1406
     22 H7          2.1359   -2.5278   -3.2913 H         1 <0>         0.1023
     23 H8          0.7489   -1.7586   -2.4615 H         1 <0>         0.1125
     24 H9          3.2483   -0.5142   -3.2986 H         1 <0>         0.1037
     25 H10         1.8613    0.2551   -2.4690 H         1 <0>         0.1071
     26 H11         2.3071    1.0998   -0.2445 H         1 <0>         0.1267
     27 H12         2.9740   -0.0438    0.9504 H         1 <0>         0.1018
     28 H13         3.7615   -2.1206    0.2048 H         1 <0>         0.4319
     29 H14         4.2906   -2.4101   -1.3415 H         1 <0>         0.4332
@<TRIPOS>BOND
     1    1    6 ar
     2    1   18 1
     3    1    2 ar
     4    2   19 1
     5    2    3 ar
     6    3   17 1
     7    3    4 ar
     8    4    5 ar
     9    5    6 ar
    10    6    7 1
    11    7   15 1
    12    7    8 1
    13    8    9 1
    14    8   20 1
    15    8   21 1
    16    9   10 1
    17    9   16 1
    18    9   11 1
    19   11   12 1
    20   11   22 1
    21   11   23 1
    22   12   13 1
    23   12   24 1
    24   12   25 1
    25   13   14 1
    26   13   15 1
    27   13   16 1
    28   15   26 1
    29   15   27 1
    30   16   28 1
    31   16   29 1
@<TRIPOS>MOLECULE
ZINC13491009
   28    29     0     0     0
SMALL
USER_CHARGES
1-(6-chloropyridazin-3-yl)-1,4-diazepane
@<TRIPOS>ATOM
      1 C1         -0.9624    3.2660   -1.1903 C.ar      1 <0>        -0.1194
      2 C2         -1.7624    3.7069   -2.2322 C.ar      1 <0>        -0.0757
      3 C3         -2.3624    2.7523   -3.0436 C.ar      1 <0>         0.1008
      4 N1         -2.1626    1.4695   -2.8107 N.ar      1 <0>        -0.1987
      5 N2         -1.4183    1.0553   -1.8506 N.ar      1 <0>        -0.2537
      6 C4         -0.8097    1.8901   -1.0215 C.ar      1 <0>         0.2412
      7 N3         -0.0169    1.3966    0.0097 N.pl3     1 <0>        -0.4764
      8 C5          0.0021   -0.0041    0.0020 C.3       1 <0>         0.0490
      9 C6          0.7087   -0.5680    1.2550 C.3       1 <0>        -0.1408
     10 C7          2.1984   -0.4056    1.0915 C.3       1 <0>        -0.0053
     11 C8          1.8471    2.0262    1.4122 C.3       1 <0>         0.0006
     12 C9          1.3177    2.0289    0.0004 C.3       1 <0>         0.0332
     13 Cl1        -3.3755    3.2475   -4.3635 Cl        1 <0>         0.0155
     14 H1         -0.4722    3.9659   -0.5299 H         1 <0>         0.1635
     15 H2         -1.9147    4.7615   -2.4085 H         1 <0>         0.1706
     16 H3         -1.0228   -0.3740   -0.0257 H         1 <0>         0.1140
     17 H4          0.5279   -0.3482   -0.8886 H         1 <0>         0.0599
     18 H5          0.3769   -0.0217    2.1380 H         1 <0>         0.0979
     19 H6          0.4668   -1.6250    1.3657 H         1 <0>         0.1245
     20 H7          2.6983   -1.2445    1.5757 H         1 <0>         0.1348
     21 H8          2.4388   -0.4228    0.0284 H         1 <0>         0.1249
     22 H9          1.0067    2.0113    2.1061 H         1 <0>         0.1444
     23 H10         2.4250    2.9360    1.5748 H         1 <0>         0.1416
     24 H11         1.9888    1.4627   -0.6455 H         1 <0>         0.0800
     25 H12         1.2367    3.0543   -0.3604 H         1 <0>         0.1287
     26 N4          2.7351    0.8572    1.6917 N.4       1 <0>        -0.5298
     27 H13         3.6644    1.0440    1.2970 H         1 <0>         0.4361
     28 H14         2.8133    0.7349    2.7082 H         1 <0>         0.4387
@<TRIPOS>BOND
     1    1    6 ar
     2    1    2 ar
     3    1   14 1
     4    2    3 ar
     5    2   15 1
     6    3    4 ar
     7    3   13 1
     8    4    5 ar
     9    5    6 ar
    10    6    7 1
    11    7   12 1
    12    7    8 1
    13    8    9 1
    14    8   16 1
    15    8   17 1
    16    9   10 1
    17    9   18 1
    18    9   19 1
    19   10   20 1
    20   10   21 1
    21   10   26 1
    22   11   12 1
    23   11   22 1
    24   11   23 1
    25   11   26 1
    26   12   24 1
    27   12   25 1
    28   26   27 1
    29   26   28 1
@<TRIPOS>MOLECULE
ZINC00000860
   43    45     0     0     0
SMALL
USER_CHARGES
3-[3-[(2,4-dimethoxyphenyl)methylene]-5,6-dihydro-4H-pyridin-2-yl]pyridine
@<TRIPOS>ATOM
      1 C1         -5.1123   -1.6085   -0.1949 C.3       1 <0>         0.0254
      2 O1         -4.3624   -0.4834   -0.6574 O.3       1 <0>        -0.3140
      3 C2         -3.8184    0.3254    0.2878 C.ar      1 <0>         0.1778
      4 C3         -4.0052    0.0378    1.6362 C.ar      1 <0>        -0.2469
      5 C4         -3.4572    0.8516    2.6010 C.ar      1 <0>        -0.0249
      6 C5         -2.7087    1.9733    2.2260 C.ar      1 <0>        -0.1376
      7 C6         -2.5216    2.2615    0.8641 C.ar      1 <0>         0.1868
      8 C7         -3.0827    1.4375   -0.0954 C.ar      1 <0>        -0.2476
      9 O2         -1.7977    3.3472    0.4908 O.3       1 <0>        -0.3048
     10 C8         -1.6496    3.5772   -0.9118 C.3       1 <0>         0.0229
     11 C9         -2.1211    2.8450    3.2521 C.2       1 <0>        -0.0402
     12 C10        -2.8072    3.1141    4.3818 C.2       1 <0>        -0.1529
     13 C11        -4.2465    2.6699    4.5538 C.3       1 <0>        -0.0843
     14 C12        -4.9899    3.8209    5.2487 C.3       1 <0>        -0.1513
     15 C13        -4.3422    4.0803    6.6076 C.3       1 <0>         0.0456
     16 N1         -2.9062    4.2861    6.4861 N.2       1 <0>        -0.5144
     17 C14        -2.1860    3.8448    5.4973 C.2       1 <0>         0.2539
     18 C15        -0.7232    4.0864    5.4901 C.ar      1 <0>        -0.1029
     19 C16         0.1548    3.1171    4.9945 C.ar      1 <0>        -0.0542
     20 C17         1.5108    3.3936    5.0042 C.ar      1 <0>        -0.1746
     21 C18         1.9512    4.6033    5.5103 C.ar      1 <0>         0.1086
     22 N2          1.0994    5.4964    5.9761 N.ar      1 <0>        -0.4862
     23 C19        -0.2000    5.2808    5.9822 C.ar      1 <0>         0.1406
     24 H1         -4.4692   -2.2516    0.4059 H         1 <0>         0.0592
     25 H2         -5.9492   -1.2628    0.4117 H         1 <0>         0.0589
     26 H3         -5.4903   -2.1693   -1.0497 H         1 <0>         0.1032
     27 H4         -4.5829   -0.8273    1.9267 H         1 <0>         0.1335
     28 H5         -3.6047    0.6251    3.6466 H         1 <0>         0.1376
     29 H6         -2.9449    1.6583   -1.1436 H         1 <0>         0.1399
     30 H7         -1.1524    2.7221   -1.3697 H         1 <0>         0.0600
     31 H8         -1.0511    4.4740   -1.0717 H         1 <0>         0.1045
     32 H9         -2.6324    3.7108   -1.3638 H         1 <0>         0.0594
     33 H10        -1.1398    3.2703    3.1020 H         1 <0>         0.1314
     34 H11        -4.6940    2.4723    3.5797 H         1 <0>         0.0861
     35 H12        -4.2877    1.7723    5.1709 H         1 <0>         0.0763
     36 H13        -4.9250    4.7200    4.6358 H         1 <0>         0.0694
     37 H14        -6.0362    3.5486    5.3873 H         1 <0>         0.0782
     38 H15        -4.7924    4.9676    7.0529 H         1 <0>         0.0930
     39 H16        -4.5243    3.2247    7.2578 H         1 <0>         0.0852
     40 H17        -0.2163    2.1787    4.6097 H         1 <0>         0.1398
     41 H18         2.2180    2.6704    4.6256 H         1 <0>         0.1400
     42 H19         3.0091    4.8203    5.5238 H         1 <0>         0.1585
     43 H20        -0.8660    6.0362    6.3724 H         1 <0>         0.1611
@<TRIPOS>BOND
     1    1    2 1
     2    1   24 1
     3    1   25 1
     4    1   26 1
     5    2    3 1
     6    3    8 ar
     7    3    4 ar
     8    4    5 ar
     9    4   27 1
    10    5    6 ar
    11    5   28 1
    12    6    7 ar
    13    6   11 1
    14    7    8 ar
    15    7    9 1
    16    8   29 1
    17    9   10 1
    18   10   30 1
    19   10   31 1
    20   10   32 1
    21   11   12 2
    22   11   33 1
    23   12   17 1
    24   12   13 1
    25   13   14 1
    26   13   34 1
    27   13   35 1
    28   14   15 1
    29   14   36 1
    30   14   37 1
    31   15   16 1
    32   15   38 1
    33   15   39 1
    34   16   17 2
    35   17   18 1
    36   18   23 ar
    37   18   19 ar
    38   19   20 ar
    39   19   40 1
    40   20   21 ar
    41   20   41 1
    42   21   22 ar
    43   21   42 1
    44   22   23 ar
    45   23   43 1
@<TRIPOS>MOLECULE
ZINC12397618
   27    28     0     0     0
SMALL
USER_CHARGES
3-ethyl-5-[(2R)-pyrrolidin-2-yl]isoxazole
@<TRIPOS>ATOM
      1 C1          1.5000    7.5148    2.1536 C.3       1 <0>        -0.1526
      2 C2          2.6237    6.5001    1.9334 C.3       1 <0>        -0.0558
      3 C3          2.0294    5.1347    1.7019 C.2       1 <0>         0.0326
      4 C4          2.2676    4.2833    0.5986 C.2       1 <0>        -0.1569
      5 C5          1.5068    3.1927    0.8565 C.2       1 <0>        -0.1203
      6 O1          0.8967    3.4239    2.0274 O.3       1 <0>         0.1078
      7 N1          1.1982    4.5038    2.4802 N.2       1 <0>        -0.3263
      8 C6          1.3770    1.9600   -0.0006 C.3       1 <0>         0.1349
      9 H1          1.6974    2.1707   -1.0209 H         1 <0>         0.1703
     10 C7          2.2089    0.7978    0.5967 C.3       1 <0>        -0.1391
     11 C8          1.4820   -0.4413    0.0110 C.3       1 <0>        -0.1425
     12 C9          0.0021   -0.0041    0.0020 C.3       1 <0>        -0.0100
     13 H2          0.8578    7.5425    1.2733 H         1 <0>         0.0573
     14 H3          0.9117    7.2224    3.0234 H         1 <0>         0.0622
     15 H4          1.9298    8.5024    2.3210 H         1 <0>         0.0740
     16 H5          3.2659    6.4723    2.8137 H         1 <0>         0.0933
     17 H6          3.2120    6.7925    1.0636 H         1 <0>         0.0951
     18 H7          2.9068    4.4618   -0.2533 H         1 <0>         0.1868
     19 H8          2.1590    0.8012    1.6856 H         1 <0>         0.1047
     20 H9          3.2431    0.8414    0.2552 H         1 <0>         0.1253
     21 H10         1.6232   -1.3104    0.6535 H         1 <0>         0.1186
     22 H11         1.8287   -0.6487   -1.0014 H         1 <0>         0.1050
     23 H12        -0.5030   -0.3866    0.8889 H         1 <0>         0.1368
     24 H13        -0.4917   -0.3767   -0.8954 H         1 <0>         0.1396
     25 N2         -0.0127    1.4666    0.0100 N.4       1 <0>        -0.5213
     26 H14        -0.5067    1.8106   -0.8218 H         1 <0>         0.4409
     27 H15        -0.4906    1.8016    0.8548 H         1 <0>         0.4394
@<TRIPOS>BOND
     1    1    2 1
     2    1   13 1
     3    1   14 1
     4    1   15 1
     5    2    3 1
     6    2   16 1
     7    2   17 1
     8    3    7 2
     9    3    4 1
    10    4    5 2
    11    4   18 1
    12    5    6 1
    13    5    8 1
    14    6    7 1
    15    8    9 1
    16    8   10 1
    17    8   25 1
    18   10   11 1
    19   10   19 1
    20   10   20 1
    21   11   12 1
    22   11   21 1
    23   11   22 1
    24   12   23 1
    25   12   24 1
    26   12   25 1
    27   25   26 1
    28   25   27 1
@<TRIPOS>MOLECULE
ZINC13739966
   24    25     0     0     0
SMALL
USER_CHARGES
3-methyl-5-[(2S)-pyrrolidin-2-yl]isothiazole
@<TRIPOS>ATOM
      1 C1         -5.7158    3.1815    4.0759 C.3       1 <0>        -0.0994
      2 C2         -4.7075    3.3482    2.9684 C.2       1 <0>         0.1093
      3 C3         -4.0378    2.2573    2.4603 C.2       1 <0>        -0.1400
      4 C4         -3.1425    2.5028    1.4659 C.2       1 <0>        -0.2364
      5 S1         -3.2765    4.2195    1.2722 S.3       1 <0>         0.2238
      6 N1         -4.4561    4.5330    2.4682 N.2       1 <0>        -0.3828
      7 C5         -2.2648    1.5310    0.7201 C.3       1 <0>         0.1273
      8 H1         -2.6460    0.5156    0.8293 H         1 <0>         0.1639
      9 C6         -0.8010    1.6170    1.2341 C.3       1 <0>        -0.1349
     10 C7         -0.0127    1.0858    0.0080 C.3       1 <0>        -0.1433
     11 C8         -0.8199    1.6271   -1.1906 C.3       1 <0>        -0.0109
     12 H2         -6.7018    3.0051    3.6461 H         1 <0>         0.0948
     13 H3         -5.4340    2.3327    4.6991 H         1 <0>         0.0912
     14 H4         -5.7408    4.0860    4.6837 H         1 <0>         0.0894
     15 H5         -4.2124    1.2591    2.8337 H         1 <0>         0.1694
     16 H6         -0.6504    0.9759    2.1027 H         1 <0>         0.1253
     17 H7         -0.5257    2.6474    1.4588 H         1 <0>         0.1027
     18 H8          0.0021   -0.0041    0.0020 H         1 <0>         0.1051
     19 H9          1.0021    1.4837    0.0005 H         1 <0>         0.1184
     20 H10        -0.3656    2.5470   -1.5586 H         1 <0>         0.1368
     21 H11        -0.8488    0.8816   -1.9853 H         1 <0>         0.1406
     22 N2         -2.1818    1.8980   -0.7058 N.4       1 <0>        -0.5204
     23 H12        -2.3948    2.8962   -0.8175 H         1 <0>         0.4293
     24 H13        -2.8561    1.3418   -1.2444 H         1 <0>         0.4411
@<TRIPOS>BOND
     1    1    2 1
     2    1   12 1
     3    1   13 1
     4    1   14 1
     5    2    6 2
     6    2    3 1
     7    3    4 2
     8    3   15 1
     9    4    5 1
    10    4    7 1
    11    5    6 1
    12    7    8 1
    13    7    9 1
    14    7   22 1
    15    9   10 1
    16    9   16 1
    17    9   17 1
    18   10   11 1
    19   10   18 1
    20   10   19 1
    21   11   20 1
    22   11   21 1
    23   11   22 1
    24   22   23 1
    25   22   24 1
@<TRIPOS>MOLECULE
ZINC01481833
   30    33     0     0     0
SMALL
USER_CHARGES
BLAH
@<TRIPOS>ATOM
      1 C1         -0.0126    1.0758    0.0080 C.ar      1 <0>         0.0966
      2 C2          1.1918    1.7831    0.0003 C.ar      1 <0>         0.0966
      3 N1          1.1984    3.0965    0.0072 N.ar      1 <0>        -0.4215
      4 C3          0.0401    3.7650    0.0224 C.ar      1 <0>         0.0813
      5 C4          0.0125    5.1704    0.0335 C.ar      1 <0>        -0.0410
      6 C5         -1.1805    5.8238    0.0448 C.ar      1 <0>        -0.1245
      7 C6         -2.3856    5.1162    0.0469 C.ar      1 <0>        -0.1247
      8 C7         -2.3961    3.7559    0.0387 C.ar      1 <0>        -0.0409
      9 C8         -1.1823    3.0472    0.0280 C.ar      1 <0>         0.0811
     10 N2         -1.1627    1.7099    0.0169 N.ar      1 <0>        -0.4215
     11 C9         -3.5341    6.1155    0.0591 C.3       1 <0>        -0.0599
     12 H1         -4.4250    5.7502   -0.4518 H         1 <0>         0.1398
     13 C10        -2.9031    7.3764   -0.5983 C.3       1 <0>        -0.1241
     14 C11        -1.4937    7.3136    0.0576 C.3       1 <0>        -0.0600
     15 H2         -0.7414    7.9138   -0.4542 H         1 <0>         0.1398
     16 C12        -1.6899    7.7219    1.5301 C.3       1 <0>         0.0036
     17 C13        -3.7942    6.4872    1.5314 C.3       1 <0>         0.0036
     18 H3          0.0021   -0.0041    0.0020 H         1 <0>         0.1876
     19 H4          2.1277    1.2443   -0.0119 H         1 <0>         0.1876
     20 H5          0.9363    5.7299    0.0333 H         1 <0>         0.1493
     21 H6         -3.3348    3.2218    0.0415 H         1 <0>         0.1492
     22 H7         -3.4357    8.2839   -0.3139 H         1 <0>         0.1008
     23 H8         -2.8440    7.2746   -1.6819 H         1 <0>         0.1034
     24 H9         -0.7194    7.7941    2.0210 H         1 <0>         0.1339
     25 H10        -2.1966    8.6858    1.5770 H         1 <0>         0.1409
     26 H11        -4.3303    5.6756    2.0234 H         1 <0>         0.1340
     27 H12        -4.3883    7.3999    1.5779 H         1 <0>         0.1409
     28 N3         -2.5008    6.6942    2.2200 N.4       1 <0>        -0.5192
     29 H13        -2.6789    6.9988    3.1842 H         1 <0>         0.4374
     30 H14        -1.9812    5.8087    2.2313 H         1 <0>         0.4298
@<TRIPOS>BOND
     1    1   10 ar
     2    1    2 ar
     3    1   18 1
     4    2    3 ar
     5    2   19 1
     6    3    4 ar
     7    4    9 ar
     8    4    5 ar
     9    5    6 ar
    10    5   20 1
    11    6   14 1
    12    6    7 ar
    13    7    8 ar
    14    7   11 1
    15    8    9 ar
    16    8   21 1
    17    9   10 ar
    18   11   12 1
    19   11   17 1
    20   11   13 1
    21   13   14 1
    22   13   22 1
    23   13   23 1
    24   14   15 1
    25   14   16 1
    26   16   24 1
    27   16   25 1
    28   16   28 1
    29   17   26 1
    30   17   27 1
    31   17   28 1
    32   28   29 1
    33   28   30 1
@<TRIPOS>MOLECULE
ZINC01675069
   21    22     0     0     0
SMALL
USER_CHARGES
3-(4,5-dihydro-1H-imidazol-2-yl)pyridine
@<TRIPOS>ATOM
      1 C1         -0.0167    1.3801    0.0096 C.ar      1 <0>        -0.1636
      2 C2          0.0021   -0.0041    0.0020 C.ar      1 <0>        -0.0173
      3 C3          1.2423   -0.6503   -0.0133 C.ar      1 <0>        -0.1965
      4 C4          2.4041    0.1210   -0.0202 C.ar      1 <0>         0.1749
      5 N1          2.3353    1.4360   -0.0130 N.ar      1 <0>        -0.4722
      6 C5          1.1800    2.0731    0.0019 C.ar      1 <0>         0.1670
      7 C6          1.3205   -2.1290   -0.0215 C.cat     1 <0>         0.5731
      8 C7          0.6738   -4.3009   -0.0265 C.3       1 <0>         0.0561
      9 C8          2.2147   -4.2543   -0.0405 C.3       1 <0>         0.0687
     10 N2          2.5093   -2.8116   -0.0418 N.pl3     1 <0>        -0.6648
     11 H1         -0.9560    1.9131    0.0170 H         1 <0>         0.1632
     12 H2         -0.9175   -0.5704    0.0074 H         1 <0>         0.1481
     13 H3          3.3688   -0.3645   -0.0321 H         1 <0>         0.1670
     14 H4          1.1687    3.1530    0.0075 H         1 <0>         0.1818
     15 H5          0.3152   -4.8061    0.8703 H         1 <0>         0.1290
     16 H6          0.2985   -4.7971   -0.9215 H         1 <0>         0.1290
     17 H7          2.6220   -4.7328    0.8501 H         1 <0>         0.1241
     18 H8          2.6055   -4.7264   -0.9420 H         1 <0>         0.1240
     19 H9          3.3933   -2.4124   -0.0529 H         1 <0>         0.4566
     20 N3          0.2701   -2.8854   -0.0156 N.pl3     1 <0>        -0.6210
     21 H10        -0.6997   -2.5485   -0.0048 H         1 <0>         0.4729
@<TRIPOS>BOND
     1    1    6 ar
     2    1    2 ar
     3    1   11 1
     4    2    3 ar
     5    2   12 1
     6    3    4 ar
     7    3    7 1
     8    4    5 ar
     9    4   13 1
    10    5    6 ar
    11    6   14 1
    12    7   10 1
    13    7   20 2
    14    8    9 1
    15    8   15 1
    16    8   16 1
    17    8   20 1
    18    9   10 1
    19    9   17 1
    20    9   18 1
    21   10   19 1
    22   20   21 1
@<TRIPOS>MOLECULE
ZINC13739967
   24    25     0     0     0
SMALL
USER_CHARGES
3-methyl-5-[(2R)-pyrrolidin-2-yl]isothiazole
@<TRIPOS>ATOM
      1 C1          1.1749    0.3966   -5.6891 C.3       1 <0>        -0.0994
      2 C2          1.0018    1.2646   -4.4694 C.2       1 <0>         0.1100
      3 C3          0.1183    0.9078   -3.4750 C.2       1 <0>        -0.1407
      4 C4          0.0279    1.7508   -2.4111 C.2       1 <0>        -0.2355
      5 S1          1.1575    2.9941   -2.8359 S.3       1 <0>         0.2211
      6 N1          1.6895    2.3721   -4.3359 N.2       1 <0>        -0.3824
      7 C5         -0.8371    1.6361   -1.1824 C.3       1 <0>         0.1283
      8 H1         -1.6936    0.9919   -1.3809 H         1 <0>         0.1643
      9 C6         -0.0127    1.0858    0.0080 C.3       1 <0>        -0.1364
     10 C7         -0.8154    1.6241    1.2216 C.3       1 <0>        -0.1421
     11 C8         -1.3035    3.0037    0.7307 C.3       1 <0>        -0.0114
     12 H2          0.4699    0.7082   -6.4598 H         1 <0>         0.0949
     13 H3          2.1928    0.4978   -6.0655 H         1 <0>         0.0894
     14 H4          0.9873   -0.6439   -5.4242 H         1 <0>         0.0913
     15 H5         -0.4723    0.0057   -3.5367 H         1 <0>         0.1695
     16 H6          0.0021   -0.0041    0.0020 H         1 <0>         0.1252
     17 H7          1.0003    1.4880    0.0005 H         1 <0>         0.1027
     18 H8         -1.6609    0.9730    1.4438 H         1 <0>         0.1052
     19 H9         -0.1702    1.7307    2.0937 H         1 <0>         0.1186
     20 H10        -0.6341    3.7838    1.0933 H         1 <0>         0.1367
     21 H11        -2.3168    3.1899    1.0868 H         1 <0>         0.1408
     22 N2         -1.2858    2.9693   -0.7395 N.4       1 <0>        -0.5205
     23 H12        -2.2298    3.1522   -1.0996 H         1 <0>         0.4413
     24 H13        -0.6400    3.6850   -1.0930 H         1 <0>         0.4290
@<TRIPOS>BOND
     1    1    2 1
     2    1   12 1
     3    1   13 1
     4    1   14 1
     5    2    6 2
     6    2    3 1
     7    3    4 2
     8    3   15 1
     9    4    5 1
    10    4    7 1
    11    5    6 1
    12    7    8 1
    13    7    9 1
    14    7   22 1
    15    9   10 1
    16    9   16 1
    17    9   17 1
    18   10   11 1
    19   10   18 1
    20   10   19 1
    21   11   20 1
    22   11   21 1
    23   11   22 1
    24   22   23 1
    25   22   24 1
@<TRIPOS>MOLECULE
ZINC13491700
   31    32     0     0     0
SMALL
USER_CHARGES
3-[(E)-2-(1-ethyl-4,5-dihydroimidazol-2-yl)vinyl]pyridine
@<TRIPOS>ATOM
      1 C1         -0.0187    1.5258    0.0104 C.3       1 <0>        -0.1810
      2 C2          0.0021   -0.0041    0.0020 C.3       1 <0>         0.1143
      3 N1         -1.3723   -0.5112    0.0124 N.pl3     1 <0>        -0.5577
      4 C3         -2.1925   -0.8031   -1.1749 C.3       1 <0>         0.0678
      5 C4         -3.5229   -1.2998   -0.5757 C.3       1 <0>         0.0611
      6 C5         -2.1144   -0.8012    1.1319 C.cat     1 <0>         0.5444
      7 C6         -1.6005   -0.6320    2.4975 C.2       1 <0>        -0.2163
      8 C7         -2.3794   -0.9347    3.5515 C.2       1 <0>         0.0523
      9 C8         -1.8640   -0.7649    4.9210 C.ar      1 <0>        -0.1702
     10 C9         -2.6654   -1.0767    6.0284 C.ar      1 <0>        -0.0318
     11 C10        -2.1333   -0.8997    7.2927 C.ar      1 <0>        -0.1728
     12 C11        -0.8399   -0.4254    7.4234 C.ar      1 <0>         0.1399
     13 N2         -0.1077   -0.1402    6.3636 N.ar      1 <0>        -0.4827
     14 C12        -0.5659   -0.2958    5.1390 C.ar      1 <0>         0.1417
     15 H1          1.0039    1.9031    0.0027 H         1 <0>         0.0927
     16 H2         -0.5459    1.8868   -0.8726 H         1 <0>         0.0689
     17 H3         -0.5289    1.8773    0.9072 H         1 <0>         0.0664
     18 H4          0.5123   -0.3556   -0.8948 H         1 <0>         0.1123
     19 H5          0.5293   -0.3651    0.8851 H         1 <0>         0.1042
     20 H6         -2.3501    0.1000   -1.7646 H         1 <0>         0.1179
     21 H7         -1.7275   -1.5803   -1.7815 H         1 <0>         0.1190
     22 H8         -4.3426   -0.6448   -0.8709 H         1 <0>         0.1241
     23 H9         -3.7220   -2.3255   -0.8863 H         1 <0>         0.1243
     24 H10        -0.5973   -0.2645    2.6552 H         1 <0>         0.1672
     25 H11        -3.3826   -1.3022    3.3937 H         1 <0>         0.1343
     26 H12        -3.6722   -1.4451    5.8976 H         1 <0>         0.1463
     27 H13        -2.7211   -1.1298    8.1690 H         1 <0>         0.1508
     28 H14        -0.4227   -0.2865    8.4098 H         1 <0>         0.1700
     29 H15         0.0654   -0.0555    4.2964 H         1 <0>         0.1609
     30 N3         -3.3120   -1.2352    0.8793 N.pl3     1 <0>        -0.6365
     31 H16        -4.0076   -1.4945    1.5887 H         1 <0>         0.4681
@<TRIPOS>BOND
     1    1    2 1
     2    1   15 1
     3    1   16 1
     4    1   17 1
     5    2    3 1
     6    2   18 1
     7    2   19 1
     8    3    6 1
     9    3    4 1
    10    4    5 1
    11    4   20 1
    12    4   21 1
    13    5   22 1
    14    5   23 1
    15    5   30 1
    16    6    7 1
    17    6   30 2
    18    7    8 2
    19    7   24 1
    20    8    9 1
    21    8   25 1
    22    9   14 ar
    23    9   10 ar
    24   10   11 ar
    25   10   26 1
    26   11   12 ar
    27   11   27 1
    28   12   13 ar
    29   12   28 1
    30   13   14 ar
    31   14   29 1
    32   30   31 1
@<TRIPOS>MOLECULE
ZINC04018167
   26    26     0     0     0
SMALL
USER_CHARGES
N,N-dimethyl-2-(3-pyridyl)ethanamine
@<TRIPOS>ATOM
      1 C1          5.1418    4.3316   -0.9080 C.3       1 <0>        -0.0478
      2 C2          4.3082    5.5892   -2.8017 C.3       1 <0>        -0.0428
      3 C3          2.7809    4.2906   -1.4439 C.3       1 <0>        -0.0034
      4 C4          2.3671    4.0041    0.0009 C.3       1 <0>        -0.0965
      5 C5          1.1060    3.1790    0.0081 C.ar      1 <0>        -0.1644
      6 C6          1.1732    1.7939    0.0005 C.ar      1 <0>        -0.0639
      7 C7         -0.0126    1.0758    0.0080 C.ar      1 <0>        -0.1661
      8 C8         -1.2139    1.7594    0.0173 C.ar      1 <0>         0.1170
      9 N1         -1.2397    3.0777    0.0299 N.ar      1 <0>        -0.4781
     10 C9         -0.1318    3.7931    0.0227 C.ar      1 <0>         0.1127
     11 H1          5.3036    3.4407   -1.5148 H         1 <0>         0.1234
     12 H2          6.0389    4.9505   -0.9247 H         1 <0>         0.1239
     13 H3          4.9225    4.0372    0.1183 H         1 <0>         0.1221
     14 H4          3.4829    6.2092   -3.1520 H         1 <0>         0.1222
     15 H5          5.2230    6.1814   -2.7783 H         1 <0>         0.1238
     16 H6          4.4398    4.7439   -3.4771 H         1 <0>         0.1228
     17 H7          2.9595    3.3496   -1.9641 H         1 <0>         0.1319
     18 H8          1.9850    4.8390   -1.9478 H         1 <0>         0.1314
     19 H9          2.1885    4.9452    0.5212 H         1 <0>         0.0989
     20 H10         3.1629    3.4557    0.5049 H         1 <0>         0.0971
     21 H11         2.1266    1.2867   -0.0113 H         1 <0>         0.1369
     22 H12         0.0021   -0.0041    0.0020 H         1 <0>         0.1443
     23 H13        -2.1422    1.2074    0.0190 H         1 <0>         0.1649
     24 H14        -0.1926    4.8713    0.0287 H         1 <0>         0.1562
     25 N2          4.0059    5.1177   -1.4339 N.4       1 <0>        -0.3986
     26 H15         3.8539    5.9314   -0.8265 H         1 <0>         0.4320
@<TRIPOS>BOND
     1    1   11 1
     2    1   12 1
     3    1   13 1
     4    1   25 1
     5    2   14 1
     6    2   15 1
     7    2   16 1
     8    2   25 1
     9    3    4 1
    10    3   17 1
    11    3   18 1
    12    3   25 1
    13    4    5 1
    14    4   19 1
    15    4   20 1
    16    5   10 ar
    17    5    6 ar
    18    6    7 ar
    19    6   21 1
    20    7    8 ar
    21    7   22 1
    22    8    9 ar
    23    8   23 1
    24    9   10 ar
    25   10   24 1
    26   25   26 1
@<TRIPOS>MOLECULE
ZINC27526089
   26    26     0     0     0
SMALL
USER_CHARGES
N,N-dimethyl-2-(3-pyridyl)acetamidine
@<TRIPOS>ATOM
      1 C1          4.2958    5.2994   -3.0623 C.3       1 <0>         0.0474
      2 N1          3.8996    5.0250   -1.6789 N.pl3     1 <0>        -0.5647
      3 C2          4.7061    5.5407   -0.5699 C.3       1 <0>         0.0519
      4 C3          2.7747    4.2863   -1.4222 C.cat     1 <0>         0.5226
      5 N2          2.0627    3.8311   -2.4011 N.pl3     1 <0>        -0.7659
      6 C4          2.3671    4.0041    0.0009 C.3       1 <0>        -0.0678
      7 C5          1.1060    3.1790    0.0081 C.ar      1 <0>        -0.2014
      8 C6          1.1732    1.7939    0.0005 C.ar      1 <0>        -0.0575
      9 C7         -0.0126    1.0758    0.0080 C.ar      1 <0>        -0.1645
     10 C8         -1.2139    1.7594    0.0173 C.ar      1 <0>         0.1286
     11 N3         -1.2397    3.0777    0.0299 N.ar      1 <0>        -0.4738
     12 C9         -0.1318    3.7931    0.0227 C.ar      1 <0>         0.1202
     13 H1          3.5737    4.8344   -3.7496 H         1 <0>         0.0820
     14 H2          5.2974    4.8834   -3.2462 H         1 <0>         0.1037
     15 H3          4.3138    6.3864   -3.2298 H         1 <0>         0.1040
     16 H4          4.2544    5.2347    0.3852 H         1 <0>         0.1009
     17 H5          4.7429    6.6388   -0.6229 H         1 <0>         0.0984
     18 H6          5.7265    5.1358   -0.6394 H         1 <0>         0.0979
     19 H7          1.1595    3.2380   -2.1950 H         1 <0>         0.4712
     20 H8          3.1703    3.4507    0.5094 H         1 <0>         0.1428
     21 H9          2.1869    4.9538    0.5259 H         1 <0>         0.1445
     22 H10         2.1266    1.2867   -0.0113 H         1 <0>         0.1440
     23 H11         0.0021   -0.0041    0.0020 H         1 <0>         0.1501
     24 H12        -2.1422    1.2074    0.0190 H         1 <0>         0.1701
     25 H13        -0.1926    4.8713    0.0287 H         1 <0>         0.1623
     26 H14         2.3603    4.0370   -3.4399 H         1 <0>         0.4530
@<TRIPOS>BOND
     1    1    2 1
     2    1   13 1
     3    1   14 1
     4    1   15 1
     5    2    3 1
     6    2    4 1
     7    3   16 1
     8    3   17 1
     9    3   18 1
    10    4    5 2
    11    4    6 1
    12    5   19 1
    13    5   26 1
    14    6    7 1
    15    6   20 1
    16    6   21 1
    17    7   12 ar
    18    7    8 ar
    19    8    9 ar
    20    8   22 1
    21    9   10 ar
    22    9   23 1
    23   10   11 ar
    24   10   24 1
    25   11   12 ar
    26   12   25 1
@<TRIPOS>MOLECULE
ZINC00066462
   25    26     0     0     0
SMALL
USER_CHARGES
3-(4,5-dihydro-1H-imidazol-2-ylmethoxy)pyridine
@<TRIPOS>ATOM
      1 C1          2.3319    1.4059   -0.0126 C.ar      1 <0>        -0.1262
      2 C2          2.3965    0.0216   -0.0212 C.ar      1 <0>        -0.0898
      3 C3          1.2048   -0.6957   -0.0136 C.ar      1 <0>         0.0576
      4 C4          0.0021   -0.0041    0.0020 C.ar      1 <0>         0.0291
      5 N1         -0.0158    1.3139    0.0093 N.ar      1 <0>        -0.4457
      6 C5          1.0957    2.0237    0.0025 C.ar      1 <0>         0.0860
      7 O1          1.2183   -2.0548   -0.0211 O.3       1 <0>        -0.3173
      8 C6         -0.0484   -2.7162   -0.0120 C.3       1 <0>         0.0707
      9 C7          0.1639   -4.2081   -0.0222 C.cat     1 <0>         0.5152
     10 C8          1.2165   -6.2074   -0.0433 C.3       1 <0>         0.0482
     11 C9         -0.3048   -6.4598   -0.0296 C.3       1 <0>         0.0690
     12 N2         -0.8677   -5.0988   -0.0167 N.pl3     1 <0>        -0.6590
     13 H1          3.2371    1.9950   -0.0185 H         1 <0>         0.1539
     14 H2          3.3487   -0.4877   -0.0337 H         1 <0>         0.1487
     15 H3         -0.9291   -0.5512    0.0080 H         1 <0>         0.1577
     16 H4          1.0391    3.1022    0.0088 H         1 <0>         0.1695
     17 H5         -0.5994   -2.4337    0.8850 H         1 <0>         0.1353
     18 H6         -0.6171   -2.4241   -0.8949 H         1 <0>         0.1353
     19 H7          1.6828   -6.6314    0.8460 H         1 <0>         0.1319
     20 H8          1.6654   -6.6240   -0.9450 H         1 <0>         0.1315
     21 H9         -0.5967   -7.0059    0.8674 H         1 <0>         0.1256
     22 H10        -0.6170   -6.9974   -0.9249 H         1 <0>         0.1258
     23 H11        -1.8114   -4.8746   -0.0066 H         1 <0>         0.4603
     24 N3          1.3337   -4.7395   -0.0422 N.pl3     1 <0>        -0.5963
     25 H12         2.2183   -4.2183   -0.0553 H         1 <0>         0.4828
@<TRIPOS>BOND
     1    1    6 ar
     2    1    2 ar
     3    1   13 1
     4    2    3 ar
     5    2   14 1
     6    3    4 ar
     7    3    7 1
     8    4    5 ar
     9    4   15 1
    10    5    6 ar
    11    6   16 1
    12    7    8 1
    13    8    9 1
    14    8   17 1
    15    8   18 1
    16    9   12 1
    17    9   24 2
    18   10   11 1
    19   10   19 1
    20   10   20 1
    21   10   24 1
    22   11   12 1
    23   11   21 1
    24   11   22 1
    25   12   23 1
    26   24   25 1
@<TRIPOS>MOLECULE
ZINC01442802
   20    20     0     0     0
SMALL
USER_CHARGES
2-(3-pyridyl)acetamidine
@<TRIPOS>ATOM
      1 C1         -0.5029    0.7675   -1.0806 C.ar      1 <0>        -0.1646
      2 C2          0.6316    1.4471   -0.6635 C.ar      1 <0>        -0.0570
      3 C3          0.5383    2.8122   -0.4404 C.ar      1 <0>        -0.2088
      4 C4         -0.6738    3.4459   -0.6396 C.ar      1 <0>         0.1211
      5 N1         -1.7324    2.7674   -1.0369 N.ar      1 <0>        -0.4734
      6 C5         -1.6789    1.4694   -1.2644 C.ar      1 <0>         0.1306
      7 C6          1.7430    3.5952    0.0142 C.3       1 <0>        -0.0738
      8 C7          2.4962    4.1017   -1.1888 C.cat     1 <0>         0.5462
      9 N2          3.6349    4.8447   -1.0212 N.pl3     1 <0>        -0.7763
     10 H1         -0.4666   -0.2962   -1.2640 H         1 <0>         0.1512
     11 H2          1.5658    0.9255   -0.5163 H         1 <0>         0.1456
     12 H3         -0.7550    4.5091   -0.4677 H         1 <0>         0.1639
     13 H4         -2.5656    0.9483   -1.5937 H         1 <0>         0.1710
     14 H5          1.4191    4.4399    0.6222 H         1 <0>         0.1484
     15 H6          2.3936    2.9505    0.6052 H         1 <0>         0.1466
     16 H7          2.4827    4.1160   -3.2162 H         1 <0>         0.4408
     17 H8          3.9563    5.0449   -0.1281 H         1 <0>         0.4477
     18 H9          4.1197    5.1707   -1.7956 H         1 <0>         0.4300
     19 N3          2.0089    3.7964   -2.3713 N.pl3     1 <0>        -0.7491
     20 H10         1.1515    3.2363   -2.4442 H         1 <0>         0.4600
@<TRIPOS>BOND
     1    1    6 ar
     2    1    2 ar
     3    1   10 1
     4    2    3 ar
     5    2   11 1
     6    3    4 ar
     7    3    7 1
     8    4    5 ar
     9    4   12 1
    10    5    6 ar
    11    6   13 1
    12    7    8 1
    13    7   14 1
    14    7   15 1
    15    8    9 1
    16    8   19 2
    17    9   17 1
    18    9   18 1
    19   16   19 1
    20   19   20 1
@<TRIPOS>MOLECULE
ZINC03831004
   53    55     0     0     0
SMALL
USER_CHARGES

@<TRIPOS>ATOM
      1 C1          0.0561    1.2782   -0.1578 C.3       1 <0>        -0.0599
      2 N1          0.0581   -0.1906   -0.1799 N.4       1 <0>        -0.3789
      3 C2          0.5141   -0.6580   -1.4945 C.3       1 <0>         0.0348
      4 H1         -0.1236   -0.2355   -2.2711 H         1 <0>         0.1392
      5 C3          0.4410   -2.1855   -1.5505 C.3       1 <0>        -0.1577
      6 C4          1.3383   -2.7743   -0.4581 C.3       1 <0>        -0.1317
      7 C5          0.9005   -2.2218    0.9014 C.3       1 <0>        -0.1475
      8 C6          0.9565   -0.6930    0.8665 C.3       1 <0>         0.0330
      9 H2          1.9763   -0.3720    0.6541 H         1 <0>         0.1427
     10 C7          0.5201   -0.1362    2.2231 C.3       1 <0>        -0.1963
     11 C8          1.5069   -0.5590    3.2806 C.2       1 <0>         0.4114
     12 O1          2.4380   -1.2786    2.9881 O.2       1 <0>        -0.4398
     13 C9          1.3406   -0.0985    4.6685 C.ar      1 <0>        -0.1847
     14 C10         0.2647    0.7267    5.0110 C.ar      1 <0>        -0.0758
     15 C11         0.1155    1.1536    6.3137 C.ar      1 <0>        -0.1303
     16 C12         1.0269    0.7674    7.2810 C.ar      1 <0>        -0.0737
     17 C13         2.0945   -0.0488    6.9498 C.ar      1 <0>        -0.1277
     18 C14         2.2543   -0.4887    5.6528 C.ar      1 <0>        -0.0531
     19 C15         1.9590   -0.2092   -1.7217 C.3       1 <0>        -0.1792
     20 C16         2.3881   -0.5725   -3.1446 C.3       1 <0>         0.1619
     21 H3          1.6624   -0.1769   -3.8552 H         1 <0>         0.1169
     22 C17         3.7437    0.0219   -3.4277 C.ar      1 <0>        -0.1337
     23 C18         4.8881   -0.6589   -3.0564 C.ar      1 <0>        -0.1107
     24 C19         6.1316   -0.1137   -3.3161 C.ar      1 <0>        -0.1124
     25 C20         6.2307    1.1121   -3.9474 C.ar      1 <0>        -0.1081
     26 C21         5.0863    1.7924   -4.3195 C.ar      1 <0>        -0.1138
     27 C22         3.8429    1.2452   -4.0637 C.ar      1 <0>        -0.1090
     28 O2          2.4550   -1.9941   -3.2736 O.3       1 <0>        -0.5438
     29 H4          1.0819    1.6437   -0.2064 H         1 <0>         0.1229
     30 H5         -0.5044    1.6537   -1.0139 H         1 <0>         0.1280
     31 H6         -0.4106    1.6271    0.7634 H         1 <0>         0.1254
     32 H7         -0.5879   -2.5068   -1.3887 H         1 <0>         0.0835
     33 H8          0.7816   -2.5306   -2.5266 H         1 <0>         0.1438
     34 H9          1.2462   -3.8604   -0.4569 H         1 <0>         0.0957
     35 H10         2.3748   -2.4955   -0.6482 H         1 <0>         0.0770
     36 H11        -0.1189   -2.5439    1.1140 H         1 <0>         0.0852
     37 H12         1.5696   -2.5929    1.6777 H         1 <0>         0.1245
     38 H13         0.4836    0.9521    2.1744 H         1 <0>         0.1224
     39 H14        -0.4682   -0.5220    2.4733 H         1 <0>         0.1244
     40 H15        -0.4471    1.0292    4.2572 H         1 <0>         0.1277
     41 H16        -0.7146    1.7912    6.5797 H         1 <0>         0.1343
     42 H17         0.9046    1.1050    8.2995 H         1 <0>         0.1346
     43 H18         2.8017   -0.3456    7.7102 H         1 <0>         0.1361
     44 H19         3.0853   -1.1292    5.3968 H         1 <0>         0.1367
     45 H20         2.0300    0.8699   -1.5852 H         1 <0>         0.0973
     46 H21         2.6117   -0.7096   -1.0064 H         1 <0>         0.0978
     47 H22         4.8107   -1.6166   -2.5632 H         1 <0>         0.1192
     48 H23         7.0257   -0.6452   -3.0254 H         1 <0>         0.1282
     49 H24         7.2022    1.5384   -4.1496 H         1 <0>         0.1285
     50 H25         5.1637    2.7502   -4.8124 H         1 <0>         0.1284
     51 H26         2.9489    1.7750   -4.3577 H         1 <0>         0.1236
     52 H27         3.0826   -2.4147   -2.6701 H         1 <0>         0.3793
     53 H28        -0.8769   -0.5298   -0.0103 H         1 <0>         0.4232
@<TRIPOS>BOND
     1    1    2 1
     2    1   29 1
     3    1   30 1
     4    1   31 1
     5    2    8 1
     6    2    3 1
     7    2   53 1
     8    3    4 1
     9    3    5 1
    10    3   19 1
    11    5    6 1
    12    5   32 1
    13    5   33 1
    14    6    7 1
    15    6   34 1
    16    6   35 1
    17    7    8 1
    18    7   36 1
    19    7   37 1
    20    8    9 1
    21    8   10 1
    22   10   11 1
    23   10   38 1
    24   10   39 1
    25   11   12 2
    26   11   13 1
    27   13   18 ar
    28   13   14 ar
    29   14   15 ar
    30   14   40 1
    31   15   16 ar
    32   15   41 1
    33   16   17 ar
    34   16   42 1
    35   17   18 ar
    36   17   43 1
    37   18   44 1
    38   19   20 1
    39   19   45 1
    40   19   46 1
    41   20   21 1
    42   20   22 1
    43   20   28 1
    44   22   27 ar
    45   22   23 ar
    46   23   24 ar
    47   23   47 1
    48   24   25 ar
    49   24   48 1
    50   25   26 ar
    51   25   49 1
    52   26   27 ar
    53   26   50 1
    54   27   51 1
    55   28   52 1
@<TRIPOS>MOLECULE
ZINC03978083
   87    93     0     0     0
SMALL
USER_CHARGES
dimethoxy-trimethyl-BLAHdiol
@<TRIPOS>ATOM
      1 C1         -0.0415   12.4502    3.6774 C.3       1 <0>        -0.0505
      2 C2          1.2201   13.6546    2.0577 C.3       1 <0>        -0.0050
      3 C3          2.6133   14.0835    1.6120 C.3       1 <0>        -0.1036
      4 C4          3.5806   12.9382    1.5903 C.ar      1 <0>        -0.0707
      5 C5          4.8518   13.1407    1.0756 C.ar      1 <0>        -0.1671
      6 C6          5.7437   12.0981    0.9846 C.ar      1 <0>         0.1294
      7 C7          5.3950   10.8016    1.4174 C.ar      1 <0>         0.2168
      8 C8          4.1325   10.6176    1.9562 C.ar      1 <0>        -0.1537
      9 C9          3.2399   11.6760    2.0415 C.ar      1 <0>        -0.1248
     10 C10         1.8694   11.4386    2.6194 C.3       1 <0>         0.0942
     11 H1          1.9514   10.7054    3.4188 H         1 <0>         0.1418
     12 C11         0.9415   10.9363    1.5188 C.3       1 <0>        -0.1063
     13 C12         1.4395    9.5679    1.1030 C.ar      1 <0>        -0.0968
     14 C13         1.6612    8.6147    2.0807 C.ar      1 <0>        -0.0977
     15 C14         2.1859    7.3881    1.7356 C.ar      1 <0>        -0.1692
     16 C15         2.4903    7.1165    0.4091 C.ar      1 <0>         0.1463
     17 C16         2.2208    8.0713   -0.5713 C.ar      1 <0>        -0.1149
     18 C17         1.6970    9.2966   -0.2230 C.ar      1 <0>        -0.0699
     19 O1          3.0155    5.9593    0.0298 O.3       1 <0>        -0.2897
     20 C18         2.6574    4.6904    0.1608 C.ar      1 <0>         0.1978
     21 C19         3.7110    3.7568    0.1819 C.ar      1 <0>        -0.1817
     22 C20         3.4071    2.4185    0.2130 C.ar      1 <0>        -0.0133
     23 C21         2.1001    1.9831    0.3321 C.ar      1 <0>        -0.2156
     24 C22         1.0651    2.9016    0.3646 C.ar      1 <0>         0.1729
     25 C23         1.3506    4.2591    0.2443 C.ar      1 <0>         0.0085
     26 O2          0.3313    5.1617    0.2066 O.3       1 <0>        -0.4656
     27 O3         -0.2185    2.4800    0.4909 O.3       1 <0>        -0.2931
     28 C24        -0.4302    1.0718    0.6095 C.3       1 <0>         0.0185
     29 C25         4.5277    1.4111    0.1175 C.3       1 <0>        -0.1053
     30 C26         5.6246    2.0740   -0.7194 C.3       1 <0>        -0.0048
     31 N1          6.1286    3.2693   -0.0253 N.4       1 <0>        -0.2564
     32 C27         5.1305    4.2919    0.1698 C.3       1 <0>         0.1063
     33 H2          5.1932    5.0047   -0.6783 H         1 <0>         0.1452
     34 C28         5.2956    5.1019    1.4499 C.3       1 <0>        -0.1034
     35 C29         6.2873    6.2304    1.3733 C.ar      1 <0>        -0.0595
     36 C30         7.6471    6.0008    1.3989 C.ar      1 <0>        -0.1541
     37 C31         8.5309    7.0670    1.3243 C.ar      1 <0>        -0.0960
     38 C32         8.0586    8.3600    1.2646 C.ar      1 <0>         0.0905
     39 C33         6.6692    8.6168    1.2884 C.ar      1 <0>         0.2182
     40 C34         5.8097    7.5340    1.3189 C.ar      1 <0>        -0.1953
     41 O4          6.3087    9.8770    1.2673 O.3       1 <0>        -0.3438
     42 O5          8.9309    9.4025    1.1894 O.3       1 <0>        -0.4754
     43 C35         7.1920    3.8283   -0.8987 C.3       1 <0>        -0.0601
     44 C36         6.7691    2.8246    1.2181 C.3       1 <0>        -0.0658
     45 O6          6.9903   12.3135    0.4769 O.3       1 <0>        -0.2893
     46 C37         7.3000   13.6448    0.0602 C.3       1 <0>         0.0183
     47 H3         -0.0382   11.6480    4.4153 H         1 <0>         0.1272
     48 H4         -0.4556   13.3538    4.1249 H         1 <0>         0.1334
     49 H5         -0.6510   12.1556    2.8232 H         1 <0>         0.1207
     50 H6          0.6645   14.5235    2.4119 H         1 <0>         0.1393
     51 H7          0.6859   13.1667    1.2604 H         1 <0>         0.1314
     52 H8          2.9809   14.8513    2.2939 H         1 <0>         0.1085
     53 H9          2.5467   14.5057    0.6088 H         1 <0>         0.1240
     54 H10         5.1406   14.1252    0.7431 H         1 <0>         0.1516
     55 H11         3.8369    9.6386    2.3013 H         1 <0>         0.1387
     56 H12         0.9997   11.5922    0.6473 H         1 <0>         0.1059
     57 H13        -0.0855   10.8256    1.8409 H         1 <0>         0.1134
     58 H14         1.4294    8.8332    3.1118 H         1 <0>         0.1327
     59 H15         2.3611    6.6403    2.4958 H         1 <0>         0.1318
     60 H16         2.4152    7.8498   -1.6103 H         1 <0>         0.1396
     61 H17         1.5062   10.0362   -0.9843 H         1 <0>         0.1398
     62 H18         1.8840    0.9220    0.3975 H         1 <0>         0.1522
     63 H19         0.0676    5.4939    1.0756 H         1 <0>         0.3828
     64 H20         0.0886    0.6995    1.4928 H         1 <0>         0.0646
     65 H21        -1.4975    0.8714    0.7035 H         1 <0>         0.1150
     66 H22        -0.0431    0.5703   -0.2775 H         1 <0>         0.0659
     67 H23         4.1636    0.5237   -0.4060 H         1 <0>         0.1275
     68 H24         4.8712    1.1299    1.1008 H         1 <0>         0.1142
     69 H25         5.2237    2.3646   -1.6920 H         1 <0>         0.1330
     70 H26         6.4495    1.3705   -0.8644 H         1 <0>         0.1423
     71 H27         5.4652    4.5011    2.3330 H         1 <0>         0.1065
     72 H28         4.3097    5.5855    1.6516 H         1 <0>         0.1031
     73 H29         8.0538    5.0057    1.4738 H         1 <0>         0.1324
     74 H30         9.5968    6.8741    1.3104 H         1 <0>         0.1509
     75 H31         4.7440    7.7029    1.3064 H         1 <0>         0.1295
     76 H32         9.2062    9.7479    2.0496 H         1 <0>         0.3952
     77 H33         7.6352    4.7008   -0.4185 H         1 <0>         0.1263
     78 H34         7.9614    3.0739   -1.0627 H         1 <0>         0.1300
     79 H35         6.7599    4.1206   -1.8557 H         1 <0>         0.1238
     80 H36         6.0344    2.3186    1.8445 H         1 <0>         0.1233
     81 H37         7.5812    2.1366    0.9826 H         1 <0>         0.1324
     82 H38         7.1675    3.6882    1.7506 H         1 <0>         0.1256
     83 H39         8.3200   13.6777   -0.3226 H         1 <0>         0.1131
     84 H40         6.6075   13.9504   -0.7242 H         1 <0>         0.0613
     85 H41         7.2086   14.3219    0.9095 H         1 <0>         0.0618
     86 N2          1.3268   12.6990    3.1646 N.4       1 <0>        -0.3935
     87 H42         1.9331   13.0640    3.9086 H         1 <0>         0.4369
@<TRIPOS>BOND
     1    1   47 1
     2    1   48 1
     3    1   49 1
     4    1   86 1
     5    2    3 1
     6    2   50 1
     7    2   51 1
     8    2   86 1
     9    3    4 1
    10    3   52 1
    11    3   53 1
    12    4    9 ar
    13    4    5 ar
    14    5    6 ar
    15    5   54 1
    16    6    7 ar
    17    6   45 1
    18    7   41 1
    19    7    8 ar
    20    8    9 ar
    21    8   55 1
    22    9   10 1
    23   10   11 1
    24   10   12 1
    25   10   86 1
    26   12   13 1
    27   12   56 1
    28   12   57 1
    29   13   18 ar
    30   13   14 ar
    31   14   15 ar
    32   14   58 1
    33   15   16 ar
    34   15   59 1
    35   16   17 ar
    36   16   19 1
    37   17   18 ar
    38   17   60 1
    39   18   61 1
    40   19   20 1
    41   20   25 ar
    42   20   21 ar
    43   21   32 1
    44   21   22 ar
    45   22   23 ar
    46   22   29 1
    47   23   24 ar
    48   23   62 1
    49   24   25 ar
    50   24   27 1
    51   25   26 1
    52   26   63 1
    53   27   28 1
    54   28   64 1
    55   28   65 1
    56   28   66 1
    57   29   30 1
    58   29   67 1
    59   29   68 1
    60   30   31 1
    61   30   69 1
    62   30   70 1
    63   31   32 1
    64   31   43 1
    65   31   44 1
    66   32   33 1
    67   32   34 1
    68   34   35 1
    69   34   71 1
    70   34   72 1
    71   35   40 ar
    72   35   36 ar
    73   36   37 ar
    74   36   73 1
    75   37   38 ar
    76   37   74 1
    77   38   39 ar
    78   38   42 1
    79   39   40 ar
    80   39   41 1
    81   40   75 1
    82   42   76 1
    83   43   77 1
    84   43   78 1
    85   43   79 1
    86   44   80 1
    87   44   81 1
    88   44   82 1
    89   45   46 1
    90   46   83 1
    91   46   84 1
    92   46   85 1
    93   86   87 1
@<TRIPOS>MOLECULE
ZINC28096944
   32    33     0     0     0
SMALL
USER_CHARGES
(2S)-2-(4-methoxyphenyl)-1-methyl-pyrrolidine
@<TRIPOS>ATOM
      1 C1          1.1852    3.2457   -0.4557 C.3       1 <0>        -0.0550
      2 N1          1.0862    2.0964    0.4538 N.4       1 <0>        -0.4036
      3 C2          0.7084    2.5297    1.8159 C.3       1 <0>        -0.0104
      4 C3         -0.1622    1.3750    2.3712 C.3       1 <0>        -0.1446
      5 C4         -0.9480    0.9390    1.1066 C.3       1 <0>        -0.1317
      6 C5          0.0832    1.1279   -0.0258 C.3       1 <0>         0.0888
      7 H1          0.5891    0.1893   -0.2960 H         1 <0>         0.1428
      8 C6         -0.5972    1.6630   -1.2594 C.ar      1 <0>        -0.1886
      9 C7         -1.4092    2.7786   -1.1708 C.ar      1 <0>        -0.0643
     10 C8         -2.0295    3.2744   -2.3011 C.ar      1 <0>        -0.2070
     11 C9         -1.8463    2.6452   -3.5239 C.ar      1 <0>         0.1641
     12 C10        -1.0357    1.5226   -3.6092 C.ar      1 <0>        -0.1481
     13 C11        -0.4131    1.0341   -2.4769 C.ar      1 <0>        -0.0480
     14 O1         -2.4596    3.1280   -4.6364 O.3       1 <0>        -0.3069
     15 C12        -3.2795    4.2871   -4.4740 C.3       1 <0>         0.0177
     16 H2          1.9388    3.9508   -0.0749 H         1 <0>         0.1196
     17 H3          0.2094    3.7497   -0.5172 H         1 <0>         0.1236
     18 H4          1.4816    2.8972   -1.4560 H         1 <0>         0.1226
     19 H5          1.6167    2.6812    2.4176 H         1 <0>         0.1331
     20 H6          0.1456    3.4730    1.7577 H         1 <0>         0.1250
     21 H7          0.4894    0.5842    2.7711 H         1 <0>         0.0997
     22 H8         -0.8098    1.7574    3.1740 H         1 <0>         0.1152
     23 H9         -1.2680   -0.1077    1.2165 H         1 <0>         0.1154
     24 H10        -1.8322    1.5818    0.9846 H         1 <0>         0.1007
     25 H11        -1.5549    3.2655   -0.2178 H         1 <0>         0.1289
     26 H12        -2.6601    4.1485   -2.2322 H         1 <0>         0.1401
     27 H13        -0.8912    1.0312   -4.5600 H         1 <0>         0.1442
     28 H14         0.2184    0.1604   -2.5428 H         1 <0>         0.1391
     29 H15        -3.7119    4.5693   -5.4453 H         1 <0>         0.1132
     30 H16        -2.6688    5.1172   -4.0894 H         1 <0>         0.0622
     31 H17        -4.0889    4.0669   -3.7623 H         1 <0>         0.0632
     32 H18         2.0780    1.6212    0.4747 H         1 <0>         0.4489
@<TRIPOS>BOND
     1    1    2 1
     2    1   16 1
     3    1   17 1
     4    1   18 1
     5    2    6 1
     6    2    3 1
     7    2   32 1
     8    3    4 1
     9    3   19 1
    10    3   20 1
    11    4    5 1
    12    4   21 1
    13    4   22 1
    14    5    6 1
    15    5   23 1
    16    5   24 1
    17    6    7 1
    18    6    8 1
    19    8   13 ar
    20    8    9 ar
    21    9   10 ar
    22    9   25 1
    23   10   11 ar
    24   10   26 1
    25   11   12 ar
    26   11   14 1
    27   12   13 ar
    28   12   27 1
    29   13   28 1
    30   14   15 1
    31   15   29 1
    32   15   30 1
    33   15   31 1
@<TRIPOS>MOLECULE
ZINC28096950
   32    33     0     0     0
SMALL
USER_CHARGES
(2R)-2-(4-methoxyphenyl)-1-methyl-pyrrolidine
@<TRIPOS>ATOM
      1 C1          1.5770    3.3105   -0.4858 C.3       1 <0>        -0.0507
      2 N1          1.4135    1.9334   -0.0011 N.4       1 <0>        -0.4127
      3 C2         -0.0189    1.5396    0.0105 C.3       1 <0>         0.0004
      4 C3          0.0021   -0.0041    0.0020 C.3       1 <0>        -0.1468
      5 C4          1.3640   -0.3831   -0.6154 C.3       1 <0>        -0.1343
      6 C5          2.0513    0.9634   -0.9281 C.3       1 <0>         0.0964
      7 H1          1.9436    1.2877   -1.9737 H         1 <0>         0.1464
      8 C6          3.5316    0.8725   -0.6607 C.ar      1 <0>        -0.1808
      9 C7          4.0078    0.9880    0.6322 C.ar      1 <0>        -0.0801
     10 C8          5.3638    0.8993    0.8806 C.ar      1 <0>        -0.1976
     11 C9          6.2490    0.7059   -0.1699 C.ar      1 <0>         0.1580
     12 C10         5.7692    0.5959   -1.4670 C.ar      1 <0>        -0.1401
     13 C11         4.4118    0.6792   -1.7094 C.ar      1 <0>        -0.0482
     14 O1          7.5840    0.6248    0.0711 O.3       1 <0>        -0.3070
     15 C12         8.0064    0.7466    1.4308 C.3       1 <0>         0.0179
     16 H2          1.0966    4.0063    0.2178 H         1 <0>         0.1239
     17 H3          1.1084    3.4087   -1.4762 H         1 <0>         0.1186
     18 H4          2.6484    3.5476   -0.5620 H         1 <0>         0.1225
     19 H5         -0.5012    1.9376    0.9155 H         1 <0>         0.1317
     20 H6         -0.5185    1.9472   -0.8807 H         1 <0>         0.1310
     21 H7         -0.0941   -0.3778    1.0321 H         1 <0>         0.0988
     22 H8         -0.8361   -0.3789   -0.6038 H         1 <0>         0.1113
     23 H9          1.9428   -0.9752    0.1087 H         1 <0>         0.1017
     24 H10         1.2009   -0.9765   -1.5272 H         1 <0>         0.1134
     25 H11         3.3187    1.1437    1.4491 H         1 <0>         0.1191
     26 H12         5.7349    0.9849    1.8913 H         1 <0>         0.1405
     27 H13         6.4564    0.4457   -2.2865 H         1 <0>         0.1452
     28 H14         4.0377    0.5937   -2.7189 H         1 <0>         0.1403
     29 H15         9.1020    0.6633    1.4832 H         1 <0>         0.1130
     30 H16         7.5487   -0.0543    2.0301 H         1 <0>         0.0627
     31 H17         7.6936    1.7245    1.8257 H         1 <0>         0.0620
     32 H18         1.8655    1.9239    1.0017 H         1 <0>         0.4434
@<TRIPOS>BOND
     1    1    2 1
     2    1   16 1
     3    1   17 1
     4    1   18 1
     5    2    6 1
     6    2    3 1
     7    2   32 1
     8    3    4 1
     9    3   19 1
    10    3   20 1
    11    4    5 1
    12    4   21 1
    13    4   22 1
    14    5    6 1
    15    5   23 1
    16    5   24 1
    17    6    7 1
    18    6    8 1
    19    8   13 ar
    20    8    9 ar
    21    9   10 ar
    22    9   25 1
    23   10   11 ar
    24   10   26 1
    25   11   12 ar
    26   11   14 1
    27   12   13 ar
    28   12   27 1
    29   13   28 1
    30   14   15 1
    31   15   29 1
    32   15   30 1
    33   15   31 1
@<TRIPOS>MOLECULE
ZINC01726143
   28    29     0     0     0
SMALL
USER_CHARGES
2-(4-bromophenyl)-1-methyl-pyrrolidine
@<TRIPOS>ATOM
      1 C1          1.1853    3.2474   -0.4535 C.3       1 <0>        -0.0455
      2 C2          0.7075    2.5296    1.8174 C.3       1 <0>        -0.0101
      3 C3         -0.1630    1.3742    2.3713 C.3       1 <0>        -0.1445
      4 C4         -0.9479    0.9388    1.1060 C.3       1 <0>        -0.1360
      5 C5          0.0839    1.1289   -0.0257 C.3       1 <0>         0.0733
      6 H1          0.5659    0.1777   -0.2517 H         1 <0>         0.1446
      7 C6         -0.5961    1.6646   -1.2593 C.ar      1 <0>        -0.1279
      8 C7         -1.4080    2.7800   -1.1715 C.ar      1 <0>        -0.1027
      9 C8         -2.0280    3.2746   -2.3035 C.ar      1 <0>        -0.0851
     10 C9         -1.8444    2.6471   -3.5225 C.ar      1 <0>        -0.0674
     11 C10        -1.0361    1.5279   -3.6089 C.ar      1 <0>        -0.0832
     12 C11        -0.4123    1.0371   -2.4773 C.ar      1 <0>        -0.0840
     13 Br1        -2.6976    3.3193   -5.0704 Br        1 <0>        -0.0165
     14 H2          0.2671    3.8324   -0.4007 H         1 <0>         0.1241
     15 H3          2.0304    3.8703   -0.1603 H         1 <0>         0.1223
     16 H4          1.3321    2.8928   -1.4737 H         1 <0>         0.1222
     17 H5          1.5965    2.6640    2.4337 H         1 <0>         0.1365
     18 H6          0.1303    3.4533    1.7758 H         1 <0>         0.1318
     19 H7          0.4593    0.5605    2.7440 H         1 <0>         0.1008
     20 H8         -0.8396    1.7324    3.1472 H         1 <0>         0.1184
     21 H9         -1.8142    1.5816    0.9496 H         1 <0>         0.1016
     22 H10        -1.2502   -0.1058    1.1804 H         1 <0>         0.1157
     23 H11        -1.5546    3.2675   -0.2190 H         1 <0>         0.1366
     24 H12        -2.6587    4.1487   -2.2356 H         1 <0>         0.1460
     25 H13        -0.8921    1.0378   -4.5604 H         1 <0>         0.1470
     26 H14         0.2191    0.1635   -2.5447 H         1 <0>         0.1424
     27 N1          1.0929    2.0820    0.4642 N.4       1 <0>        -0.3940
     28 H15         2.0070    1.6164    0.5078 H         1 <0>         0.4336
@<TRIPOS>BOND
     1    1   14 1
     2    1   15 1
     3    1   16 1
     4    1   27 1
     5    2    3 1
     6    2   17 1
     7    2   18 1
     8    2   27 1
     9    3    4 1
    10    3   19 1
    11    3   20 1
    12    4    5 1
    13    4   21 1
    14    4   22 1
    15    5    6 1
    16    5    7 1
    17    5   27 1
    18    7   12 ar
    19    7    8 ar
    20    8    9 ar
    21    8   23 1
    22    9   10 ar
    23    9   24 1
    24   10   11 ar
    25   10   13 1
    26   11   12 ar
    27   11   25 1
    28   12   26 1
    29   27   28 1
@<TRIPOS>MOLECULE
ZINC05052973
   28    29     0     0     0
SMALL
USER_CHARGES
2-(4-bromophenyl)-1-methyl-pyrrolidine
@<TRIPOS>ATOM
      1 C1         -1.5984    0.5837    1.7789 C.3       1 <0>        -0.0377
      2 C2          0.4572    1.8162    2.2074 C.3       1 <0>        -0.0081
      3 C3          1.5695    2.4238    1.3162 C.3       1 <0>        -0.1481
      4 C4          1.4278    1.6301   -0.0028 C.3       1 <0>        -0.1388
      5 C5         -0.0127    1.0858    0.0080 C.3       1 <0>         0.0764
      6 H1          0.0021   -0.0041    0.0020 H         1 <0>         0.1480
      7 C6         -0.7631    1.5954   -1.1954 C.ar      1 <0>        -0.1220
      8 C7         -1.2866    2.8749   -1.1925 C.ar      1 <0>        -0.1204
      9 C8         -1.9707    3.3444   -2.2979 C.ar      1 <0>        -0.0744
     10 C9         -2.1407    2.5302   -3.4031 C.ar      1 <0>        -0.0734
     11 C10        -1.6213    1.2481   -3.4035 C.ar      1 <0>        -0.0760
     12 C11        -0.9327    0.7813   -2.2997 C.ar      1 <0>        -0.0825
     13 Br1        -3.0834    3.1692   -4.9127 Br        1 <0>        -0.0161
     14 H2         -1.0689   -0.3431    1.9997 H         1 <0>         0.1219
     15 H3         -2.0539    0.9682    2.6915 H         1 <0>         0.1262
     16 H4         -2.3748    0.3910    1.0386 H         1 <0>         0.1225
     17 H5          0.7908    0.8796    2.6541 H         1 <0>         0.1367
     18 H6          0.1541    2.5230    2.9799 H         1 <0>         0.1399
     19 H7          2.5515    2.2614    1.7606 H         1 <0>         0.1190
     20 H8          1.3919    3.4860    1.1482 H         1 <0>         0.0981
     21 H9          2.1428    0.8077   -0.0281 H         1 <0>         0.1088
     22 H10         1.5770    2.2886   -0.8585 H         1 <0>         0.1070
     23 H11        -1.1574    3.5091   -0.3279 H         1 <0>         0.1282
     24 H12        -2.3764    4.3454   -2.2970 H         1 <0>         0.1466
     25 H13        -1.7541    0.6119   -4.2660 H         1 <0>         0.1481
     26 H14        -0.5275   -0.2198   -2.2998 H         1 <0>         0.1440
     27 N1         -0.6267    1.5824    1.2402 N.4       1 <0>        -0.3988
     28 H15        -1.1193    2.4634    1.0516 H         1 <0>         0.4251
@<TRIPOS>BOND
     1    1   14 1
     2    1   15 1
     3    1   16 1
     4    1   27 1
     5    2    3 1
     6    2   17 1
     7    2   18 1
     8    2   27 1
     9    3    4 1
    10    3   19 1
    11    3   20 1
    12    4    5 1
    13    4   21 1
    14    4   22 1
    15    5    6 1
    16    5    7 1
    17    5   27 1
    18    7   12 ar
    19    7    8 ar
    20    8    9 ar
    21    8   23 1
    22    9   10 ar
    23    9   24 1
    24   10   11 ar
    25   10   13 1
    26   11   12 ar
    27   11   25 1
    28   12   26 1
    29   27   28 1
@<TRIPOS>MOLECULE
ZINC03990028
   36    38     0     0     0
SMALL
USER_CHARGES

@<TRIPOS>ATOM
      1 C1         -0.0169    1.3919    0.0097 C.ar      1 <0>        -0.0399
      2 C2          1.1695    2.0948    0.0021 C.ar      1 <0>        -0.1145
      3 C3          2.3782    1.4186   -0.0130 C.ar      1 <0>        -0.0027
      4 C4          2.4034    0.0338   -0.0212 C.ar      1 <0>        -0.1172
      5 C5          1.2236   -0.6800   -0.0137 C.ar      1 <0>        -0.0734
      6 C6          0.0021   -0.0041    0.0020 C.ar      1 <0>        -0.1487
      7 C7         -1.2659   -0.7632    0.0100 C.2       1 <0>         0.5690
      8 O1         -2.3281   -0.1722    0.0234 O.2       1 <0>        -0.5168
      9 N1         -1.2445   -2.1108    0.0026 N.am      1 <0>        -0.7311
     10 C8         -2.5014   -2.8634    0.0106 C.3       1 <0>         0.1375
     11 H1         -3.2413   -2.3324    0.6096 H         1 <0>         0.1274
     12 C9         -3.0163   -3.0169   -1.4224 C.3       1 <0>        -0.0229
     13 N2         -3.1160   -4.4364   -1.7700 N.4       1 <0>        -0.3746
     14 C10        -1.8001   -5.0767   -1.7057 C.3       1 <0>        -0.0089
     15 C11        -1.2448   -4.9915   -0.2822 C.3       1 <0>        -0.1415
     16 C12        -2.2624   -4.2572    0.6057 C.3       1 <0>        -0.1095
     17 C13        -3.5854   -5.0334    0.5667 C.3       1 <0>        -0.1335
     18 C14        -4.0653   -5.1181   -0.8869 C.3       1 <0>        -0.0096
     19 Cl1         3.8676    2.3104   -0.0225 Cl        1 <0>        -0.0448
     20 H2         -0.9587    1.9202    0.0260 H         1 <0>         0.1488
     21 H3          1.1561    3.1747    0.0077 H         1 <0>         0.1477
     22 H4          3.3489   -0.4880   -0.0337 H         1 <0>         0.1449
     23 H5          1.2444   -1.7598   -0.0205 H         1 <0>         0.1311
     24 H6         -0.3969   -2.5824   -0.0080 H         1 <0>         0.4058
     25 H7         -3.9998   -2.5544   -1.5048 H         1 <0>         0.1406
     26 H8         -2.3279   -2.5240   -2.1088 H         1 <0>         0.1336
     27 H9         -1.8926   -6.1234   -1.9957 H         1 <0>         0.1342
     28 H10        -1.1186   -4.5723   -2.3906 H         1 <0>         0.1296
     29 H11        -1.0800   -5.9964    0.1064 H         1 <0>         0.1089
     30 H12        -0.3037   -4.4416   -0.2896 H         1 <0>         0.0953
     31 H13        -1.8871   -4.1731    1.6256 H         1 <0>         0.1262
     32 H14        -3.4314   -6.0378    0.9610 H         1 <0>         0.1082
     33 H15        -4.3318   -4.5135    1.1672 H         1 <0>         0.1052
     34 H16        -5.0430   -4.6439   -0.9719 H         1 <0>         0.1330
     35 H17        -4.1459   -6.1645   -1.1814 H         1 <0>         0.1335
     36 H18        -3.4528   -4.5100   -2.7183 H         1 <0>         0.4288
@<TRIPOS>BOND
     1    1    6 ar
     2    1    2 ar
     3    1   20 1
     4    2    3 ar
     5    2   21 1
     6    3    4 ar
     7    3   19 1
     8    4    5 ar
     9    4   22 1
    10    5    6 ar
    11    5   23 1
    12    6    7 1
    13    7    8 2
    14    7    9 am
    15    9   10 1
    16    9   24 1
    17   10   11 1
    18   10   16 1
    19   10   12 1
    20   12   13 1
    21   12   25 1
    22   12   26 1
    23   13   18 1
    24   13   14 1
    25   13   36 1
    26   14   15 1
    27   14   27 1
    28   14   28 1
    29   15   16 1
    30   15   29 1
    31   15   30 1
    32   16   17 1
    33   16   31 1
    34   17   18 1
    35   17   32 1
    36   17   33 1
    37   18   34 1
    38   18   35 1
@<TRIPOS>MOLECULE
ZINC28104755
   28    29     0     0     0
SMALL
USER_CHARGES
(2R)-2-(4-fluorophenyl)-1-methyl-pyrrolidine
@<TRIPOS>ATOM
      1 C1         -1.5984    0.5837    1.7789 C.3       1 <0>        -0.0503
      2 N1         -0.6517    1.5742    1.2492 N.4       1 <0>        -0.4135
      3 C2          0.4572    1.8162    2.2074 C.3       1 <0>        -0.0029
      4 C3          1.5695    2.4238    1.3162 C.3       1 <0>        -0.1443
      5 C4          1.4278    1.6301   -0.0028 C.3       1 <0>        -0.1334
      6 C5         -0.0127    1.0858    0.0080 C.3       1 <0>         0.0894
      7 H1         -0.0491   -0.0134   -0.0112 H         1 <0>         0.1452
      8 C6         -0.7631    1.5954   -1.1954 C.ar      1 <0>        -0.1505
      9 C7         -1.2864    2.8750   -1.1922 C.ar      1 <0>        -0.0957
     10 C8         -1.9698    3.3454   -2.2974 C.ar      1 <0>        -0.1387
     11 C9         -2.1406    2.5305   -3.4036 C.ar      1 <0>         0.1301
     12 C10        -1.6209    1.2471   -3.4035 C.ar      1 <0>        -0.1400
     13 C11        -0.9326    0.7810   -2.2996 C.ar      1 <0>        -0.0593
     14 F1         -2.8141    2.9870   -4.4821 F         1 <0>        -0.1226
     15 H2         -2.0581    0.9718    2.6998 H         1 <0>         0.1257
     16 H3         -1.0640   -0.3516    2.0018 H         1 <0>         0.1199
     17 H4         -2.3819    0.3893    1.0317 H         1 <0>         0.1229
     18 H5          0.1196    2.5103    2.9911 H         1 <0>         0.1341
     19 H6          0.7594    0.8635    2.6668 H         1 <0>         0.1327
     20 H7          1.3864    3.5004    1.1843 H         1 <0>         0.0977
     21 H8          2.5474    2.2744    1.7973 H         1 <0>         0.1180
     22 H9          1.5999    2.3029   -0.8559 H         1 <0>         0.1084
     23 H10         2.1678    0.8165   -0.0225 H         1 <0>         0.1098
     24 H11        -1.1575    3.5087   -0.3272 H         1 <0>         0.1299
     25 H12        -2.3750    4.3465   -2.2962 H         1 <0>         0.1495
     26 H13        -1.7538    0.6104   -4.2657 H         1 <0>         0.1510
     27 H14        -0.5271   -0.2200   -2.2993 H         1 <0>         0.1446
     28 H15        -1.2415    2.4848    1.0676 H         1 <0>         0.4424
@<TRIPOS>BOND
     1    1    2 1
     2    1   15 1
     3    1   16 1
     4    1   17 1
     5    2    6 1
     6    2    3 1
     7    2   28 1
     8    3    4 1
     9    3   18 1
    10    3   19 1
    11    4    5 1
    12    4   20 1
    13    4   21 1
    14    5    6 1
    15    5   22 1
    16    5   23 1
    17    6    7 1
    18    6    8 1
    19    8   13 ar
    20    8    9 ar
    21    9   10 ar
    22    9   24 1
    23   10   11 ar
    24   10   25 1
    25   11   12 ar
    26   11   14 1
    27   12   13 ar
    28   12   26 1
    29   13   27 1
@<TRIPOS>MOLECULE
ZINC28104761
   28    29     0     0     0
SMALL
USER_CHARGES
(2S)-2-(4-fluorophenyl)-1-methyl-pyrrolidine
@<TRIPOS>ATOM
      1 C1          1.1853    3.2468   -0.4543 C.3       1 <0>        -0.0579
      2 N1          1.0862    2.0971    0.4547 N.4       1 <0>        -0.4038
      3 C2          0.7078    2.5296    1.8169 C.3       1 <0>        -0.0108
      4 C3         -0.1627    1.3745    2.3713 C.3       1 <0>        -0.1443
      5 C4         -0.9480    0.9389    1.1062 C.3       1 <0>        -0.1330
      6 C5          0.0836    1.1286   -0.0257 C.3       1 <0>         0.0854
      7 H1          0.5899    0.1902   -0.2961 H         1 <0>         0.1457
      8 C6         -0.5965    1.6641   -1.2593 C.ar      1 <0>        -0.1586
      9 C7         -1.4084    2.7795   -1.1712 C.ar      1 <0>        -0.0786
     10 C8         -2.0288    3.2743   -2.3027 C.ar      1 <0>        -0.1497
     11 C9         -1.8453    2.6462   -3.5229 C.ar      1 <0>         0.1364
     12 C10        -1.0361    1.5260   -3.6089 C.ar      1 <0>        -0.1479
     13 C11        -0.4126    1.0361   -2.4771 C.ar      1 <0>        -0.0589
     14 F1         -2.4550    3.1263   -4.6288 F         1 <0>        -0.1224
     15 H2          1.9386    3.9519   -0.0729 H         1 <0>         0.1225
     16 H3          0.2094    3.7506   -0.5160 H         1 <0>         0.1245
     17 H4          1.4821    2.8987   -1.4547 H         1 <0>         0.1227
     18 H5          1.6158    2.6810    2.4190 H         1 <0>         0.1345
     19 H6          0.1448    3.4728    1.7590 H         1 <0>         0.1263
     20 H7          0.4890    0.5836    2.7711 H         1 <0>         0.1005
     21 H8         -0.8106    1.7563    3.1740 H         1 <0>         0.1167
     22 H9         -1.2678   -0.1079    1.2155 H         1 <0>         0.1172
     23 H10        -1.8323    1.5816    0.9842 H         1 <0>         0.1025
     24 H11        -1.5546    3.2668   -0.2186 H         1 <0>         0.1376
     25 H12        -2.6597    4.1482   -2.2344 H         1 <0>         0.1490
     26 H13        -0.8920    1.0355   -4.5603 H         1 <0>         0.1501
     27 H14         0.2189    0.1625   -2.5440 H         1 <0>         0.1435
     28 H15         2.0782    1.6222    0.4757 H         1 <0>         0.4507
@<TRIPOS>BOND
     1    1    2 1
     2    1   15 1
     3    1   16 1
     4    1   17 1
     5    2    6 1
     6    2    3 1
     7    2   28 1
     8    3    4 1
     9    3   18 1
    10    3   19 1
    11    4    5 1
    12    4   20 1
    13    4   21 1
    14    5    6 1
    15    5   22 1
    16    5   23 1
    17    6    7 1
    18    6    8 1
    19    8   13 ar
    20    8    9 ar
    21    9   10 ar
    22    9   24 1
    23   10   11 ar
    24   10   25 1
    25   11   12 ar
    26   11   14 1
    27   12   13 ar
    28   12   26 1
    29   13   27 1
@<TRIPOS>MOLECULE
ZINC00050682
   37    39     0     0     0
SMALL
USER_CHARGES
[(3R)-quinuclidin-3-yl] N-phenylcarbamate
@<TRIPOS>ATOM
      1 C1         -1.2361    3.1344    0.0548 C.ar      1 <0>        -0.1207
      2 C2         -1.1447    1.9023   -0.5663 C.ar      1 <0>        -0.0979
      3 C3          0.0587    1.2248   -0.5860 C.ar      1 <0>        -0.1338
      4 C4          1.1804    1.7877    0.0084 C.ar      1 <0>         0.1371
      5 C5          1.0869    3.0280    0.6258 C.ar      1 <0>        -0.1178
      6 C6         -0.1208    3.6978    0.6471 C.ar      1 <0>        -0.1010
      7 N1          2.4026    1.1062   -0.0145 N.am      1 <0>        -0.6400
      8 C7          3.5561    1.7947   -0.1236 C.2       1 <0>         0.6471
      9 O1          3.5414    3.0097   -0.1174 O.2       1 <0>        -0.5448
     10 O2          4.7248    1.1361   -0.2393 O.3       1 <0>        -0.3538
     11 C8          5.9273    1.9421   -0.3526 C.3       1 <0>         0.0992
     12 H1          5.6882    2.8886   -0.8376 H         1 <0>         0.1270
     13 C9          6.5005    2.2076    1.0424 C.3       1 <0>        -0.0202
     14 C10         7.8492    0.1984    0.9308 C.3       1 <0>        -0.0023
     15 C11         7.3141   -0.1243   -0.4672 C.3       1 <0>        -0.1361
     16 C12         6.9744    1.1892   -1.1829 C.3       1 <0>        -0.0987
     17 C13         8.2443    2.0459   -1.2621 C.3       1 <0>        -0.1340
     18 C14         8.7536    2.3077    0.1581 C.3       1 <0>        -0.0052
     19 H2         -2.1793    3.6602    0.0727 H         1 <0>         0.1301
     20 H3         -2.0163    1.4672   -1.0325 H         1 <0>         0.1335
     21 H4          0.1283    0.2603   -1.0669 H         1 <0>         0.1297
     22 H5          1.9576    3.4686    1.0886 H         1 <0>         0.1376
     23 H6         -0.1942    4.6625    1.1271 H         1 <0>         0.1306
     24 H7          2.4195    0.1384    0.0481 H         1 <0>         0.4201
     25 H8          6.5333    3.2819    1.2236 H         1 <0>         0.1439
     26 H9          5.8684    1.7313    1.7919 H         1 <0>         0.1368
     27 H10         7.2080   -0.2638    1.6813 H         1 <0>         0.1288
     28 H11         8.8632   -0.1890    1.0304 H         1 <0>         0.1321
     29 H12         6.4163   -0.7366   -0.3822 H         1 <0>         0.1068
     30 H13         8.0720   -0.6641   -1.0348 H         1 <0>         0.1055
     31 H14         6.5847    0.9829   -2.1798 H         1 <0>         0.1267
     32 H15         9.0075    1.5158   -1.8318 H         1 <0>         0.1128
     33 H16         8.0154    2.9941   -1.7485 H         1 <0>         0.1059
     34 H17         8.7709    3.3812    0.3462 H         1 <0>         0.1320
     35 H18         9.7603    1.9033    0.2637 H         1 <0>         0.1341
     36 N2          7.8699    1.6601    1.1509 N.4       1 <0>        -0.3885
     37 H19         8.2311    1.8503    2.0930 H         1 <0>         0.4373
@<TRIPOS>BOND
     1    1    6 ar
     2    1    2 ar
     3    1   19 1
     4    2    3 ar
     5    2   20 1
     6    3    4 ar
     7    3   21 1
     8    4    5 ar
     9    4    7 1
    10    5    6 ar
    11    5   22 1
    12    6   23 1
    13    7    8 am
    14    7   24 1
    15    8    9 2
    16    8   10 1
    17   10   11 1
    18   11   12 1
    19   11   16 1
    20   11   13 1
    21   13   25 1
    22   13   26 1
    23   13   36 1
    24   14   15 1
    25   14   27 1
    26   14   28 1
    27   14   36 1
    28   15   16 1
    29   15   29 1
    30   15   30 1
    31   16   17 1
    32   16   31 1
    33   17   18 1
    34   17   32 1
    35   17   33 1
    36   18   34 1
    37   18   35 1
    38   18   36 1
    39   36   37 1
@<TRIPOS>MOLECULE
ZINC00050683
   37    39     0     0     0
SMALL
USER_CHARGES
[(3S)-quinuclidin-3-yl] N-phenylcarbamate
@<TRIPOS>ATOM
      1 C1         -7.1686    4.3686   -3.6635 C.ar      1 <0>        -0.1220
      2 C2         -7.3659    3.0001   -3.6425 C.ar      1 <0>        -0.0969
      3 C3         -6.4109    2.1717   -3.0863 C.ar      1 <0>        -0.1357
      4 C4         -5.2519    2.7145   -2.5474 C.ar      1 <0>         0.1407
      5 C5         -5.0596    4.0897   -2.5644 C.ar      1 <0>        -0.1184
      6 C6         -6.0156    4.9122   -3.1276 C.ar      1 <0>        -0.0983
      7 N1         -4.2822    1.8778   -1.9831 N.am      1 <0>        -0.6401
      8 C7         -2.9776    2.2047   -2.0690 C.2       1 <0>         0.6466
      9 O1         -2.6353    3.1733   -2.7181 O.2       1 <0>        -0.5440
     10 O2         -2.0533    1.4581   -1.4356 O.3       1 <0>        -0.3536
     11 C8         -0.6674    1.8691   -1.5720 C.3       1 <0>         0.1001
     12 H1         -0.6165    2.9495   -1.7074 H         1 <0>         0.1268
     13 C9         -0.0419    1.1704   -2.7826 C.3       1 <0>        -0.0202
     14 C10         0.6572   -0.6994   -1.4101 C.3       1 <0>        -0.0022
     15 C11         0.0520   -0.0535   -0.1604 C.3       1 <0>        -0.1360
     16 C12         0.1130    1.4716   -0.3127 C.3       1 <0>        -0.0988
     17 C13         1.5784    1.8870   -0.4937 C.3       1 <0>        -0.1345
     18 C14         2.1410    1.1878   -1.7344 C.3       1 <0>        -0.0055
     19 H2         -7.9166    5.0142   -4.0996 H         1 <0>         0.1303
     20 H3         -8.2675    2.5785   -4.0618 H         1 <0>         0.1334
     21 H4         -6.5652    1.1029   -3.0709 H         1 <0>         0.1292
     22 H5         -4.1615    4.5152   -2.1417 H         1 <0>         0.1335
     23 H6         -5.8645    5.9814   -3.1455 H         1 <0>         0.1311
     24 H7         -4.5492    1.0627   -1.5302 H         1 <0>         0.4201
     25 H8          0.3053    1.9186   -3.4951 H         1 <0>         0.1439
     26 H9         -0.7859    0.5320   -3.2591 H         1 <0>         0.1368
     27 H10         1.5126   -1.3118   -1.1249 H         1 <0>         0.1321
     28 H11        -0.0921   -1.3249   -1.8953 H         1 <0>         0.1288
     29 H12         0.6208   -0.3558    0.7189 H         1 <0>         0.1053
     30 H13        -0.9857   -0.3683   -0.0502 H         1 <0>         0.1071
     31 H14        -0.3069    1.9535    0.5702 H         1 <0>         0.1268
     32 H15         1.6383    2.9674   -0.6247 H         1 <0>         0.1059
     33 H16         2.1529    1.5913    0.3841 H         1 <0>         0.1128
     34 H17         2.9861    0.5620   -1.4475 H         1 <0>         0.1341
     35 H18         2.4703    1.9359   -2.4556 H         1 <0>         0.1319
     36 N2          1.1062    0.3390   -2.3623 N.4       1 <0>        -0.3886
     37 H19         1.5071   -0.1184   -3.1896 H         1 <0>         0.4373
@<TRIPOS>BOND
     1    1    6 ar
     2    1    2 ar
     3    1   19 1
     4    2    3 ar
     5    2   20 1
     6    3    4 ar
     7    3   21 1
     8    4    5 ar
     9    4    7 1
    10    5    6 ar
    11    5   22 1
    12    6   23 1
    13    7    8 am
    14    7   24 1
    15    8    9 2
    16    8   10 1
    17   10   11 1
    18   11   12 1
    19   11   16 1
    20   11   13 1
    21   13   25 1
    22   13   26 1
    23   13   36 1
    24   14   15 1
    25   14   27 1
    26   14   28 1
    27   14   36 1
    28   15   16 1
    29   15   29 1
    30   15   30 1
    31   16   17 1
    32   16   31 1
    33   17   18 1
    34   17   32 1
    35   17   33 1
    36   18   34 1
    37   18   35 1
    38   18   36 1
    39   36   37 1
@<TRIPOS>MOLECULE
ZINC28523416
   51    55     0     0     0
SMALL
USER_CHARGES

@<TRIPOS>ATOM
      1 C1         -0.0165    1.3620    0.0095 C.ar      1 <0>        -0.1334
      2 C2          1.1708    2.0817    0.0021 C.ar      1 <0>        -0.0695
      3 C3          2.3870    1.4341   -0.0131 C.ar      1 <0>        -0.1162
      4 C4          2.4312    0.0446   -0.0210 C.ar      1 <0>         0.0769
      5 C5          1.2247   -0.6799   -0.0133 C.ar      1 <0>        -0.1527
      6 C6          0.0021   -0.0041    0.0020 C.ar      1 <0>        -0.0531
      7 C7          1.6095   -2.0907   -0.0246 C.2       1 <0>        -0.0808
      8 C8          2.9674   -2.1102   -0.0377 C.2       1 <0>        -0.0582
      9 O1          3.4413   -0.8467   -0.0354 O.3       1 <0>        -0.1917
     10 C9          3.7957   -3.3242   -0.0517 C.2       1 <0>         0.6145
     11 O2          3.2684   -4.4205   -0.0522 O.2       1 <0>        -0.4959
     12 N1          5.1396   -3.2229   -0.0640 N.am      1 <0>        -0.7290
     13 C10         5.9653   -4.4330   -0.0780 C.3       1 <0>         0.1448
     14 H1          5.4707   -5.2059   -0.6663 H         1 <0>         0.1320
     15 C11         7.3303   -4.1154   -0.6928 C.3       1 <0>         0.0263
     16 H2          7.4822   -4.7355   -1.5762 H         1 <0>         0.1538
     17 N2          8.3929   -4.3848    0.2788 N.4       1 <0>        -0.3739
     18 C12         8.4002   -5.8003    0.6556 C.3       1 <0>        -0.0090
     19 C13         7.0708   -6.1739    1.3151 C.3       1 <0>        -0.1350
     20 C14         6.1703   -4.9322    1.3583 C.3       1 <0>        -0.1141
     21 C15         6.8974   -3.8384    2.1516 C.3       1 <0>        -0.1349
     22 C16         8.2364   -3.5365    1.4626 C.3       1 <0>        -0.0201
     23 C17         7.3751   -2.6397   -1.0946 C.3       1 <0>        -0.1032
     24 C18         8.6698   -2.3532   -1.8107 C.ar      1 <0>        -0.1807
     25 C19         9.7925   -1.9567   -1.0998 C.ar      1 <0>        -0.0946
     26 C20        10.9617   -1.7039   -1.8004 C.ar      1 <0>        -0.1586
     27 C21        10.9696   -1.8544   -3.1744 C.ar      1 <0>         0.1206
     28 N3          9.8826   -2.2328   -3.8177 N.ar      1 <0>        -0.4688
     29 C22         8.7547   -2.4878   -3.1833 C.ar      1 <0>         0.1223
     30 H3         -0.9609    1.8855    0.0259 H         1 <0>         0.1384
     31 H4          1.1408    3.1613    0.0078 H         1 <0>         0.1431
     32 H5          3.3039    2.0047   -0.0191 H         1 <0>         0.1366
     33 H6         -0.9244   -0.5591    0.0083 H         1 <0>         0.1360
     34 H7          0.9478   -2.9443   -0.0229 H         1 <0>         0.1732
     35 H8          5.5601   -2.3488   -0.0637 H         1 <0>         0.4113
     36 H9          8.5462   -6.4110   -0.2354 H         1 <0>         0.1331
     37 H10         9.2153   -5.9840    1.3555 H         1 <0>         0.1349
     38 H11         6.5824   -6.9568    0.7348 H         1 <0>         0.1058
     39 H12         7.2531   -6.5284    2.3296 H         1 <0>         0.1076
     40 H13         5.2105   -5.1749    1.8143 H         1 <0>         0.1265
     41 H14         6.2872   -2.9355    2.1726 H         1 <0>         0.0986
     42 H15         7.0773   -4.1838    3.1696 H         1 <0>         0.1070
     43 H16         9.0526   -3.7321    2.1581 H         1 <0>         0.1370
     44 H17         8.2623   -2.4888    1.1628 H         1 <0>         0.1284
     45 H18         6.5374   -2.4175   -1.7557 H         1 <0>         0.1301
     46 H19         7.3084   -2.0179   -0.2019 H         1 <0>         0.1012
     47 H20         9.7567   -1.8472   -0.0260 H         1 <0>         0.1333
     48 H21        11.8551   -1.3930   -1.2792 H         1 <0>         0.1473
     49 H22        11.8765   -1.6594   -3.7275 H         1 <0>         0.1677
     50 H23         7.8862   -2.8008   -3.7437 H         1 <0>         0.1620
     51 H24         9.2804   -4.1719   -0.1515 H         1 <0>         0.4230
@<TRIPOS>BOND
     1    1    6 ar
     2    1    2 ar
     3    1   30 1
     4    2    3 ar
     5    2   31 1
     6    3    4 ar
     7    3   32 1
     8    4    9 1
     9    4    5 ar
    10    5    6 ar
    11    5    7 1
    12    6   33 1
    13    7    8 2
    14    7   34 1
    15    8    9 1
    16    8   10 1
    17   10   11 2
    18   10   12 am
    19   12   13 1
    20   12   35 1
    21   13   14 1
    22   13   20 1
    23   13   15 1
    24   15   16 1
    25   15   17 1
    26   15   23 1
    27   17   22 1
    28   17   18 1
    29   17   51 1
    30   18   19 1
    31   18   36 1
    32   18   37 1
    33   19   20 1
    34   19   38 1
    35   19   39 1
    36   20   21 1
    37   20   40 1
    38   21   22 1
    39   21   41 1
    40   21   42 1
    41   22   43 1
    42   22   44 1
    43   23   24 1
    44   23   45 1
    45   23   46 1
    46   24   29 ar
    47   24   25 ar
    48   25   26 ar
    49   25   47 1
    50   26   27 ar
    51   26   48 1
    52   27   28 ar
    53   27   49 1
    54   28   29 ar
    55   29   50 1
@<TRIPOS>MOLECULE
ZINC01446433
   31    31     0     0     0
SMALL
USER_CHARGES
trimethyl-(2-phenoxyethyl)ammonium
@<TRIPOS>ATOM
      1 C1         -1.3077    7.3608   -2.2677 C.3       1 <0>        -0.0539
      2 N1         -0.4372    7.7621   -1.1545 N.4       1 <0>        -0.2704
      3 C2         -0.1685    9.2039   -1.2382 C.3       1 <0>        -0.0456
      4 C3          0.8297    7.0225   -1.2324 C.3       1 <0>        -0.0479
      5 C4         -1.1023    7.4611    0.1202 C.3       1 <0>        -0.0006
      6 C5         -1.5068    5.9858    0.1486 C.3       1 <0>         0.0253
      7 O1         -0.3334    5.1704    0.1673 O.3       1 <0>        -0.3229
      8 C6         -0.5179    3.8242    0.1936 C.ar      1 <0>         0.1058
      9 C7          0.5775    2.9731    0.2128 C.ar      1 <0>        -0.1430
     10 C8          0.3873    1.6050    0.2390 C.ar      1 <0>        -0.0772
     11 C9         -0.8934    1.0839    0.2456 C.ar      1 <0>        -0.1404
     12 C10        -1.9867    1.9300    0.2207 C.ar      1 <0>        -0.0783
     13 C11        -1.8019    3.2989    0.2007 C.ar      1 <0>        -0.2034
     14 H1         -2.2477    7.9095   -2.2099 H         1 <0>         0.1231
     15 H2         -0.8142    7.5842   -3.2136 H         1 <0>         0.1254
     16 H3         -1.5071    6.2910   -2.2056 H         1 <0>         0.1211
     17 H4          0.4774    9.5016   -0.4122 H         1 <0>         0.1225
     18 H5          0.3250    9.4272   -2.1840 H         1 <0>         0.1236
     19 H6         -1.1086    9.7526   -1.1803 H         1 <0>         0.1215
     20 H7          0.6229    5.9610   -1.3684 H         1 <0>         0.1345
     21 H8          1.4135    7.3900   -2.0764 H         1 <0>         0.1171
     22 H9          1.3925    7.1679   -0.3104 H         1 <0>         0.1213
     23 H10        -1.9912    8.0836    0.2221 H         1 <0>         0.1475
     24 H11        -0.4187    7.6662    0.9441 H         1 <0>         0.1402
     25 H12        -2.0964    5.7536   -0.7383 H         1 <0>         0.0881
     26 H13        -2.1004    5.7889    1.0413 H         1 <0>         0.1081
     27 H14         1.5780    3.3796    0.2070 H         1 <0>         0.1325
     28 H15         1.2397    0.9420    0.2541 H         1 <0>         0.1366
     29 H16        -1.0400    0.0141    0.2657 H         1 <0>         0.1317
     30 H17        -2.9860    1.5204    0.2210 H         1 <0>         0.1313
     31 H18        -2.6562    3.9594    0.1853 H         1 <0>         0.1265
@<TRIPOS>BOND
     1    1    2 1
     2    1   14 1
     3    1   15 1
     4    1   16 1
     5    2    3 1
     6    2    4 1
     7    2    5 1
     8    3   17 1
     9    3   18 1
    10    3   19 1
    11    4   20 1
    12    4   21 1
    13    4   22 1
    14    5    6 1
    15    5   23 1
    16    5   24 1
    17    6    7 1
    18    6   25 1
    19    6   26 1
    20    7    8 1
    21    8   13 ar
    22    8    9 ar
    23    9   10 ar
    24    9   27 1
    25   10   11 ar
    26   10   28 1
    27   11   12 ar
    28   11   29 1
    29   12   13 ar
    30   12   30 1
    31   13   31 1
@<TRIPOS>MOLECULE
ZINC35856171
   42    45     0     0     0
SMALL
USER_CHARGES

@<TRIPOS>ATOM
      1 C1         -0.0169    1.3935    0.0097 C.ar      1 <0>        -0.0339
      2 C2          1.1620    2.0983    0.0022 C.ar      1 <0>        -0.1930
      3 C3          2.3904    1.4270   -0.0136 C.ar      1 <0>         0.2379
      4 C4          2.4044    0.0373   -0.0212 C.ar      1 <0>        -0.1827
      5 C5          1.2275   -0.6762   -0.0137 C.ar      1 <0>         0.0101
      6 C6          0.0021   -0.0041    0.0020 C.ar      1 <0>        -0.2146
      7 C7         -1.2621   -0.7642    0.0109 C.2       1 <0>         0.5756
      8 O1         -1.2406   -1.9800    0.0042 O.2       1 <0>        -0.5313
      9 N1         -2.4410   -0.1112    0.0266 N.am      1 <0>        -0.7348
     10 C8         -3.6965   -0.8661    0.0354 C.3       1 <0>         0.1389
     11 H1         -3.5822   -1.7721   -0.5597 H         1 <0>         0.1255
     12 C9         -4.0599   -1.2401    1.4742 C.3       1 <0>        -0.0230
     13 N2         -5.3554   -0.6575    1.8319 N.4       1 <0>        -0.3746
     14 C10        -6.4129   -1.1790    0.9626 C.3       1 <0>        -0.0093
     15 C11        -6.1276   -0.8031   -0.4931 C.3       1 <0>        -0.1350
     16 C12        -4.8199   -0.0026   -0.5533 C.3       1 <0>        -0.1097
     17 C13        -4.9800    1.2465    0.3232 C.3       1 <0>        -0.1392
     18 C14        -5.3013    0.8045    1.7585 C.3       1 <0>        -0.0083
     19 C15         3.8439   -0.4271   -0.0380 C.3       1 <0>        -0.0869
     20 C16         4.6660    0.8721   -0.0392 C.3       1 <0>         0.1096
     21 N3          3.6770    1.9528   -0.0235 N.pl3     1 <0>        -0.7294
     22 H2         -0.9597    1.9200    0.0261 H         1 <0>         0.1210
     23 H3          1.1411    3.1780    0.0082 H         1 <0>         0.1274
     24 H4          1.2508   -1.7560   -0.0201 H         1 <0>         0.1353
     25 H5         -2.4582    0.8586    0.0319 H         1 <0>         0.4041
     26 H6         -4.1143   -2.3251    1.5631 H         1 <0>         0.1392
     27 H7         -3.2938   -0.8614    2.1508 H         1 <0>         0.1336
     28 H8         -6.4542   -2.2643    1.0545 H         1 <0>         0.1325
     29 H9         -7.3708   -0.7554    1.2645 H         1 <0>         0.1324
     30 H10        -6.0271   -1.7087   -1.0912 H         1 <0>         0.1045
     31 H11        -6.9457   -0.1960   -0.8807 H         1 <0>         0.1069
     32 H12        -4.5877    0.2682   -1.5833 H         1 <0>         0.1254
     33 H13        -4.0519    1.8181    0.3176 H         1 <0>         0.0957
     34 H14        -5.7926    1.8619   -0.0628 H         1 <0>         0.1078
     35 H15        -6.2651    1.2174    2.0563 H         1 <0>         0.1329
     36 H16        -4.5282    1.1721    2.4332 H         1 <0>         0.1294
     37 H17         4.0642   -1.0162    0.8522 H         1 <0>         0.0900
     38 H18         4.0464   -1.0066   -0.9387 H         1 <0>         0.0905
     39 H19         5.2950    0.9223    0.8496 H         1 <0>         0.0767
     40 H20         5.2772    0.9319   -0.9397 H         1 <0>         0.0770
     41 H21         3.8896    2.8992   -0.0211 H         1 <0>         0.4181
     42 H22        -5.5732   -0.9217    2.7810 H         1 <0>         0.4278
@<TRIPOS>BOND
     1    1    6 ar
     2    1    2 ar
     3    1   22 1
     4    2    3 ar
     5    2   23 1
     6    3   21 1
     7    3    4 ar
     8    4    5 ar
     9    4   19 1
    10    5    6 ar
    11    5   24 1
    12    6    7 1
    13    7    8 2
    14    7    9 am
    15    9   10 1
    16    9   25 1
    17   10   11 1
    18   10   16 1
    19   10   12 1
    20   12   13 1
    21   12   26 1
    22   12   27 1
    23   13   18 1
    24   13   14 1
    25   13   42 1
    26   14   15 1
    27   14   28 1
    28   14   29 1
    29   15   16 1
    30   15   30 1
    31   15   31 1
    32   16   17 1
    33   16   32 1
    34   17   18 1
    35   17   33 1
    36   17   34 1
    37   18   35 1
    38   18   36 1
    39   19   20 1
    40   19   37 1
    41   19   38 1
    42   20   21 1
    43   20   39 1
    44   20   40 1
    45   21   41 1
