@<TRIPOS>MOLECULE
ZINC00008089
   24    25     0     0     0
SMALL
USER_CHARGES
3-methyl-5-[(2S)-pyrrolidin-2-yl]isoxazole
@<TRIPOS>ATOM
      1 C1         -5.8651    0.2746   -3.8050 C.3       1 <0>        -0.0899
      2 C2         -4.8057    0.3689   -2.7374 C.2       1 <0>         0.0302
      3 C3         -4.0562    1.5153   -2.3869 C.2       1 <0>        -0.1599
      4 C4         -3.2494    1.0859   -1.3872 C.2       1 <0>        -0.1195
      5 O1         -3.5312   -0.2115   -1.2029 O.3       1 <0>         0.1072
      6 N1         -4.3988   -0.5893   -1.9558 N.2       1 <0>        -0.3306
      7 C5         -2.2314    1.9037   -0.6350 C.3       1 <0>         0.1355
      8 H1         -2.4663    2.9642   -0.7266 H         1 <0>         0.1691
      9 C6         -0.8223    1.6286   -1.1920 C.3       1 <0>        -0.1425
     10 C7         -0.0127    1.0858    0.0080 C.3       1 <0>        -0.1491
     11 C8         -0.8009    1.6167    1.2317 C.3       1 <0>        -0.0042
     12 H2         -5.4031   -0.0065   -4.7515 H         1 <0>         0.0917
     13 H3         -6.6003   -0.4787   -3.5218 H         1 <0>         0.0864
     14 H4         -6.3580    1.2406   -3.9141 H         1 <0>         0.0916
     15 H5         -4.1137    2.5044   -2.8167 H         1 <0>         0.1871
     16 H6         -0.3756    2.5508   -1.5636 H         1 <0>         0.1165
     17 H7         -0.8682    0.8829   -1.9857 H         1 <0>         0.1085
     18 H8          0.0021   -0.0041    0.0020 H         1 <0>         0.1017
     19 H9          1.0019    1.4840    0.0005 H         1 <0>         0.1220
     20 H10        -0.6178    0.9936    2.1071 H         1 <0>         0.1467
     21 H11        -0.5403    2.6552    1.4361 H         1 <0>         0.1405
     22 N2         -2.2000    1.5144    0.7760 N.4       1 <0>        -0.5194
     23 H12        -2.5334    0.5490    0.8811 H         1 <0>         0.4393
     24 H13        -2.7953    2.1439    1.3270 H         1 <0>         0.4411
@<TRIPOS>BOND
     1    1    2 1
     2    1   12 1
     3    1   13 1
     4    1   14 1
     5    2    6 2
     6    2    3 1
     7    3    4 2
     8    3   15 1
     9    4    5 1
    10    4    7 1
    11    5    6 1
    12    7    8 1
    13    7    9 1
    14    7   22 1
    15    9   10 1
    16    9   16 1
    17    9   17 1
    18   10   11 1
    19   10   18 1
    20   10   19 1
    21   11   20 1
    22   11   21 1
    23   11   22 1
    24   22   23 1
    25   22   24 1
@<TRIPOS>MOLECULE
ZINC13819699
   21    21     0     0     0
SMALL
USER_CHARGES
2-[(5-chloro-3-pyridyl)oxy]ethanamine
@<TRIPOS>ATOM
      1 C1         -0.7416    1.5908    3.5700 C.ar      1 <0>        -0.0908
      2 C2         -0.1488    1.1821    2.3797 C.ar      1 <0>         0.0743
      3 C3          0.9906    0.3925    2.4307 C.ar      1 <0>         0.0295
      4 N1          1.5141    0.0396    3.5881 N.ar      1 <0>        -0.4282
      5 C4          0.9782    0.4096    4.7344 C.ar      1 <0>         0.0970
      6 C5         -0.1619    1.1934    4.7650 C.ar      1 <0>        -0.0512
      7 Cl1        -0.8581    1.6726    6.2814 Cl        1 <0>        -0.0224
      8 O1         -0.6816    1.5467    1.1837 O.3       1 <0>        -0.3223
      9 C6         -0.0127    1.0858    0.0080 C.3       1 <0>         0.0164
     10 C7         -0.7527    1.5927   -1.2315 C.3       1 <0>         0.0082
     11 H1         -1.6314    2.2028    3.5633 H         1 <0>         0.1574
     12 H2          1.4559    0.0662    1.5123 H         1 <0>         0.1647
     13 H3          1.4348    0.0966    5.6618 H         1 <0>         0.1772
     14 H4          0.0021   -0.0041    0.0020 H         1 <0>         0.1146
     15 H5          1.0099    1.4631    0.0003 H         1 <0>         0.0930
     16 H6         -0.2958    1.1691   -2.1259 H         1 <0>         0.1579
     17 H7         -1.7985    1.2898   -1.1795 H         1 <0>         0.1449
     18 H8          0.2910    3.3668   -1.2701 H         1 <0>         0.4378
     19 H9         -1.1511    3.4177   -2.0968 H         1 <0>         0.4437
     20 N2         -0.6816    3.0641   -1.2648 N.4       1 <0>        -0.6479
     21 H10        -1.1460    3.4434   -0.4314 H         1 <0>         0.4461
@<TRIPOS>BOND
     1    1    6 ar
     2    1    2 ar
     3    1   11 1
     4    2    3 ar
     5    2    8 1
     6    3    4 ar
     7    3   12 1
     8    4    5 ar
     9    5    6 ar
    10    5   13 1
    11    6    7 1
    12    8    9 1
    13    9   10 1
    14    9   14 1
    15    9   15 1
    16   10   16 1
    17   10   17 1
    18   10   20 1
    19   18   20 1
    20   19   20 1
    21   20   21 1
@<TRIPOS>MOLECULE
ZINC13589050
   24    24     0     0     0
SMALL
USER_CHARGES
N-methyl-2-(3-pyridyloxy)ethanamine
@<TRIPOS>ATOM
      1 C1         -5.6415    6.1621    1.3823 C.3       1 <0>        -0.0435
      2 C2         -3.6213    5.9165    0.0704 C.3       1 <0>         0.0046
      3 C3         -2.2257    5.2898    0.0532 C.3       1 <0>         0.0202
      4 O1         -2.3430    3.8657    0.0462 O.3       1 <0>        -0.3252
      5 C4         -1.1869    3.1513    0.0309 C.ar      1 <0>         0.0578
      6 C5         -1.2170    1.7603    0.0173 C.ar      1 <0>        -0.0962
      7 C6         -0.0126    1.0758    0.0080 C.ar      1 <0>        -0.1278
      8 C7          1.1704    1.7914    0.0005 C.ar      1 <0>         0.0820
      9 N1          1.1639    3.1098    0.0081 N.ar      1 <0>        -0.4474
     10 C8          0.0399    3.7986    0.0226 C.ar      1 <0>         0.0264
     11 H1         -5.5685    7.2470    1.3072 H         1 <0>         0.1241
     12 H2         -6.2366    5.7797    0.5530 H         1 <0>         0.1239
     13 H3         -6.1182    5.8945    2.3253 H         1 <0>         0.1269
     14 H4         -3.5343    6.9997   -0.0139 H         1 <0>         0.1526
     15 H5         -4.2024    5.5324   -0.7680 H         1 <0>         0.1429
     16 H6         -1.6751    5.6047    0.9397 H         1 <0>         0.0900
     17 H7         -1.6924    5.6148   -0.8402 H         1 <0>         0.1123
     18 H8         -2.1563    1.2273    0.0184 H         1 <0>         0.1461
     19 H9          0.0021   -0.0041    0.0020 H         1 <0>         0.1517
     20 H10         2.1124    1.2633   -0.0114 H         1 <0>         0.1677
     21 H11         0.0746    4.8780    0.0285 H         1 <0>         0.1565
     22 N2         -4.2912    5.5699    1.3381 N.4       1 <0>        -0.5214
     23 H12        -4.3666    4.5487    1.4131 H         1 <0>         0.4411
     24 H13        -3.7372    5.9309    2.1236 H         1 <0>         0.4346
@<TRIPOS>BOND
     1    1   11 1
     2    1   12 1
     3    1   13 1
     4    1   22 1
     5    2    3 1
     6    2   14 1
     7    2   15 1
     8    2   22 1
     9    3    4 1
    10    3   16 1
    11    3   17 1
    12    4    5 1
    13    5   10 ar
    14    5    6 ar
    15    6    7 ar
    16    6   18 1
    17    7    8 ar
    18    7   19 1
    19    8    9 ar
    20    8   20 1
    21    9   10 ar
    22   10   21 1
    23   22   23 1
    24   22   24 1
@<TRIPOS>MOLECULE
ZINC13819629
   30    30     0     0     0
SMALL
USER_CHARGES
(2R)-1-[(6-fluoro-3-pyridyl)oxy]-N,N-dimethyl-propan-2-amine
@<TRIPOS>ATOM
      1 C1          0.2678    7.9917   -1.1362 C.3       1 <0>        -0.1849
      2 C2          1.1542    7.5620    0.0344 C.3       1 <0>         0.0396
      3 H1          2.1345    8.0288   -0.0617 H         1 <0>         0.1577
      4 C3          1.3108    6.0401    0.0238 C.3       1 <0>         0.0220
      5 O1          0.0195    5.4283    0.0324 O.3       1 <0>        -0.3157
      6 C4         -0.0198    4.0693    0.0246 C.ar      1 <0>         0.0493
      7 C5         -1.2395    3.3990    0.0326 C.ar      1 <0>        -0.0654
      8 C6         -1.2303    2.0145    0.0189 C.ar      1 <0>        -0.1491
      9 C7         -0.0162    1.3468    0.0094 C.ar      1 <0>         0.2941
     10 N1          1.1226    2.0141    0.0022 N.ar      1 <0>        -0.4770
     11 C8          1.1543    3.3330    0.0089 C.ar      1 <0>         0.0645
     12 F1          0.0021   -0.0041    0.0020 F         1 <0>        -0.1010
     13 C9          1.3104    7.5038    2.4500 C.3       1 <0>        -0.0500
     14 C10         0.3674    9.4404    1.3441 C.3       1 <0>        -0.0467
     15 H2          0.1562    9.0760   -1.1286 H         1 <0>         0.0865
     16 H3          0.7281    7.6804   -2.0739 H         1 <0>         0.1067
     17 H4         -0.7125    7.5249   -1.0401 H         1 <0>         0.0900
     18 H5          1.8676    5.7259    0.9066 H         1 <0>         0.0921
     19 H6          1.8507    5.7367   -0.8732 H         1 <0>         0.1122
     20 H7         -2.1708    3.9457    0.0444 H         1 <0>         0.1584
     21 H8         -2.1581    1.4617    0.0203 H         1 <0>         0.1649
     22 H9          2.1055    3.8444    0.0026 H         1 <0>         0.1673
     23 H10         2.3194    7.9135    2.4030 H         1 <0>         0.1262
     24 H11         0.8291    7.8284    3.3725 H         1 <0>         0.1268
     25 H12         1.3590    6.4151    2.4290 H         1 <0>         0.1195
     26 H13        -0.2696    9.7596    0.5192 H         1 <0>         0.1245
     27 H14        -0.0939    9.7239    2.2901 H         1 <0>         0.1249
     28 H15         1.3422    9.9202    1.2571 H         1 <0>         0.1247
     29 N2          0.5078    7.9697    1.2996 N.4       1 <0>        -0.3977
     30 H16        -0.4252    7.5440    1.3497 H         1 <0>         0.4354
@<TRIPOS>BOND
     1    1    2 1
     2    1   15 1
     3    1   16 1
     4    1   17 1
     5    2    3 1
     6    2    4 1
     7    2   29 1
     8    4    5 1
     9    4   18 1
    10    4   19 1
    11    5    6 1
    12    6   11 ar
    13    6    7 ar
    14    7    8 ar
    15    7   20 1
    16    8    9 ar
    17    8   21 1
    18    9   10 ar
    19    9   12 1
    20   10   11 ar
    21   11   22 1
    22   13   23 1
    23   13   24 1
    24   13   25 1
    25   13   29 1
    26   14   26 1
    27   14   27 1
    28   14   28 1
    29   14   29 1
    30   29   30 1
@<TRIPOS>MOLECULE
ZINC13819631
   30    30     0     0     0
SMALL
USER_CHARGES
(2S)-1-[(6-fluoro-3-pyridyl)oxy]-N,N-dimethyl-propan-2-amine
@<TRIPOS>ATOM
      1 C1         -2.2405    1.4762   -1.0179 C.3       1 <0>        -0.1849
      2 C2         -0.8017    1.9868   -1.1173 C.3       1 <0>         0.0394
      3 H1         -0.3600    1.6485   -2.0545 H         1 <0>         0.1577
      4 C3         -0.7993    3.5163   -1.0752 C.3       1 <0>         0.0217
      5 O1         -1.4822    3.9616    0.0984 O.3       1 <0>        -0.3155
      6 C4         -1.5705    5.3048    0.2889 C.ar      1 <0>         0.0493
      7 C5         -2.2202    5.8172    1.4081 C.ar      1 <0>        -0.0654
      8 C6         -2.2848    7.1918    1.5604 C.ar      1 <0>        -0.1491
      9 C7         -1.7051    8.0061    0.6009 C.ar      1 <0>         0.2941
     10 N1         -1.0961    7.4866   -0.4487 N.ar      1 <0>        -0.4769
     11 C8         -1.0098    6.1822   -0.6258 C.ar      1 <0>         0.0645
     12 F1         -1.7635    9.3485    0.7415 F         1 <0>        -0.1010
     13 C9          0.0021   -0.0041    0.0020 C.3       1 <0>        -0.0465
     14 C10         1.3463    2.0098   -0.0000 C.3       1 <0>        -0.0506
     15 H2         -2.2422    0.3866   -1.0478 H         1 <0>         0.0865
     16 H3         -2.6823    1.8145   -0.0806 H         1 <0>         0.0900
     17 H4         -2.8222    1.8635   -1.8544 H         1 <0>         0.1067
     18 H5          0.2288    3.8776   -1.0565 H         1 <0>         0.0923
     19 H6         -1.3050    3.9048   -1.9592 H         1 <0>         0.1124
     20 H7         -2.6629    5.1583    2.1404 H         1 <0>         0.1584
     21 H8         -2.7814    7.6241    2.4165 H         1 <0>         0.1649
     22 H9         -0.5002    5.7937   -1.4952 H         1 <0>         0.1673
     23 H10         0.5890   -0.3641    0.8470 H         1 <0>         0.1249
     24 H11        -1.0174   -0.3817    0.0806 H         1 <0>         0.1245
     25 H12         0.4494   -0.3563   -0.9275 H         1 <0>         0.1248
     26 H13         1.8658    1.6723   -0.8968 H         1 <0>         0.1265
     27 H14         1.3024    3.0989    0.0063 H         1 <0>         0.1197
     28 H15         1.8828    1.6627    0.8830 H         1 <0>         0.1266
     29 N2         -0.0305    1.4733    0.0344 N.4       1 <0>        -0.3976
     30 H16        -0.4856    1.7779    0.9029 H         1 <0>         0.4354
@<TRIPOS>BOND
     1    1    2 1
     2    1   15 1
     3    1   16 1
     4    1   17 1
     5    2    3 1
     6    2    4 1
     7    2   29 1
     8    4    5 1
     9    4   18 1
    10    4   19 1
    11    5    6 1
    12    6   11 ar
    13    6    7 ar
    14    7    8 ar
    15    7   20 1
    16    8    9 ar
    17    8   21 1
    18    9   10 ar
    19    9   12 1
    20   10   11 ar
    21   11   22 1
    22   13   23 1
    23   13   24 1
    24   13   25 1
    25   13   29 1
    26   14   26 1
    27   14   27 1
    28   14   28 1
    29   14   29 1
    30   29   30 1
@<TRIPOS>MOLECULE
ZINC13819658
   26    26     0     0     0
SMALL
USER_CHARGES
N-methyl-2-[(5-nitro-3-pyridyl)oxy]ethanamine
@<TRIPOS>ATOM
      1 C1         -1.3707    3.5816   -2.4663 C.3       1 <0>        -0.0440
      2 C2         -0.7527    1.5927   -1.2315 C.3       1 <0>         0.0046
      3 C3         -0.0127    1.0858    0.0080 C.3       1 <0>         0.0170
      4 O1         -0.6816    1.5467    1.1837 O.3       1 <0>        -0.3156
      5 C4         -0.1488    1.1821    2.3797 C.ar      1 <0>         0.0683
      6 C5         -0.7416    1.5907    3.5703 C.ar      1 <0>        -0.0357
      7 C6         -0.1621    1.1941    4.7644 C.ar      1 <0>        -0.0567
      8 C7          0.9773    0.4115    4.7345 C.ar      1 <0>         0.1553
      9 N1          1.5142    0.0413    3.5887 N.ar      1 <0>        -0.4271
     10 C8          0.9906    0.3926    2.4308 C.ar      1 <0>         0.0756
     11 N2         -0.7559    1.6030    6.0570 N.pl3     1 <0>         0.0229
     12 O2         -1.7600    2.2922    6.0750 O.2       1 <0>        -0.1396
     13 O3         -0.2405    1.2502    7.1027 O.3       1 <0>        -0.1254
     14 H1         -2.4208    3.2925   -2.4229 H         1 <0>         0.1250
     15 H2         -1.2935    4.6688   -2.4824 H         1 <0>         0.1282
     16 H3         -0.9181    3.1718   -3.3693 H         1 <0>         0.1251
     17 H4         -0.2958    1.1691   -2.1259 H         1 <0>         0.1566
     18 H5         -1.7985    1.2898   -1.1795 H         1 <0>         0.1456
     19 H6          0.0021   -0.0041    0.0020 H         1 <0>         0.1178
     20 H7          1.0099    1.4631    0.0003 H         1 <0>         0.0955
     21 H8         -1.6316    2.2025    3.5636 H         1 <0>         0.1771
     22 H9          1.4334    0.0989    5.6623 H         1 <0>         0.1965
     23 H10         1.4562    0.0661    1.5127 H         1 <0>         0.1793
     24 N3         -0.6645    3.0644   -1.2791 N.4       1 <0>        -0.5225
     25 H11        -1.0928    3.4569   -0.4325 H         1 <0>         0.4411
     26 H12         0.3227    3.3432   -1.3240 H         1 <0>         0.4351
@<TRIPOS>BOND
     1    1   14 1
     2    1   15 1
     3    1   16 1
     4    1   24 1
     5    2    3 1
     6    2   17 1
     7    2   18 1
     8    2   24 1
     9    3    4 1
    10    3   19 1
    11    3   20 1
    12    4    5 1
    13    5   10 ar
    14    5    6 ar
    15    6    7 ar
    16    6   21 1
    17    7    8 ar
    18    7   11 1
    19    8    9 ar
    20    8   22 1
    21    9   10 ar
    22   10   23 1
    23   11   12 2
    24   11   13 1
    25   24   25 1
    26   24   26 1
@<TRIPOS>MOLECULE
ZINC13819609
   27    27     0     0     0
SMALL
USER_CHARGES
2-[(5-bromo-3-pyridyl)oxy]-N,N-dimethyl-ethanamine
@<TRIPOS>ATOM
      1 C1          0.5417    3.6059   -1.5896 C.3       1 <0>        -0.0483
      2 C2         -1.8225    3.5786   -2.1113 C.3       1 <0>        -0.0429
      3 C3         -0.7543    1.5926   -1.2296 C.3       1 <0>         0.0037
      4 C4         -0.0306    1.0863    0.0197 C.3       1 <0>         0.0193
      5 O1         -0.7779    1.4485    1.1827 O.3       1 <0>        -0.3211
      6 C5         -0.2691    1.0713    2.3852 C.ar      1 <0>         0.0682
      7 C6         -0.9375    1.3861    3.5640 C.ar      1 <0>        -0.0697
      8 C7         -0.3796    0.9797    4.7661 C.ar      1 <0>        -0.1097
      9 C8          0.8138    0.2799    4.7540 C.ar      1 <0>         0.1142
     10 N1          1.4210   -0.0024    3.6184 N.ar      1 <0>        -0.4341
     11 C9          0.9210    0.3620    2.4542 C.ar      1 <0>         0.0402
     12 Br1        -1.2398    1.3762    6.4028 Br        1 <0>        -0.0001
     13 H1          0.8111    3.2640   -2.5889 H         1 <0>         0.1269
     14 H2          0.5001    4.6950   -1.5772 H         1 <0>         0.1257
     15 H3          1.2892    3.2627   -0.8743 H         1 <0>         0.1190
     16 H4         -2.7999    3.2880   -1.7260 H         1 <0>         0.1232
     17 H5         -1.7580    4.6658   -2.1554 H         1 <0>         0.1245
     18 H6         -1.6887    3.1658   -3.1111 H         1 <0>         0.1250
     19 H7         -0.2332    1.2395   -2.1195 H         1 <0>         0.1541
     20 H8         -1.7774    1.2165   -1.2344 H         1 <0>         0.1431
     21 H9          0.0626    0.0014   -0.0290 H         1 <0>         0.1141
     22 H10         0.9617    1.5343    0.0714 H         1 <0>         0.0907
     23 H11        -1.8679    1.9341    3.5430 H         1 <0>         0.1567
     24 H12         1.2536   -0.0396    5.6872 H         1 <0>         0.1766
     25 H13         1.4454    0.1087    1.5446 H         1 <0>         0.1647
     26 N2         -0.7786    3.0701   -1.1967 N.4       1 <0>        -0.4014
     27 H14        -0.9930    3.3790   -0.2413 H         1 <0>         0.4373
@<TRIPOS>BOND
     1    1   13 1
     2    1   14 1
     3    1   15 1
     4    1   26 1
     5    2   16 1
     6    2   17 1
     7    2   18 1
     8    2   26 1
     9    3    4 1
    10    3   19 1
    11    3   20 1
    12    3   26 1
    13    4    5 1
    14    4   21 1
    15    4   22 1
    16    5    6 1
    17    6   11 ar
    18    6    7 ar
    19    7    8 ar
    20    7   23 1
    21    8    9 ar
    22    8   12 1
    23    9   10 ar
    24    9   24 1
    25   10   11 ar
    26   11   25 1
    27   26   27 1
@<TRIPOS>MOLECULE
ZINC00001624
   53    55     0     0     0
SMALL
USER_CHARGES

@<TRIPOS>ATOM
      1 C1         -0.5345    1.3876    0.5891 C.3       1 <0>        -0.0637
      2 N1         -0.8728   -0.0335    0.7443 N.4       1 <0>        -0.3784
      3 C2         -0.4779   -0.7639   -0.4661 C.3       1 <0>         0.0307
      4 H1          0.6039   -0.7076   -0.5872 H         1 <0>         0.1441
      5 C3         -0.9012   -2.2292   -0.3430 C.3       1 <0>        -0.1432
      6 C4         -0.2165   -2.8519    0.8771 C.3       1 <0>        -0.1338
      7 C5         -0.5761   -2.0373    2.1231 C.3       1 <0>        -0.1438
      8 C6         -0.1648   -0.5791    1.9086 C.3       1 <0>         0.0380
      9 H2          0.9103   -0.5268    1.7369 H         1 <0>         0.1451
     10 C7         -0.5220    0.2389    3.1513 C.3       1 <0>        -0.1973
     11 C8          0.3188   -0.2212    4.3142 C.2       1 <0>         0.4111
     12 O1          1.1969   -1.0393    4.1414 O.2       1 <0>        -0.4393
     13 C9          0.0741    0.3223    5.6598 C.ar      1 <0>        -0.1847
     14 C10        -0.9416    1.2617    5.8643 C.ar      1 <0>        -0.0760
     15 C11        -1.1650    1.7660    7.1280 C.ar      1 <0>        -0.1304
     16 C12        -0.3872    1.3448    8.1926 C.ar      1 <0>        -0.0738
     17 C13         0.6201    0.4158    7.9982 C.ar      1 <0>        -0.1275
     18 C14         0.8522   -0.1021    6.7416 C.ar      1 <0>        -0.0530
     19 C15        -1.1601   -0.1379   -1.6841 C.3       1 <0>        -0.1764
     20 C16        -0.6804   -0.8417   -2.9551 C.3       1 <0>         0.1585
     21 H3         -0.8469   -1.9148   -2.8610 H         1 <0>         0.1186
     22 C17        -1.4483   -0.3163   -4.1406 C.ar      1 <0>        -0.1341
     23 C18        -1.0265    0.8327   -4.7831 C.ar      1 <0>        -0.1096
     24 C19        -1.7309    1.3147   -5.8705 C.ar      1 <0>        -0.1139
     25 C20        -2.8567    0.6474   -6.3157 C.ar      1 <0>        -0.1081
     26 C21        -3.2779   -0.5021   -5.6737 C.ar      1 <0>        -0.1139
     27 C22        -2.5711   -0.9865   -4.5890 C.ar      1 <0>        -0.1085
     28 O2          0.7140   -0.5905   -3.1414 O.3       1 <0>        -0.5474
     29 H4          0.5421    1.4922    0.4544 H         1 <0>         0.1254
     30 H5         -1.0505    1.7909   -0.2821 H         1 <0>         0.1288
     31 H6         -0.8439    1.9341    1.4800 H         1 <0>         0.1266
     32 H7         -1.9829   -2.2867   -0.2221 H         1 <0>         0.0887
     33 H8         -0.6055   -2.7702   -1.2419 H         1 <0>         0.1146
     34 H9         -0.5584   -3.8793    1.0021 H         1 <0>         0.0967
     35 H10         0.8640   -2.8410    0.7338 H         1 <0>         0.0846
     36 H11        -1.6511   -2.0908    2.2951 H         1 <0>         0.0863
     37 H12        -0.0480   -2.4412    2.9869 H         1 <0>         0.1194
     38 H13        -0.3297    1.2944    2.9591 H         1 <0>         0.1249
     39 H14        -1.5768    0.0988    3.3877 H         1 <0>         0.1231
     40 H15        -1.5491    1.5916    5.0345 H         1 <0>         0.1277
     41 H16        -1.9488    2.4917    7.2876 H         1 <0>         0.1342
     42 H17        -0.5671    1.7434    9.1801 H         1 <0>         0.1346
     43 H18         1.2230    0.0924    8.8338 H         1 <0>         0.1362
     44 H19         1.6357   -0.8303    6.5923 H         1 <0>         0.1368
     45 H20        -2.2405   -0.2494   -1.5927 H         1 <0>         0.1010
     46 H21        -0.9073    0.9211   -1.7378 H         1 <0>         0.0953
     47 H22        -0.1470    1.3540   -4.4353 H         1 <0>         0.1194
     48 H23        -1.4018    2.2127   -6.3721 H         1 <0>         0.1278
     49 H24        -3.4074    1.0243   -7.1648 H         1 <0>         0.1284
     50 H25        -4.1577   -1.0233   -6.0213 H         1 <0>         0.1286
     51 H26        -2.8980   -1.8866   -4.0897 H         1 <0>         0.1238
     52 H27         0.9491    0.3474   -3.1334 H         1 <0>         0.3779
     53 H28        -1.8678   -0.1281    0.8823 H         1 <0>         0.4198
@<TRIPOS>BOND
     1    1    2 1
     2    1   29 1
     3    1   30 1
     4    1   31 1
     5    2    8 1
     6    2    3 1
     7    2   53 1
     8    3    4 1
     9    3    5 1
    10    3   19 1
    11    5    6 1
    12    5   32 1
    13    5   33 1
    14    6    7 1
    15    6   34 1
    16    6   35 1
    17    7    8 1
    18    7   36 1
    19    7   37 1
    20    8    9 1
    21    8   10 1
    22   10   11 1
    23   10   38 1
    24   10   39 1
    25   11   12 2
    26   11   13 1
    27   13   18 ar
    28   13   14 ar
    29   14   15 ar
    30   14   40 1
    31   15   16 ar
    32   15   41 1
    33   16   17 ar
    34   16   42 1
    35   17   18 ar
    36   17   43 1
    37   18   44 1
    38   19   20 1
    39   19   45 1
    40   19   46 1
    41   20   21 1
    42   20   22 1
    43   20   28 1
    44   22   27 ar
    45   22   23 ar
    46   23   24 ar
    47   23   47 1
    48   24   25 ar
    49   24   48 1
    50   25   26 ar
    51   25   49 1
    52   26   27 ar
    53   26   50 1
    54   27   51 1
    55   28   52 1
@<TRIPOS>MOLECULE
ZINC16082005
   55    57     0     0     0
SMALL
USER_CHARGES

@<TRIPOS>ATOM
      1 C1          0.6358    1.8051   -0.1271 C.3       1 <0>        -0.0612
      2 N1          0.4813    0.3593    0.0820 N.4       1 <0>        -0.3782
      3 C2         -0.9234    0.0571    0.3820 C.3       1 <0>         0.0315
      4 H1         -1.2080    0.5438    1.3148 H         1 <0>         0.1441
      5 C3         -1.1052   -1.4559    0.5207 C.3       1 <0>        -0.1427
      6 C4         -0.2169   -1.9692    1.6577 C.3       1 <0>        -0.1355
      7 C5          1.2369   -1.5833    1.3704 C.3       1 <0>        -0.1427
      8 C6          1.3320   -0.0656    1.2002 C.3       1 <0>         0.0308
      9 H2          0.9993    0.4238    2.1156 H         1 <0>         0.1435
     10 C7          2.7832    0.3249    0.9132 C.3       1 <0>        -0.1770
     11 C8          3.6570   -0.0408    2.1147 C.3       1 <0>         0.1590
     12 H3          3.5464   -1.1027    2.3345 H         1 <0>         0.1185
     13 C9          5.0992    0.2588    1.7968 C.ar      1 <0>        -0.1344
     14 C10         5.6005    1.5318    1.9947 C.ar      1 <0>        -0.1101
     15 C11         6.9235    1.8067    1.7030 C.ar      1 <0>        -0.1138
     16 C12         7.7453    0.8085    1.2140 C.ar      1 <0>        -0.1080
     17 C13         7.2442   -0.4647    1.0170 C.ar      1 <0>        -0.1138
     18 C14         5.9224   -0.7406    1.3126 C.ar      1 <0>        -0.1084
     19 O1          3.2503    0.7255    3.2502 O.3       1 <0>        -0.5476
     20 C15        -1.8093    0.5740   -0.7533 C.3       1 <0>        -0.1751
     21 C16        -3.2803    0.3662   -0.3873 C.3       1 <0>         0.1590
     22 H4         -3.4537   -0.6862   -0.1628 H         1 <0>         0.1177
     23 C17        -4.1498    0.7826   -1.5456 C.ar      1 <0>        -0.1350
     24 C18        -4.4222    2.1209   -1.7592 C.ar      1 <0>        -0.1140
     25 C19        -5.2198    2.5029   -2.8217 C.ar      1 <0>        -0.1126
     26 C20        -5.7445    1.5466   -3.6709 C.ar      1 <0>        -0.1076
     27 C21        -5.4713    0.2084   -3.4578 C.ar      1 <0>        -0.1128
     28 C22        -4.6702   -0.1733   -2.3978 C.ar      1 <0>        -0.1066
     29 O2         -3.6024    1.1571    0.7585 O.3       1 <0>        -0.5494
     30 H5          1.6891    2.0394   -0.2811 H         1 <0>         0.1265
     31 H6          0.0641    2.1085   -1.0041 H         1 <0>         0.1255
     32 H7          0.2688    2.3401    0.7488 H         1 <0>         0.1242
     33 H8         -2.1485   -1.6780    0.7452 H         1 <0>         0.1136
     34 H9         -0.8211   -1.9437   -0.4117 H         1 <0>         0.0878
     35 H10        -0.5340   -1.5203    2.5990 H         1 <0>         0.0843
     36 H11        -0.2999   -3.0540    1.7237 H         1 <0>         0.0964
     37 H12         1.8678   -1.8965    2.2022 H         1 <0>         0.1141
     38 H13         1.5697   -2.0737    0.4556 H         1 <0>         0.0879
     39 H14         3.1358   -0.2100    0.0313 H         1 <0>         0.1002
     40 H15         2.8421    1.3986    0.7345 H         1 <0>         0.0949
     41 H16         4.9585    2.3116    2.3768 H         1 <0>         0.1194
     42 H17         7.3150    2.8014    1.8570 H         1 <0>         0.1279
     43 H18         8.7787    1.0234    0.9855 H         1 <0>         0.1285
     44 H19         7.8862   -1.2445    0.6345 H         1 <0>         0.1286
     45 H20         5.5318   -1.7363    1.1622 H         1 <0>         0.1238
     46 H21         3.2425    1.6804    3.0980 H         1 <0>         0.3779
     47 H22        -1.6197    1.6363   -0.9072 H         1 <0>         0.0936
     48 H23        -1.5820    0.0280   -1.6689 H         1 <0>         0.0992
     49 H24        -4.0123    2.8681   -1.0958 H         1 <0>         0.1189
     50 H25        -5.4332    3.5484   -2.9882 H         1 <0>         0.1283
     51 H26        -6.3682    1.8450   -4.5005 H         1 <0>         0.1290
     52 H27        -5.8815   -0.5388   -4.1210 H         1 <0>         0.1292
     53 H28        -4.4537   -1.2185   -2.2335 H         1 <0>         0.1247
     54 H29        -3.5364    2.1103    0.6097 H         1 <0>         0.3793
     55 H30         0.7576   -0.1320   -0.7549 H         1 <0>         0.4187
@<TRIPOS>BOND
     1    1    2 1
     2    1   30 1
     3    1   31 1
     4    1   32 1
     5    2    8 1
     6    2    3 1
     7    2   55 1
     8    3    4 1
     9    3    5 1
    10    3   20 1
    11    5    6 1
    12    5   33 1
    13    5   34 1
    14    6    7 1
    15    6   35 1
    16    6   36 1
    17    7    8 1
    18    7   37 1
    19    7   38 1
    20    8    9 1
    21    8   10 1
    22   10   11 1
    23   10   39 1
    24   10   40 1
    25   11   12 1
    26   11   13 1
    27   11   19 1
    28   13   18 ar
    29   13   14 ar
    30   14   15 ar
    31   14   41 1
    32   15   16 ar
    33   15   42 1
    34   16   17 ar
    35   16   43 1
    36   17   18 ar
    37   17   44 1
    38   18   45 1
    39   19   46 1
    40   20   21 1
    41   20   47 1
    42   20   48 1
    43   21   22 1
    44   21   23 1
    45   21   29 1
    46   23   28 ar
    47   23   24 ar
    48   24   25 ar
    49   24   49 1
    50   25   26 ar
    51   25   50 1
    52   26   27 ar
    53   26   51 1
    54   27   28 ar
    55   27   52 1
    56   28   53 1
    57   29   54 1
@<TRIPOS>MOLECULE
ZINC12397618
   27    28     0     0     0
SMALL
USER_CHARGES
3-ethyl-5-[(2R)-pyrrolidin-2-yl]isoxazole
@<TRIPOS>ATOM
      1 C1          1.5000    7.5148    2.1536 C.3       1 <0>        -0.1526
      2 C2          2.6237    6.5001    1.9334 C.3       1 <0>        -0.0558
      3 C3          2.0294    5.1347    1.7019 C.2       1 <0>         0.0326
      4 C4          2.2676    4.2833    0.5986 C.2       1 <0>        -0.1569
      5 C5          1.5068    3.1927    0.8565 C.2       1 <0>        -0.1203
      6 O1          0.8967    3.4239    2.0274 O.3       1 <0>         0.1078
      7 N1          1.1982    4.5038    2.4802 N.2       1 <0>        -0.3263
      8 C6          1.3770    1.9600   -0.0006 C.3       1 <0>         0.1349
      9 H1          1.6974    2.1707   -1.0209 H         1 <0>         0.1703
     10 C7          2.2089    0.7978    0.5967 C.3       1 <0>        -0.1391
     11 C8          1.4820   -0.4413    0.0110 C.3       1 <0>        -0.1425
     12 C9          0.0021   -0.0041    0.0020 C.3       1 <0>        -0.0100
     13 H2          0.8578    7.5425    1.2733 H         1 <0>         0.0573
     14 H3          0.9117    7.2224    3.0234 H         1 <0>         0.0622
     15 H4          1.9298    8.5024    2.3210 H         1 <0>         0.0740
     16 H5          3.2659    6.4723    2.8137 H         1 <0>         0.0933
     17 H6          3.2120    6.7925    1.0636 H         1 <0>         0.0951
     18 H7          2.9068    4.4618   -0.2533 H         1 <0>         0.1868
     19 H8          2.1590    0.8012    1.6856 H         1 <0>         0.1047
     20 H9          3.2431    0.8414    0.2552 H         1 <0>         0.1253
     21 H10         1.6232   -1.3104    0.6535 H         1 <0>         0.1186
     22 H11         1.8287   -0.6487   -1.0014 H         1 <0>         0.1050
     23 H12        -0.5030   -0.3866    0.8889 H         1 <0>         0.1368
     24 H13        -0.4917   -0.3767   -0.8954 H         1 <0>         0.1396
     25 N2         -0.0127    1.4666    0.0100 N.4       1 <0>        -0.5213
     26 H14        -0.5067    1.8106   -0.8218 H         1 <0>         0.4409
     27 H15        -0.4906    1.8016    0.8548 H         1 <0>         0.4394
@<TRIPOS>BOND
     1    1    2 1
     2    1   13 1
     3    1   14 1
     4    1   15 1
     5    2    3 1
     6    2   16 1
     7    2   17 1
     8    3    7 2
     9    3    4 1
    10    4    5 2
    11    4   18 1
    12    5    6 1
    13    5    8 1
    14    6    7 1
    15    8    9 1
    16    8   10 1
    17    8   25 1
    18   10   11 1
    19   10   19 1
    20   10   20 1
    21   11   12 1
    22   11   21 1
    23   11   22 1
    24   12   23 1
    25   12   24 1
    26   12   25 1
    27   25   26 1
    28   25   27 1
@<TRIPOS>MOLECULE
ZINC13739966
   24    25     0     0     0
SMALL
USER_CHARGES
3-methyl-5-[(2S)-pyrrolidin-2-yl]isothiazole
@<TRIPOS>ATOM
      1 C1         -5.7158    3.1815    4.0759 C.3       1 <0>        -0.0994
      2 C2         -4.7075    3.3482    2.9684 C.2       1 <0>         0.1093
      3 C3         -4.0378    2.2573    2.4603 C.2       1 <0>        -0.1400
      4 C4         -3.1425    2.5028    1.4659 C.2       1 <0>        -0.2364
      5 S1         -3.2765    4.2195    1.2722 S.3       1 <0>         0.2238
      6 N1         -4.4561    4.5330    2.4682 N.2       1 <0>        -0.3828
      7 C5         -2.2648    1.5310    0.7201 C.3       1 <0>         0.1273
      8 H1         -2.6460    0.5156    0.8293 H         1 <0>         0.1639
      9 C6         -0.8010    1.6170    1.2341 C.3       1 <0>        -0.1349
     10 C7         -0.0127    1.0858    0.0080 C.3       1 <0>        -0.1433
     11 C8         -0.8199    1.6271   -1.1906 C.3       1 <0>        -0.0109
     12 H2         -6.7018    3.0051    3.6461 H         1 <0>         0.0948
     13 H3         -5.4340    2.3327    4.6991 H         1 <0>         0.0912
     14 H4         -5.7408    4.0860    4.6837 H         1 <0>         0.0894
     15 H5         -4.2124    1.2591    2.8337 H         1 <0>         0.1694
     16 H6         -0.6504    0.9759    2.1027 H         1 <0>         0.1253
     17 H7         -0.5257    2.6474    1.4588 H         1 <0>         0.1027
     18 H8          0.0021   -0.0041    0.0020 H         1 <0>         0.1051
     19 H9          1.0021    1.4837    0.0005 H         1 <0>         0.1184
     20 H10        -0.3656    2.5470   -1.5586 H         1 <0>         0.1368
     21 H11        -0.8488    0.8816   -1.9853 H         1 <0>         0.1406
     22 N2         -2.1818    1.8980   -0.7058 N.4       1 <0>        -0.5204
     23 H12        -2.3948    2.8962   -0.8175 H         1 <0>         0.4293
     24 H13        -2.8561    1.3418   -1.2444 H         1 <0>         0.4411
@<TRIPOS>BOND
     1    1    2 1
     2    1   12 1
     3    1   13 1
     4    1   14 1
     5    2    6 2
     6    2    3 1
     7    3    4 2
     8    3   15 1
     9    4    5 1
    10    4    7 1
    11    5    6 1
    12    7    8 1
    13    7    9 1
    14    7   22 1
    15    9   10 1
    16    9   16 1
    17    9   17 1
    18   10   11 1
    19   10   18 1
    20   10   19 1
    21   11   20 1
    22   11   21 1
    23   11   22 1
    24   22   23 1
    25   22   24 1
@<TRIPOS>MOLECULE
ZINC01675069
   21    22     0     0     0
SMALL
USER_CHARGES
3-(4,5-dihydro-1H-imidazol-2-yl)pyridine
@<TRIPOS>ATOM
      1 C1         -0.0167    1.3801    0.0096 C.ar      1 <0>        -0.1636
      2 C2          0.0021   -0.0041    0.0020 C.ar      1 <0>        -0.0173
      3 C3          1.2423   -0.6503   -0.0133 C.ar      1 <0>        -0.1965
      4 C4          2.4041    0.1210   -0.0202 C.ar      1 <0>         0.1749
      5 N1          2.3353    1.4360   -0.0130 N.ar      1 <0>        -0.4722
      6 C5          1.1800    2.0731    0.0019 C.ar      1 <0>         0.1670
      7 C6          1.3205   -2.1290   -0.0215 C.cat     1 <0>         0.5731
      8 C7          0.6738   -4.3009   -0.0265 C.3       1 <0>         0.0561
      9 C8          2.2147   -4.2543   -0.0405 C.3       1 <0>         0.0687
     10 N2          2.5093   -2.8116   -0.0418 N.pl3     1 <0>        -0.6648
     11 H1         -0.9560    1.9131    0.0170 H         1 <0>         0.1632
     12 H2         -0.9175   -0.5704    0.0074 H         1 <0>         0.1481
     13 H3          3.3688   -0.3645   -0.0321 H         1 <0>         0.1670
     14 H4          1.1687    3.1530    0.0075 H         1 <0>         0.1818
     15 H5          0.3152   -4.8061    0.8703 H         1 <0>         0.1290
     16 H6          0.2985   -4.7971   -0.9215 H         1 <0>         0.1290
     17 H7          2.6220   -4.7328    0.8501 H         1 <0>         0.1241
     18 H8          2.6055   -4.7264   -0.9420 H         1 <0>         0.1240
     19 H9          3.3933   -2.4124   -0.0529 H         1 <0>         0.4566
     20 N3          0.2701   -2.8854   -0.0156 N.pl3     1 <0>        -0.6210
     21 H10        -0.6997   -2.5485   -0.0048 H         1 <0>         0.4729
@<TRIPOS>BOND
     1    1    6 ar
     2    1    2 ar
     3    1   11 1
     4    2    3 ar
     5    2   12 1
     6    3    4 ar
     7    3    7 1
     8    4    5 ar
     9    4   13 1
    10    5    6 ar
    11    6   14 1
    12    7   10 1
    13    7   20 2
    14    8    9 1
    15    8   15 1
    16    8   16 1
    17    8   20 1
    18    9   10 1
    19    9   17 1
    20    9   18 1
    21   10   19 1
    22   20   21 1
@<TRIPOS>MOLECULE
ZINC13739967
   24    25     0     0     0
SMALL
USER_CHARGES
3-methyl-5-[(2R)-pyrrolidin-2-yl]isothiazole
@<TRIPOS>ATOM
      1 C1          1.1749    0.3966   -5.6891 C.3       1 <0>        -0.0994
      2 C2          1.0018    1.2646   -4.4694 C.2       1 <0>         0.1100
      3 C3          0.1183    0.9078   -3.4750 C.2       1 <0>        -0.1407
      4 C4          0.0279    1.7508   -2.4111 C.2       1 <0>        -0.2355
      5 S1          1.1575    2.9941   -2.8359 S.3       1 <0>         0.2211
      6 N1          1.6895    2.3721   -4.3359 N.2       1 <0>        -0.3824
      7 C5         -0.8371    1.6361   -1.1824 C.3       1 <0>         0.1283
      8 H1         -1.6936    0.9919   -1.3809 H         1 <0>         0.1643
      9 C6         -0.0127    1.0858    0.0080 C.3       1 <0>        -0.1364
     10 C7         -0.8154    1.6241    1.2216 C.3       1 <0>        -0.1421
     11 C8         -1.3035    3.0037    0.7307 C.3       1 <0>        -0.0114
     12 H2          0.4699    0.7082   -6.4598 H         1 <0>         0.0949
     13 H3          2.1928    0.4978   -6.0655 H         1 <0>         0.0894
     14 H4          0.9873   -0.6439   -5.4242 H         1 <0>         0.0913
     15 H5         -0.4723    0.0057   -3.5367 H         1 <0>         0.1695
     16 H6          0.0021   -0.0041    0.0020 H         1 <0>         0.1252
     17 H7          1.0003    1.4880    0.0005 H         1 <0>         0.1027
     18 H8         -1.6609    0.9730    1.4438 H         1 <0>         0.1052
     19 H9         -0.1702    1.7307    2.0937 H         1 <0>         0.1186
     20 H10        -0.6341    3.7838    1.0933 H         1 <0>         0.1367
     21 H11        -2.3168    3.1899    1.0868 H         1 <0>         0.1408
     22 N2         -1.2858    2.9693   -0.7395 N.4       1 <0>        -0.5205
     23 H12        -2.2298    3.1522   -1.0996 H         1 <0>         0.4413
     24 H13        -0.6400    3.6850   -1.0930 H         1 <0>         0.4290
@<TRIPOS>BOND
     1    1    2 1
     2    1   12 1
     3    1   13 1
     4    1   14 1
     5    2    6 2
     6    2    3 1
     7    3    4 2
     8    3   15 1
     9    4    5 1
    10    4    7 1
    11    5    6 1
    12    7    8 1
    13    7    9 1
    14    7   22 1
    15    9   10 1
    16    9   16 1
    17    9   17 1
    18   10   11 1
    19   10   18 1
    20   10   19 1
    21   11   20 1
    22   11   21 1
    23   11   22 1
    24   22   23 1
    25   22   24 1
@<TRIPOS>MOLECULE
ZINC13491700
   31    32     0     0     0
SMALL
USER_CHARGES
3-[(E)-2-(1-ethyl-4,5-dihydroimidazol-2-yl)vinyl]pyridine
@<TRIPOS>ATOM
      1 C1         -0.0187    1.5258    0.0104 C.3       1 <0>        -0.1810
      2 C2          0.0021   -0.0041    0.0020 C.3       1 <0>         0.1143
      3 N1         -1.3723   -0.5112    0.0124 N.pl3     1 <0>        -0.5577
      4 C3         -2.1925   -0.8031   -1.1749 C.3       1 <0>         0.0678
      5 C4         -3.5229   -1.2998   -0.5757 C.3       1 <0>         0.0611
      6 C5         -2.1144   -0.8012    1.1319 C.cat     1 <0>         0.5444
      7 C6         -1.6005   -0.6320    2.4975 C.2       1 <0>        -0.2163
      8 C7         -2.3794   -0.9347    3.5515 C.2       1 <0>         0.0523
      9 C8         -1.8640   -0.7649    4.9210 C.ar      1 <0>        -0.1702
     10 C9         -2.6654   -1.0767    6.0284 C.ar      1 <0>        -0.0318
     11 C10        -2.1333   -0.8997    7.2927 C.ar      1 <0>        -0.1728
     12 C11        -0.8399   -0.4254    7.4234 C.ar      1 <0>         0.1399
     13 N2         -0.1077   -0.1402    6.3636 N.ar      1 <0>        -0.4827
     14 C12        -0.5659   -0.2958    5.1390 C.ar      1 <0>         0.1417
     15 H1          1.0039    1.9031    0.0027 H         1 <0>         0.0927
     16 H2         -0.5459    1.8868   -0.8726 H         1 <0>         0.0689
     17 H3         -0.5289    1.8773    0.9072 H         1 <0>         0.0664
     18 H4          0.5123   -0.3556   -0.8948 H         1 <0>         0.1123
     19 H5          0.5293   -0.3651    0.8851 H         1 <0>         0.1042
     20 H6         -2.3501    0.1000   -1.7646 H         1 <0>         0.1179
     21 H7         -1.7275   -1.5803   -1.7815 H         1 <0>         0.1190
     22 H8         -4.3426   -0.6448   -0.8709 H         1 <0>         0.1241
     23 H9         -3.7220   -2.3255   -0.8863 H         1 <0>         0.1243
     24 H10        -0.5973   -0.2645    2.6552 H         1 <0>         0.1672
     25 H11        -3.3826   -1.3022    3.3937 H         1 <0>         0.1343
     26 H12        -3.6722   -1.4451    5.8976 H         1 <0>         0.1463
     27 H13        -2.7211   -1.1298    8.1690 H         1 <0>         0.1508
     28 H14        -0.4227   -0.2865    8.4098 H         1 <0>         0.1700
     29 H15         0.0654   -0.0555    4.2964 H         1 <0>         0.1609
     30 N3         -3.3120   -1.2352    0.8793 N.pl3     1 <0>        -0.6365
     31 H16        -4.0076   -1.4945    1.5887 H         1 <0>         0.4681
@<TRIPOS>BOND
     1    1    2 1
     2    1   15 1
     3    1   16 1
     4    1   17 1
     5    2    3 1
     6    2   18 1
     7    2   19 1
     8    3    6 1
     9    3    4 1
    10    4    5 1
    11    4   20 1
    12    4   21 1
    13    5   22 1
    14    5   23 1
    15    5   30 1
    16    6    7 1
    17    6   30 2
    18    7    8 2
    19    7   24 1
    20    8    9 1
    21    8   25 1
    22    9   14 ar
    23    9   10 ar
    24   10   11 ar
    25   10   26 1
    26   11   12 ar
    27   11   27 1
    28   12   13 ar
    29   12   28 1
    30   13   14 ar
    31   14   29 1
    32   30   31 1
@<TRIPOS>MOLECULE
ZINC04018167
   26    26     0     0     0
SMALL
USER_CHARGES
N,N-dimethyl-2-(3-pyridyl)ethanamine
@<TRIPOS>ATOM
      1 C1          5.1418    4.3316   -0.9080 C.3       1 <0>        -0.0478
      2 C2          4.3082    5.5892   -2.8017 C.3       1 <0>        -0.0428
      3 C3          2.7809    4.2906   -1.4439 C.3       1 <0>        -0.0034
      4 C4          2.3671    4.0041    0.0009 C.3       1 <0>        -0.0965
      5 C5          1.1060    3.1790    0.0081 C.ar      1 <0>        -0.1644
      6 C6          1.1732    1.7939    0.0005 C.ar      1 <0>        -0.0639
      7 C7         -0.0126    1.0758    0.0080 C.ar      1 <0>        -0.1661
      8 C8         -1.2139    1.7594    0.0173 C.ar      1 <0>         0.1170
      9 N1         -1.2397    3.0777    0.0299 N.ar      1 <0>        -0.4781
     10 C9         -0.1318    3.7931    0.0227 C.ar      1 <0>         0.1127
     11 H1          5.3036    3.4407   -1.5148 H         1 <0>         0.1234
     12 H2          6.0389    4.9505   -0.9247 H         1 <0>         0.1239
     13 H3          4.9225    4.0372    0.1183 H         1 <0>         0.1221
     14 H4          3.4829    6.2092   -3.1520 H         1 <0>         0.1222
     15 H5          5.2230    6.1814   -2.7783 H         1 <0>         0.1238
     16 H6          4.4398    4.7439   -3.4771 H         1 <0>         0.1228
     17 H7          2.9595    3.3496   -1.9641 H         1 <0>         0.1319
     18 H8          1.9850    4.8390   -1.9478 H         1 <0>         0.1314
     19 H9          2.1885    4.9452    0.5212 H         1 <0>         0.0989
     20 H10         3.1629    3.4557    0.5049 H         1 <0>         0.0971
     21 H11         2.1266    1.2867   -0.0113 H         1 <0>         0.1369
     22 H12         0.0021   -0.0041    0.0020 H         1 <0>         0.1443
     23 H13        -2.1422    1.2074    0.0190 H         1 <0>         0.1649
     24 H14        -0.1926    4.8713    0.0287 H         1 <0>         0.1562
     25 N2          4.0059    5.1177   -1.4339 N.4       1 <0>        -0.3986
     26 H15         3.8539    5.9314   -0.8265 H         1 <0>         0.4320
@<TRIPOS>BOND
     1    1   11 1
     2    1   12 1
     3    1   13 1
     4    1   25 1
     5    2   14 1
     6    2   15 1
     7    2   16 1
     8    2   25 1
     9    3    4 1
    10    3   17 1
    11    3   18 1
    12    3   25 1
    13    4    5 1
    14    4   19 1
    15    4   20 1
    16    5   10 ar
    17    5    6 ar
    18    6    7 ar
    19    6   21 1
    20    7    8 ar
    21    7   22 1
    22    8    9 ar
    23    8   23 1
    24    9   10 ar
    25   10   24 1
    26   25   26 1
@<TRIPOS>MOLECULE
ZINC27526089
   26    26     0     0     0
SMALL
USER_CHARGES
N,N-dimethyl-2-(3-pyridyl)acetamidine
@<TRIPOS>ATOM
      1 C1          4.2958    5.2994   -3.0623 C.3       1 <0>         0.0474
      2 N1          3.8996    5.0250   -1.6789 N.pl3     1 <0>        -0.5647
      3 C2          4.7061    5.5407   -0.5699 C.3       1 <0>         0.0519
      4 C3          2.7747    4.2863   -1.4222 C.cat     1 <0>         0.5226
      5 N2          2.0627    3.8311   -2.4011 N.pl3     1 <0>        -0.7659
      6 C4          2.3671    4.0041    0.0009 C.3       1 <0>        -0.0678
      7 C5          1.1060    3.1790    0.0081 C.ar      1 <0>        -0.2014
      8 C6          1.1732    1.7939    0.0005 C.ar      1 <0>        -0.0575
      9 C7         -0.0126    1.0758    0.0080 C.ar      1 <0>        -0.1645
     10 C8         -1.2139    1.7594    0.0173 C.ar      1 <0>         0.1286
     11 N3         -1.2397    3.0777    0.0299 N.ar      1 <0>        -0.4738
     12 C9         -0.1318    3.7931    0.0227 C.ar      1 <0>         0.1202
     13 H1          3.5737    4.8344   -3.7496 H         1 <0>         0.0820
     14 H2          5.2974    4.8834   -3.2462 H         1 <0>         0.1037
     15 H3          4.3138    6.3864   -3.2298 H         1 <0>         0.1040
     16 H4          4.2544    5.2347    0.3852 H         1 <0>         0.1009
     17 H5          4.7429    6.6388   -0.6229 H         1 <0>         0.0984
     18 H6          5.7265    5.1358   -0.6394 H         1 <0>         0.0979
     19 H7          1.1595    3.2380   -2.1950 H         1 <0>         0.4712
     20 H8          3.1703    3.4507    0.5094 H         1 <0>         0.1428
     21 H9          2.1869    4.9538    0.5259 H         1 <0>         0.1445
     22 H10         2.1266    1.2867   -0.0113 H         1 <0>         0.1440
     23 H11         0.0021   -0.0041    0.0020 H         1 <0>         0.1501
     24 H12        -2.1422    1.2074    0.0190 H         1 <0>         0.1701
     25 H13        -0.1926    4.8713    0.0287 H         1 <0>         0.1623
     26 H14         2.3603    4.0370   -3.4399 H         1 <0>         0.4530
@<TRIPOS>BOND
     1    1    2 1
     2    1   13 1
     3    1   14 1
     4    1   15 1
     5    2    3 1
     6    2    4 1
     7    3   16 1
     8    3   17 1
     9    3   18 1
    10    4    5 2
    11    4    6 1
    12    5   19 1
    13    5   26 1
    14    6    7 1
    15    6   20 1
    16    6   21 1
    17    7   12 ar
    18    7    8 ar
    19    8    9 ar
    20    8   22 1
    21    9   10 ar
    22    9   23 1
    23   10   11 ar
    24   10   24 1
    25   11   12 ar
    26   12   25 1
@<TRIPOS>MOLECULE
ZINC00066462
   25    26     0     0     0
SMALL
USER_CHARGES
3-(4,5-dihydro-1H-imidazol-2-ylmethoxy)pyridine
@<TRIPOS>ATOM
      1 C1          2.3319    1.4059   -0.0126 C.ar      1 <0>        -0.1262
      2 C2          2.3965    0.0216   -0.0212 C.ar      1 <0>        -0.0898
      3 C3          1.2048   -0.6957   -0.0136 C.ar      1 <0>         0.0576
      4 C4          0.0021   -0.0041    0.0020 C.ar      1 <0>         0.0291
      5 N1         -0.0158    1.3139    0.0093 N.ar      1 <0>        -0.4457
      6 C5          1.0957    2.0237    0.0025 C.ar      1 <0>         0.0860
      7 O1          1.2183   -2.0548   -0.0211 O.3       1 <0>        -0.3173
      8 C6         -0.0484   -2.7162   -0.0120 C.3       1 <0>         0.0707
      9 C7          0.1639   -4.2081   -0.0222 C.cat     1 <0>         0.5152
     10 C8          1.2165   -6.2074   -0.0433 C.3       1 <0>         0.0482
     11 C9         -0.3048   -6.4598   -0.0296 C.3       1 <0>         0.0690
     12 N2         -0.8677   -5.0988   -0.0167 N.pl3     1 <0>        -0.6590
     13 H1          3.2371    1.9950   -0.0185 H         1 <0>         0.1539
     14 H2          3.3487   -0.4877   -0.0337 H         1 <0>         0.1487
     15 H3         -0.9291   -0.5512    0.0080 H         1 <0>         0.1577
     16 H4          1.0391    3.1022    0.0088 H         1 <0>         0.1695
     17 H5         -0.5994   -2.4337    0.8850 H         1 <0>         0.1353
     18 H6         -0.6171   -2.4241   -0.8949 H         1 <0>         0.1353
     19 H7          1.6828   -6.6314    0.8460 H         1 <0>         0.1319
     20 H8          1.6654   -6.6240   -0.9450 H         1 <0>         0.1315
     21 H9         -0.5967   -7.0059    0.8674 H         1 <0>         0.1256
     22 H10        -0.6170   -6.9974   -0.9249 H         1 <0>         0.1258
     23 H11        -1.8114   -4.8746   -0.0066 H         1 <0>         0.4603
     24 N3          1.3337   -4.7395   -0.0422 N.pl3     1 <0>        -0.5963
     25 H12         2.2183   -4.2183   -0.0553 H         1 <0>         0.4828
@<TRIPOS>BOND
     1    1    6 ar
     2    1    2 ar
     3    1   13 1
     4    2    3 ar
     5    2   14 1
     6    3    4 ar
     7    3    7 1
     8    4    5 ar
     9    4   15 1
    10    5    6 ar
    11    6   16 1
    12    7    8 1
    13    8    9 1
    14    8   17 1
    15    8   18 1
    16    9   12 1
    17    9   24 2
    18   10   11 1
    19   10   19 1
    20   10   20 1
    21   10   24 1
    22   11   12 1
    23   11   21 1
    24   11   22 1
    25   12   23 1
    26   24   25 1
@<TRIPOS>MOLECULE
ZINC01442802
   20    20     0     0     0
SMALL
USER_CHARGES
2-(3-pyridyl)acetamidine
@<TRIPOS>ATOM
      1 C1         -0.5029    0.7675   -1.0806 C.ar      1 <0>        -0.1646
      2 C2          0.6316    1.4471   -0.6635 C.ar      1 <0>        -0.0570
      3 C3          0.5383    2.8122   -0.4404 C.ar      1 <0>        -0.2088
      4 C4         -0.6738    3.4459   -0.6396 C.ar      1 <0>         0.1211
      5 N1         -1.7324    2.7674   -1.0369 N.ar      1 <0>        -0.4734
      6 C5         -1.6789    1.4694   -1.2644 C.ar      1 <0>         0.1306
      7 C6          1.7430    3.5952    0.0142 C.3       1 <0>        -0.0738
      8 C7          2.4962    4.1017   -1.1888 C.cat     1 <0>         0.5462
      9 N2          3.6349    4.8447   -1.0212 N.pl3     1 <0>        -0.7763
     10 H1         -0.4666   -0.2962   -1.2640 H         1 <0>         0.1512
     11 H2          1.5658    0.9255   -0.5163 H         1 <0>         0.1456
     12 H3         -0.7550    4.5091   -0.4677 H         1 <0>         0.1639
     13 H4         -2.5656    0.9483   -1.5937 H         1 <0>         0.1710
     14 H5          1.4191    4.4399    0.6222 H         1 <0>         0.1484
     15 H6          2.3936    2.9505    0.6052 H         1 <0>         0.1466
     16 H7          2.4827    4.1160   -3.2162 H         1 <0>         0.4408
     17 H8          3.9563    5.0449   -0.1281 H         1 <0>         0.4477
     18 H9          4.1197    5.1707   -1.7956 H         1 <0>         0.4300
     19 N3          2.0089    3.7964   -2.3713 N.pl3     1 <0>        -0.7491
     20 H10         1.1515    3.2363   -2.4442 H         1 <0>         0.4600
@<TRIPOS>BOND
     1    1    6 ar
     2    1    2 ar
     3    1   10 1
     4    2    3 ar
     5    2   11 1
     6    3    4 ar
     7    3    7 1
     8    4    5 ar
     9    4   12 1
    10    5    6 ar
    11    6   13 1
    12    7    8 1
    13    7   14 1
    14    7   15 1
    15    8    9 1
    16    8   19 2
    17    9   17 1
    18    9   18 1
    19   16   19 1
    20   19   20 1
@<TRIPOS>MOLECULE
ZINC01529277
   18    18     0     0     0
SMALL
USER_CHARGES
piperidine
@<TRIPOS>ATOM
      1 C1         -2.1703    1.0639    1.2644 C.3       1 <0>        -0.1409
      2 C2         -0.7286    1.5791    1.2674 C.3       1 <0>        -0.1486
      3 C3         -0.0127    1.0858    0.0080 C.3       1 <0>        -0.0037
      4 C4         -2.0949    1.0518   -1.2313 C.3       1 <0>        -0.0037
      5 C5         -2.8727    1.5441   -0.0087 C.3       1 <0>        -0.1486
      6 H1         -2.6965    1.4486    2.1379 H         1 <0>         0.0937
      7 H2         -2.1678   -0.0258    1.2901 H         1 <0>         0.0815
      8 H3         -0.2106    1.2051    2.1506 H         1 <0>         0.1114
      9 H4         -0.7316    2.6691    1.2810 H         1 <0>         0.0876
     10 H5          0.0021   -0.0041    0.0020 H         1 <0>         0.1290
     11 H6          1.0099    1.4629    0.0003 H         1 <0>         0.1312
     12 H7         -2.5844    1.4040   -2.1392 H         1 <0>         0.1312
     13 H8         -2.0703   -0.0380   -1.2313 H         1 <0>         0.1290
     14 H9         -2.9094    2.6334   -0.0152 H         1 <0>         0.0876
     15 H10        -3.8866    1.1450   -0.0375 H         1 <0>         0.1114
     16 N1         -0.7177    1.5794   -1.1903 N.4       1 <0>        -0.5164
     17 H11        -0.2128    1.2727   -2.0301 H         1 <0>         0.4361
     18 H12        -0.7491    2.6054   -1.1656 H         1 <0>         0.4321
@<TRIPOS>BOND
     1    1    5 1
     2    1    2 1
     3    1    6 1
     4    1    7 1
     5    2    3 1
     6    2    8 1
     7    2    9 1
     8    3   10 1
     9    3   11 1
    10    3   16 1
    11    4    5 1
    12    4   12 1
    13    4   13 1
    14    4   16 1
    15    5   14 1
    16    5   15 1
    17   16   17 1
    18   16   18 1
@<TRIPOS>MOLECULE
ZINC03930459
   24    24     0     0     0
SMALL
USER_CHARGES
1-(1-methyl-5,6-dihydro-2H-pyridin-3-yl)ethanone
@<TRIPOS>ATOM
      1 C1          1.3816    1.0358   -2.5725 C.3       1 <0>        -0.1978
      2 C2         -0.0320    1.5526   -2.4970 C.2       1 <0>         0.3878
      3 O1         -0.5886    1.9457   -3.5009 O.2       1 <0>        -0.4341
      4 C3         -0.7329    1.5803   -1.2136 C.2       1 <0>        -0.2470
      5 C4         -1.9744    2.0398   -1.1807 C.2       1 <0>        -0.0424
      6 C5         -2.7756    2.1158    0.0892 C.3       1 <0>        -0.1323
      7 C6         -2.1263    1.2380    1.1621 C.3       1 <0>        -0.0056
      8 C7         -0.0127    1.0858    0.0080 C.3       1 <0>         0.0486
      9 C8         -0.0806    0.9816    2.4255 C.3       1 <0>        -0.0424
     10 H1          1.6831    0.7555   -1.6612 H         1 <0>         0.0706
     11 H2          1.4202    0.1805   -3.2471 H         1 <0>         0.1051
     12 H3          2.0367    1.8229   -2.9459 H         1 <0>         0.1044
     13 H4         -2.4290    2.3733   -2.1019 H         1 <0>         0.1542
     14 H5         -2.8080    3.1485    0.4364 H         1 <0>         0.1188
     15 H6         -3.7900    1.7649   -0.1004 H         1 <0>         0.1352
     16 H7         -2.5871    1.4405    2.1289 H         1 <0>         0.1403
     17 H8         -2.2603    0.1871    0.9056 H         1 <0>         0.1356
     18 H9          0.0021   -0.0041    0.0020 H         1 <0>         0.1441
     19 H10         1.0107    1.4608    0.0003 H         1 <0>         0.1434
     20 H11         0.9832    1.2185    2.4400 H         1 <0>         0.1255
     21 H12        -0.5582    1.4003    3.3113 H         1 <0>         0.1262
     22 H13        -0.2119   -0.1005    2.4192 H         1 <0>         0.1252
     23 N1         -0.6929    1.5805    1.2207 N.4       1 <0>        -0.3963
     24 H14        -0.5936    2.6014    1.2676 H         1 <0>         0.4328
@<TRIPOS>BOND
     1    1    2 1
     2    1   10 1
     3    1   11 1
     4    1   12 1
     5    2    3 2
     6    2    4 1
     7    4    8 1
     8    4    5 2
     9    5    6 1
    10    5   13 1
    11    6    7 1
    12    6   14 1
    13    6   15 1
    14    7   16 1
    15    7   17 1
    16    7   23 1
    17    8   18 1
    18    8   19 1
    19    8   23 1
    20    9   20 1
    21    9   21 1
    22    9   22 1
    23    9   23 1
    24   23   24 1
@<TRIPOS>MOLECULE
ZINC28096944
   32    33     0     0     0
SMALL
USER_CHARGES
(2S)-2-(4-methoxyphenyl)-1-methyl-pyrrolidine
@<TRIPOS>ATOM
      1 C1          1.1852    3.2457   -0.4557 C.3       1 <0>        -0.0550
      2 N1          1.0862    2.0964    0.4538 N.4       1 <0>        -0.4036
      3 C2          0.7084    2.5297    1.8159 C.3       1 <0>        -0.0104
      4 C3         -0.1622    1.3750    2.3712 C.3       1 <0>        -0.1446
      5 C4         -0.9480    0.9390    1.1066 C.3       1 <0>        -0.1317
      6 C5          0.0832    1.1279   -0.0258 C.3       1 <0>         0.0888
      7 H1          0.5891    0.1893   -0.2960 H         1 <0>         0.1428
      8 C6         -0.5972    1.6630   -1.2594 C.ar      1 <0>        -0.1886
      9 C7         -1.4092    2.7786   -1.1708 C.ar      1 <0>        -0.0643
     10 C8         -2.0295    3.2744   -2.3011 C.ar      1 <0>        -0.2070
     11 C9         -1.8463    2.6452   -3.5239 C.ar      1 <0>         0.1641
     12 C10        -1.0357    1.5226   -3.6092 C.ar      1 <0>        -0.1481
     13 C11        -0.4131    1.0341   -2.4769 C.ar      1 <0>        -0.0480
     14 O1         -2.4596    3.1280   -4.6364 O.3       1 <0>        -0.3069
     15 C12        -3.2795    4.2871   -4.4740 C.3       1 <0>         0.0177
     16 H2          1.9388    3.9508   -0.0749 H         1 <0>         0.1196
     17 H3          0.2094    3.7497   -0.5172 H         1 <0>         0.1236
     18 H4          1.4816    2.8972   -1.4560 H         1 <0>         0.1226
     19 H5          1.6167    2.6812    2.4176 H         1 <0>         0.1331
     20 H6          0.1456    3.4730    1.7577 H         1 <0>         0.1250
     21 H7          0.4894    0.5842    2.7711 H         1 <0>         0.0997
     22 H8         -0.8098    1.7574    3.1740 H         1 <0>         0.1152
     23 H9         -1.2680   -0.1077    1.2165 H         1 <0>         0.1154
     24 H10        -1.8322    1.5818    0.9846 H         1 <0>         0.1007
     25 H11        -1.5549    3.2655   -0.2178 H         1 <0>         0.1289
     26 H12        -2.6601    4.1485   -2.2322 H         1 <0>         0.1401
     27 H13        -0.8912    1.0312   -4.5600 H         1 <0>         0.1442
     28 H14         0.2184    0.1604   -2.5428 H         1 <0>         0.1391
     29 H15        -3.7119    4.5693   -5.4453 H         1 <0>         0.1132
     30 H16        -2.6688    5.1172   -4.0894 H         1 <0>         0.0622
     31 H17        -4.0889    4.0669   -3.7623 H         1 <0>         0.0632
     32 H18         2.0780    1.6212    0.4747 H         1 <0>         0.4489
@<TRIPOS>BOND
     1    1    2 1
     2    1   16 1
     3    1   17 1
     4    1   18 1
     5    2    6 1
     6    2    3 1
     7    2   32 1
     8    3    4 1
     9    3   19 1
    10    3   20 1
    11    4    5 1
    12    4   21 1
    13    4   22 1
    14    5    6 1
    15    5   23 1
    16    5   24 1
    17    6    7 1
    18    6    8 1
    19    8   13 ar
    20    8    9 ar
    21    9   10 ar
    22    9   25 1
    23   10   11 ar
    24   10   26 1
    25   11   12 ar
    26   11   14 1
    27   12   13 ar
    28   12   27 1
    29   13   28 1
    30   14   15 1
    31   15   29 1
    32   15   30 1
    33   15   31 1
@<TRIPOS>MOLECULE
ZINC28096950
   32    33     0     0     0
SMALL
USER_CHARGES
(2R)-2-(4-methoxyphenyl)-1-methyl-pyrrolidine
@<TRIPOS>ATOM
      1 C1          1.5770    3.3105   -0.4858 C.3       1 <0>        -0.0507
      2 N1          1.4135    1.9334   -0.0011 N.4       1 <0>        -0.4127
      3 C2         -0.0189    1.5396    0.0105 C.3       1 <0>         0.0004
      4 C3          0.0021   -0.0041    0.0020 C.3       1 <0>        -0.1468
      5 C4          1.3640   -0.3831   -0.6154 C.3       1 <0>        -0.1343
      6 C5          2.0513    0.9634   -0.9281 C.3       1 <0>         0.0964
      7 H1          1.9436    1.2877   -1.9737 H         1 <0>         0.1464
      8 C6          3.5316    0.8725   -0.6607 C.ar      1 <0>        -0.1808
      9 C7          4.0078    0.9880    0.6322 C.ar      1 <0>        -0.0801
     10 C8          5.3638    0.8993    0.8806 C.ar      1 <0>        -0.1976
     11 C9          6.2490    0.7059   -0.1699 C.ar      1 <0>         0.1580
     12 C10         5.7692    0.5959   -1.4670 C.ar      1 <0>        -0.1401
     13 C11         4.4118    0.6792   -1.7094 C.ar      1 <0>        -0.0482
     14 O1          7.5840    0.6248    0.0711 O.3       1 <0>        -0.3070
     15 C12         8.0064    0.7466    1.4308 C.3       1 <0>         0.0179
     16 H2          1.0966    4.0063    0.2178 H         1 <0>         0.1239
     17 H3          1.1084    3.4087   -1.4762 H         1 <0>         0.1186
     18 H4          2.6484    3.5476   -0.5620 H         1 <0>         0.1225
     19 H5         -0.5012    1.9376    0.9155 H         1 <0>         0.1317
     20 H6         -0.5185    1.9472   -0.8807 H         1 <0>         0.1310
     21 H7         -0.0941   -0.3778    1.0321 H         1 <0>         0.0988
     22 H8         -0.8361   -0.3789   -0.6038 H         1 <0>         0.1113
     23 H9          1.9428   -0.9752    0.1087 H         1 <0>         0.1017
     24 H10         1.2009   -0.9765   -1.5272 H         1 <0>         0.1134
     25 H11         3.3187    1.1437    1.4491 H         1 <0>         0.1191
     26 H12         5.7349    0.9849    1.8913 H         1 <0>         0.1405
     27 H13         6.4564    0.4457   -2.2865 H         1 <0>         0.1452
     28 H14         4.0377    0.5937   -2.7189 H         1 <0>         0.1403
     29 H15         9.1020    0.6633    1.4832 H         1 <0>         0.1130
     30 H16         7.5487   -0.0543    2.0301 H         1 <0>         0.0627
     31 H17         7.6936    1.7245    1.8257 H         1 <0>         0.0620
     32 H18         1.8655    1.9239    1.0017 H         1 <0>         0.4434
@<TRIPOS>BOND
     1    1    2 1
     2    1   16 1
     3    1   17 1
     4    1   18 1
     5    2    6 1
     6    2    3 1
     7    2   32 1
     8    3    4 1
     9    3   19 1
    10    3   20 1
    11    4    5 1
    12    4   21 1
    13    4   22 1
    14    5    6 1
    15    5   23 1
    16    5   24 1
    17    6    7 1
    18    6    8 1
    19    8   13 ar
    20    8    9 ar
    21    9   10 ar
    22    9   25 1
    23   10   11 ar
    24   10   26 1
    25   11   12 ar
    26   11   14 1
    27   12   13 ar
    28   12   27 1
    29   13   28 1
    30   14   15 1
    31   15   29 1
    32   15   30 1
    33   15   31 1
@<TRIPOS>MOLECULE
ZINC01726143
   28    29     0     0     0
SMALL
USER_CHARGES
2-(4-bromophenyl)-1-methyl-pyrrolidine
@<TRIPOS>ATOM
      1 C1          1.1853    3.2474   -0.4535 C.3       1 <0>        -0.0455
      2 C2          0.7075    2.5296    1.8174 C.3       1 <0>        -0.0101
      3 C3         -0.1630    1.3742    2.3713 C.3       1 <0>        -0.1445
      4 C4         -0.9479    0.9388    1.1060 C.3       1 <0>        -0.1360
      5 C5          0.0839    1.1289   -0.0257 C.3       1 <0>         0.0733
      6 H1          0.5659    0.1777   -0.2517 H         1 <0>         0.1446
      7 C6         -0.5961    1.6646   -1.2593 C.ar      1 <0>        -0.1279
      8 C7         -1.4080    2.7800   -1.1715 C.ar      1 <0>        -0.1027
      9 C8         -2.0280    3.2746   -2.3035 C.ar      1 <0>        -0.0851
     10 C9         -1.8444    2.6471   -3.5225 C.ar      1 <0>        -0.0674
     11 C10        -1.0361    1.5279   -3.6089 C.ar      1 <0>        -0.0832
     12 C11        -0.4123    1.0371   -2.4773 C.ar      1 <0>        -0.0840
     13 Br1        -2.6976    3.3193   -5.0704 Br        1 <0>        -0.0165
     14 H2          0.2671    3.8324   -0.4007 H         1 <0>         0.1241
     15 H3          2.0304    3.8703   -0.1603 H         1 <0>         0.1223
     16 H4          1.3321    2.8928   -1.4737 H         1 <0>         0.1222
     17 H5          1.5965    2.6640    2.4337 H         1 <0>         0.1365
     18 H6          0.1303    3.4533    1.7758 H         1 <0>         0.1318
     19 H7          0.4593    0.5605    2.7440 H         1 <0>         0.1008
     20 H8         -0.8396    1.7324    3.1472 H         1 <0>         0.1184
     21 H9         -1.8142    1.5816    0.9496 H         1 <0>         0.1016
     22 H10        -1.2502   -0.1058    1.1804 H         1 <0>         0.1157
     23 H11        -1.5546    3.2675   -0.2190 H         1 <0>         0.1366
     24 H12        -2.6587    4.1487   -2.2356 H         1 <0>         0.1460
     25 H13        -0.8921    1.0378   -4.5604 H         1 <0>         0.1470
     26 H14         0.2191    0.1635   -2.5447 H         1 <0>         0.1424
     27 N1          1.0929    2.0820    0.4642 N.4       1 <0>        -0.3940
     28 H15         2.0070    1.6164    0.5078 H         1 <0>         0.4336
@<TRIPOS>BOND
     1    1   14 1
     2    1   15 1
     3    1   16 1
     4    1   27 1
     5    2    3 1
     6    2   17 1
     7    2   18 1
     8    2   27 1
     9    3    4 1
    10    3   19 1
    11    3   20 1
    12    4    5 1
    13    4   21 1
    14    4   22 1
    15    5    6 1
    16    5    7 1
    17    5   27 1
    18    7   12 ar
    19    7    8 ar
    20    8    9 ar
    21    8   23 1
    22    9   10 ar
    23    9   24 1
    24   10   11 ar
    25   10   13 1
    26   11   12 ar
    27   11   25 1
    28   12   26 1
    29   27   28 1
@<TRIPOS>MOLECULE
ZINC05052973
   28    29     0     0     0
SMALL
USER_CHARGES
2-(4-bromophenyl)-1-methyl-pyrrolidine
@<TRIPOS>ATOM
      1 C1         -1.5984    0.5837    1.7789 C.3       1 <0>        -0.0377
      2 C2          0.4572    1.8162    2.2074 C.3       1 <0>        -0.0081
      3 C3          1.5695    2.4238    1.3162 C.3       1 <0>        -0.1481
      4 C4          1.4278    1.6301   -0.0028 C.3       1 <0>        -0.1388
      5 C5         -0.0127    1.0858    0.0080 C.3       1 <0>         0.0764
      6 H1          0.0021   -0.0041    0.0020 H         1 <0>         0.1480
      7 C6         -0.7631    1.5954   -1.1954 C.ar      1 <0>        -0.1220
      8 C7         -1.2866    2.8749   -1.1925 C.ar      1 <0>        -0.1204
      9 C8         -1.9707    3.3444   -2.2979 C.ar      1 <0>        -0.0744
     10 C9         -2.1407    2.5302   -3.4031 C.ar      1 <0>        -0.0734
     11 C10        -1.6213    1.2481   -3.4035 C.ar      1 <0>        -0.0760
     12 C11        -0.9327    0.7813   -2.2997 C.ar      1 <0>        -0.0825
     13 Br1        -3.0834    3.1692   -4.9127 Br        1 <0>        -0.0161
     14 H2         -1.0689   -0.3431    1.9997 H         1 <0>         0.1219
     15 H3         -2.0539    0.9682    2.6915 H         1 <0>         0.1262
     16 H4         -2.3748    0.3910    1.0386 H         1 <0>         0.1225
     17 H5          0.7908    0.8796    2.6541 H         1 <0>         0.1367
     18 H6          0.1541    2.5230    2.9799 H         1 <0>         0.1399
     19 H7          2.5515    2.2614    1.7606 H         1 <0>         0.1190
     20 H8          1.3919    3.4860    1.1482 H         1 <0>         0.0981
     21 H9          2.1428    0.8077   -0.0281 H         1 <0>         0.1088
     22 H10         1.5770    2.2886   -0.8585 H         1 <0>         0.1070
     23 H11        -1.1574    3.5091   -0.3279 H         1 <0>         0.1282
     24 H12        -2.3764    4.3454   -2.2970 H         1 <0>         0.1466
     25 H13        -1.7541    0.6119   -4.2660 H         1 <0>         0.1481
     26 H14        -0.5275   -0.2198   -2.2998 H         1 <0>         0.1440
     27 N1         -0.6267    1.5824    1.2402 N.4       1 <0>        -0.3988
     28 H15        -1.1193    2.4634    1.0516 H         1 <0>         0.4251
@<TRIPOS>BOND
     1    1   14 1
     2    1   15 1
     3    1   16 1
     4    1   27 1
     5    2    3 1
     6    2   17 1
     7    2   18 1
     8    2   27 1
     9    3    4 1
    10    3   19 1
    11    3   20 1
    12    4    5 1
    13    4   21 1
    14    4   22 1
    15    5    6 1
    16    5    7 1
    17    5   27 1
    18    7   12 ar
    19    7    8 ar
    20    8    9 ar
    21    8   23 1
    22    9   10 ar
    23    9   24 1
    24   10   11 ar
    25   10   13 1
    26   11   12 ar
    27   11   25 1
    28   12   26 1
    29   27   28 1
@<TRIPOS>MOLECULE
ZINC28104755
   28    29     0     0     0
SMALL
USER_CHARGES
(2R)-2-(4-fluorophenyl)-1-methyl-pyrrolidine
@<TRIPOS>ATOM
      1 C1         -1.5984    0.5837    1.7789 C.3       1 <0>        -0.0503
      2 N1         -0.6517    1.5742    1.2492 N.4       1 <0>        -0.4135
      3 C2          0.4572    1.8162    2.2074 C.3       1 <0>        -0.0029
      4 C3          1.5695    2.4238    1.3162 C.3       1 <0>        -0.1443
      5 C4          1.4278    1.6301   -0.0028 C.3       1 <0>        -0.1334
      6 C5         -0.0127    1.0858    0.0080 C.3       1 <0>         0.0894
      7 H1         -0.0491   -0.0134   -0.0112 H         1 <0>         0.1452
      8 C6         -0.7631    1.5954   -1.1954 C.ar      1 <0>        -0.1505
      9 C7         -1.2864    2.8750   -1.1922 C.ar      1 <0>        -0.0957
     10 C8         -1.9698    3.3454   -2.2974 C.ar      1 <0>        -0.1387
     11 C9         -2.1406    2.5305   -3.4036 C.ar      1 <0>         0.1301
     12 C10        -1.6209    1.2471   -3.4035 C.ar      1 <0>        -0.1400
     13 C11        -0.9326    0.7810   -2.2996 C.ar      1 <0>        -0.0593
     14 F1         -2.8141    2.9870   -4.4821 F         1 <0>        -0.1226
     15 H2         -2.0581    0.9718    2.6998 H         1 <0>         0.1257
     16 H3         -1.0640   -0.3516    2.0018 H         1 <0>         0.1199
     17 H4         -2.3819    0.3893    1.0317 H         1 <0>         0.1229
     18 H5          0.1196    2.5103    2.9911 H         1 <0>         0.1341
     19 H6          0.7594    0.8635    2.6668 H         1 <0>         0.1327
     20 H7          1.3864    3.5004    1.1843 H         1 <0>         0.0977
     21 H8          2.5474    2.2744    1.7973 H         1 <0>         0.1180
     22 H9          1.5999    2.3029   -0.8559 H         1 <0>         0.1084
     23 H10         2.1678    0.8165   -0.0225 H         1 <0>         0.1098
     24 H11        -1.1575    3.5087   -0.3272 H         1 <0>         0.1299
     25 H12        -2.3750    4.3465   -2.2962 H         1 <0>         0.1495
     26 H13        -1.7538    0.6104   -4.2657 H         1 <0>         0.1510
     27 H14        -0.5271   -0.2200   -2.2993 H         1 <0>         0.1446
     28 H15        -1.2415    2.4848    1.0676 H         1 <0>         0.4424
@<TRIPOS>BOND
     1    1    2 1
     2    1   15 1
     3    1   16 1
     4    1   17 1
     5    2    6 1
     6    2    3 1
     7    2   28 1
     8    3    4 1
     9    3   18 1
    10    3   19 1
    11    4    5 1
    12    4   20 1
    13    4   21 1
    14    5    6 1
    15    5   22 1
    16    5   23 1
    17    6    7 1
    18    6    8 1
    19    8   13 ar
    20    8    9 ar
    21    9   10 ar
    22    9   24 1
    23   10   11 ar
    24   10   25 1
    25   11   12 ar
    26   11   14 1
    27   12   13 ar
    28   12   26 1
    29   13   27 1
@<TRIPOS>MOLECULE
ZINC28104761
   28    29     0     0     0
SMALL
USER_CHARGES
(2S)-2-(4-fluorophenyl)-1-methyl-pyrrolidine
@<TRIPOS>ATOM
      1 C1          1.1853    3.2468   -0.4543 C.3       1 <0>        -0.0579
      2 N1          1.0862    2.0971    0.4547 N.4       1 <0>        -0.4038
      3 C2          0.7078    2.5296    1.8169 C.3       1 <0>        -0.0108
      4 C3         -0.1627    1.3745    2.3713 C.3       1 <0>        -0.1443
      5 C4         -0.9480    0.9389    1.1062 C.3       1 <0>        -0.1330
      6 C5          0.0836    1.1286   -0.0257 C.3       1 <0>         0.0854
      7 H1          0.5899    0.1902   -0.2961 H         1 <0>         0.1457
      8 C6         -0.5965    1.6641   -1.2593 C.ar      1 <0>        -0.1586
      9 C7         -1.4084    2.7795   -1.1712 C.ar      1 <0>        -0.0786
     10 C8         -2.0288    3.2743   -2.3027 C.ar      1 <0>        -0.1497
     11 C9         -1.8453    2.6462   -3.5229 C.ar      1 <0>         0.1364
     12 C10        -1.0361    1.5260   -3.6089 C.ar      1 <0>        -0.1479
     13 C11        -0.4126    1.0361   -2.4771 C.ar      1 <0>        -0.0589
     14 F1         -2.4550    3.1263   -4.6288 F         1 <0>        -0.1224
     15 H2          1.9386    3.9519   -0.0729 H         1 <0>         0.1225
     16 H3          0.2094    3.7506   -0.5160 H         1 <0>         0.1245
     17 H4          1.4821    2.8987   -1.4547 H         1 <0>         0.1227
     18 H5          1.6158    2.6810    2.4190 H         1 <0>         0.1345
     19 H6          0.1448    3.4728    1.7590 H         1 <0>         0.1263
     20 H7          0.4890    0.5836    2.7711 H         1 <0>         0.1005
     21 H8         -0.8106    1.7563    3.1740 H         1 <0>         0.1167
     22 H9         -1.2678   -0.1079    1.2155 H         1 <0>         0.1172
     23 H10        -1.8323    1.5816    0.9842 H         1 <0>         0.1025
     24 H11        -1.5546    3.2668   -0.2186 H         1 <0>         0.1376
     25 H12        -2.6597    4.1482   -2.2344 H         1 <0>         0.1490
     26 H13        -0.8920    1.0355   -4.5603 H         1 <0>         0.1501
     27 H14         0.2189    0.1625   -2.5440 H         1 <0>         0.1435
     28 H15         2.0782    1.6222    0.4757 H         1 <0>         0.4507
@<TRIPOS>BOND
     1    1    2 1
     2    1   15 1
     3    1   16 1
     4    1   17 1
     5    2    6 1
     6    2    3 1
     7    2   28 1
     8    3    4 1
     9    3   18 1
    10    3   19 1
    11    4    5 1
    12    4   20 1
    13    4   21 1
    14    5    6 1
    15    5   22 1
    16    5   23 1
    17    6    7 1
    18    6    8 1
    19    8   13 ar
    20    8    9 ar
    21    9   10 ar
    22    9   24 1
    23   10   11 ar
    24   10   25 1
    25   11   12 ar
    26   11   14 1
    27   12   13 ar
    28   12   26 1
    29   13   27 1
@<TRIPOS>MOLECULE
ZINC02041084
   21    21     0     0     0
SMALL
USER_CHARGES
(2R)-2-methylpiperidine
@<TRIPOS>ATOM
      1 C1         -4.3056    1.1008    0.1720 C.3       1 <0>        -0.1850
      2 C2         -2.8612    1.6013    0.1094 C.3       1 <0>         0.0307
      3 H1         -2.8533    2.6911    0.1272 H         1 <0>         0.1365
      4 C3         -2.2060    1.1076   -1.1825 C.3       1 <0>        -0.1421
      5 C4         -0.7548    1.5938   -1.2312 C.3       1 <0>        -0.1403
      6 C5         -0.0127    1.0858    0.0080 C.3       1 <0>        -0.1483
      7 C6         -0.7306    1.5801    1.2659 C.3       1 <0>        -0.0020
      8 H2         -4.3137    0.0110    0.1539 H         1 <0>         0.0809
      9 H3         -4.7724    1.4524    1.0921 H         1 <0>         0.0818
     10 H4         -4.8599    1.4825   -0.6855 H         1 <0>         0.1058
     11 H5         -2.7508    1.5016   -2.0404 H         1 <0>         0.1107
     12 H6         -2.2257    0.0180   -1.2072 H         1 <0>         0.0880
     13 H7         -0.7361    2.6836   -1.2458 H         1 <0>         0.0814
     14 H8         -0.2708    1.2092   -2.1289 H         1 <0>         0.0944
     15 H9          0.0021   -0.0041    0.0020 H         1 <0>         0.0876
     16 H10         1.0097    1.4637    0.0003 H         1 <0>         0.1118
     17 H11        -0.2123    1.2083    2.1497 H         1 <0>         0.1317
     18 H12        -0.7329    2.6701    1.2781 H         1 <0>         0.1287
     19 N1         -2.1197    1.0805    1.2739 N.4       1 <0>        -0.5156
     20 H13        -2.1103    0.0544    1.2374 H         1 <0>         0.4297
     21 H14        -2.5848    1.3880    2.1360 H         1 <0>         0.4335
@<TRIPOS>BOND
     1    1    2 1
     2    1    8 1
     3    1    9 1
     4    1   10 1
     5    2    3 1
     6    2    4 1
     7    2   19 1
     8    4    5 1
     9    4   11 1
    10    4   12 1
    11    5    6 1
    12    5   13 1
    13    5   14 1
    14    6    7 1
    15    6   15 1
    16    6   16 1
    17    7   17 1
    18    7   18 1
    19    7   19 1
    20   19   20 1
    21   19   21 1
@<TRIPOS>MOLECULE
ZINC05226596
   21    21     0     0     0
SMALL
USER_CHARGES
(2S)-2-methylpiperidine
@<TRIPOS>ATOM
      1 C1         -1.5715    5.0859    0.1682 C.3       1 <0>        -0.1850
      2 C2         -1.5186    3.5580    0.1076 C.3       1 <0>         0.0305
      3 H1         -2.5326    3.1585    0.1267 H         1 <0>         0.1365
      4 C3         -0.8234    3.1228   -1.1844 C.3       1 <0>        -0.1421
      5 C4         -0.7548    1.5938   -1.2312 C.3       1 <0>        -0.1404
      6 C5         -0.0127    1.0858    0.0080 C.3       1 <0>        -0.1482
      7 C6         -0.7306    1.5801    1.2659 C.3       1 <0>        -0.0023
      8 H2         -2.1279    5.4645   -0.6892 H         1 <0>         0.1058
      9 H3         -2.0667    5.3961    1.0884 H         1 <0>         0.0818
     10 H4         -0.5576    5.4856    0.1487 H         1 <0>         0.0809
     11 H5          0.1861    3.5332   -1.2105 H         1 <0>         0.0880
     12 H6         -1.3878    3.4882   -2.0423 H         1 <0>         0.1107
     13 H7         -0.2219    1.2804   -2.1289 H         1 <0>         0.0943
     14 H8         -1.7645    1.1833   -1.2450 H         1 <0>         0.0815
     15 H9          0.0021   -0.0041    0.0020 H         1 <0>         0.1118
     16 H10         1.0097    1.4637    0.0003 H         1 <0>         0.0876
     17 H11        -1.7483    1.1900    1.2802 H         1 <0>         0.1287
     18 H12        -0.1959    1.2321    2.1497 H         1 <0>         0.1317
     19 N1         -0.7649    3.0552    1.2721 N.4       1 <0>        -0.5153
     20 H13        -1.2188    3.3793    2.1342 H         1 <0>         0.4336
     21 H14         0.1956    3.4160    1.2346 H         1 <0>         0.4297
@<TRIPOS>BOND
     1    1    2 1
     2    1    8 1
     3    1    9 1
     4    1   10 1
     5    2    3 1
     6    2    4 1
     7    2   19 1
     8    4    5 1
     9    4   11 1
    10    4   12 1
    11    5    6 1
    12    5   13 1
    13    5   14 1
    14    6    7 1
    15    6   15 1
    16    6   16 1
    17    7   17 1
    18    7   18 1
    19    7   19 1
    20   19   20 1
    21   19   21 1
@<TRIPOS>MOLECULE
ZINC08294957
   20    20     0     0     0
SMALL
USER_CHARGES
2-propylpyridine
@<TRIPOS>ATOM
      1 C1         -1.1692    7.2936   -1.1301 C.3       1 <0>        -0.1536
      2 C2         -1.0830    5.7661   -1.1387 C.3       1 <0>        -0.1159
      3 C3         -0.2167    5.2976    0.0322 C.3       1 <0>        -0.0710
      4 C4         -0.1317    3.7930    0.0238 C.ar      1 <0>         0.1300
      5 C5          1.1065    3.1788    0.0086 C.ar      1 <0>        -0.1728
      6 C6          1.1736    1.7941    0.0005 C.ar      1 <0>        -0.0730
      7 C7         -0.0126    1.0758    0.0080 C.ar      1 <0>        -0.1808
      8 C8         -1.2136    1.7592    0.0173 C.ar      1 <0>         0.1026
      9 N1         -1.2394    3.0777    0.0305 N.ar      1 <0>        -0.4830
     10 H1         -1.7864    7.6273   -1.9643 H         1 <0>         0.0560
     11 H2         -1.6142    7.6271   -0.1926 H         1 <0>         0.0555
     12 H3         -0.1685    7.7146   -1.2273 H         1 <0>         0.0537
     13 H4         -0.6380    5.4325   -2.0761 H         1 <0>         0.0584
     14 H5         -2.0837    5.3451   -1.0415 H         1 <0>         0.0730
     15 H6         -0.6617    5.6311    0.9697 H         1 <0>         0.0828
     16 H7          0.7840    5.7186   -0.0650 H         1 <0>         0.0783
     17 H8          2.0102    3.7701    0.0035 H         1 <0>         0.1342
     18 H9          2.1270    1.2869   -0.0110 H         1 <0>         0.1346
     19 H10         0.0021   -0.0041    0.0020 H         1 <0>         0.1349
     20 H11        -2.1418    1.2071    0.0183 H         1 <0>         0.1563
@<TRIPOS>BOND
     1    1    2 1
     2    1   10 1
     3    1   11 1
     4    1   12 1
     5    2    3 1
     6    2   13 1
     7    2   14 1
     8    3    4 1
     9    3   15 1
    10    3   16 1
    11    4    9 ar
    12    4    5 ar
    13    5    6 ar
    14    5   17 1
    15    6    7 ar
    16    6   18 1
    17    7    8 ar
    18    7   19 1
    19    8    9 ar
    20    8   20 1
@<TRIPOS>MOLECULE
ZINC02034880
   17    17     0     0     0
SMALL
USER_CHARGES
3-ethylpyridine
@<TRIPOS>ATOM
      1 C1          2.7809    4.2906   -1.4439 C.3       1 <0>        -0.1485
      2 C2          2.3671    4.0041    0.0009 C.3       1 <0>        -0.0823
      3 C3          1.1060    3.1790    0.0081 C.ar      1 <0>        -0.1344
      4 C4          1.1732    1.7939    0.0005 C.ar      1 <0>        -0.0759
      5 C5         -0.0126    1.0758    0.0080 C.ar      1 <0>        -0.1696
      6 C6         -1.2139    1.7594    0.0173 C.ar      1 <0>         0.0912
      7 N1         -1.2397    3.0777    0.0299 N.ar      1 <0>        -0.4835
      8 C7         -0.1318    3.7931    0.0227 C.ar      1 <0>         0.0989
      9 H1          1.9850    4.8390   -1.9478 H         1 <0>         0.0568
     10 H2          3.6930    4.8874   -1.4490 H         1 <0>         0.0619
     11 H3          2.9595    3.3496   -1.9641 H         1 <0>         0.0552
     12 H4          2.1885    4.9452    0.5212 H         1 <0>         0.0766
     13 H5          3.1629    3.4557    0.5049 H         1 <0>         0.0745
     14 H6          2.1266    1.2867   -0.0113 H         1 <0>         0.1335
     15 H7          0.0021   -0.0041    0.0020 H         1 <0>         0.1356
     16 H8         -2.1422    1.2074    0.0190 H         1 <0>         0.1558
     17 H9         -0.1926    4.8713    0.0287 H         1 <0>         0.1542
@<TRIPOS>BOND
     1    1    2 1
     2    1    9 1
     3    1   10 1
     4    1   11 1
     5    2    3 1
     6    2   12 1
     7    2   13 1
     8    3    8 ar
     9    3    4 ar
    10    4    5 ar
    11    4   14 1
    12    5    6 ar
    13    5   15 1
    14    6    7 ar
    15    6   16 1
    16    7    8 ar
    17    8   17 1
@<TRIPOS>MOLECULE
ZINC01577159
   24    24     0     0     0
SMALL
USER_CHARGES
1-ethylpiperidine
@<TRIPOS>ATOM
      1 C1          1.4175    1.9944   -0.0008 C.3       1 <0>        -0.1903
      2 C2         -0.0178    1.4648    0.0101 C.3       1 <0>        -0.0065
      3 C3          0.5594   -0.5159   -1.2565 C.3       1 <0>        -0.0060
      4 C4          0.6997   -2.0375   -1.1723 C.3       1 <0>        -0.1475
      5 C5         -0.6755   -2.6583   -0.9115 C.3       1 <0>        -0.1396
      6 C6         -1.2548   -2.0725    0.3791 C.3       1 <0>        -0.1480
      7 C7         -1.3384   -0.5499    0.2500 C.3       1 <0>        -0.0019
      8 H1          1.4028    3.0842    0.0052 H         1 <0>         0.1060
      9 H2          1.9447    1.6333    0.8823 H         1 <0>         0.0798
     10 H3          1.9277    1.6428   -0.8976 H         1 <0>         0.0797
     11 H4         -0.5450    1.8259   -0.8730 H         1 <0>         0.1294
     12 H5         -0.5280    1.8163    0.9069 H         1 <0>         0.1281
     13 H6         -0.1062   -0.2576   -2.0801 H         1 <0>         0.1290
     14 H7          1.5390   -0.0698   -1.4279 H         1 <0>         0.1286
     15 H8          1.3761   -2.2961   -0.3576 H         1 <0>         0.0868
     16 H9          1.0991   -2.4193   -2.1119 H         1 <0>         0.1113
     17 H10        -0.5737   -3.7386   -0.8077 H         1 <0>         0.0938
     18 H11        -1.3415   -2.4336   -1.7446 H         1 <0>         0.0814
     19 H12        -0.6092   -2.3316    1.2182 H         1 <0>         0.0870
     20 H13        -2.2521   -2.4788    0.5476 H         1 <0>         0.1116
     21 H14        -1.7372   -0.1285    1.1727 H         1 <0>         0.1275
     22 H15        -1.9951   -0.2916   -0.5808 H         1 <0>         0.1289
     23 N1          0.0203   -0.0122    0.0245 N.4       1 <0>        -0.3950
     24 H16         0.6323   -0.3224    0.7883 H         1 <0>         0.4257
@<TRIPOS>BOND
     1    1    2 1
     2    1    8 1
     3    1    9 1
     4    1   10 1
     5    2   11 1
     6    2   12 1
     7    2   23 1
     8    3    4 1
     9    3   13 1
    10    3   14 1
    11    3   23 1
    12    4    5 1
    13    4   15 1
    14    4   16 1
    15    5    6 1
    16    5   17 1
    17    5   18 1
    18    6    7 1
    19    6   19 1
    20    6   20 1
    21    7   21 1
    22    7   22 1
    23    7   23 1
    24   23   24 1
@<TRIPOS>MOLECULE
ZINC04098884
   28    29     0     0     0
SMALL
USER_CHARGES

@<TRIPOS>ATOM
      1 C1         -0.0184    1.5028    0.0103 C.3       1 <0>        -0.2103
      2 C2          0.0021   -0.0041    0.0020 C.2       1 <0>         0.3798
      3 O1          1.0609   -0.5963   -0.0113 O.2       1 <0>        -0.4350
      4 C3         -1.2613   -0.7566    0.0100 C.2       1 <0>        -0.2743
      5 C4         -1.1803   -2.0831   -0.0453 C.2       1 <0>         0.0084
      6 C5         -2.4528   -2.9230    0.0168 C.3       1 <0>        -0.1381
      7 C6         -3.2610   -2.6693   -1.2566 C.3       1 <0>        -0.1290
      8 C7         -4.0383   -1.3685   -1.1625 C.3       1 <0>         0.0182
      9 H1         -4.8385   -1.3502   -1.9105 H         1 <0>         0.1517
     10 C8         -4.6272   -1.2637    0.2730 C.3       1 <0>        -0.1447
     11 C9         -3.5252   -0.5381    1.0778 C.3       1 <0>        -0.1436
     12 C10        -2.5467    0.0118    0.0264 C.3       1 <0>         0.0890
     13 H2         -2.3553    1.0768    0.2028 H         1 <0>         0.1562
     14 N1         -3.2191   -0.1720   -1.2776 N.4       1 <0>        -0.5030
     15 H3          1.0042    1.8801    0.0026 H         1 <0>         0.0980
     16 H4         -0.5455    1.8639   -0.8728 H         1 <0>         0.0909
     17 H5         -0.5286    1.8543    0.9071 H         1 <0>         0.0992
     18 H6         -0.2176   -2.5630   -0.1336 H         1 <0>         0.1540
     19 H7         -2.1651   -3.9823    0.0362 H         1 <0>         0.1025
     20 H8         -3.0265   -2.7041    0.9010 H         1 <0>         0.1147
     21 H9         -2.5779   -2.6225   -2.1050 H         1 <0>         0.0906
     22 H10        -3.9564   -3.4962   -1.4038 H         1 <0>         0.1217
     23 H11        -5.5484   -0.6718    0.2684 H         1 <0>         0.1026
     24 H12        -4.8307   -2.2519    0.6887 H         1 <0>         0.1173
     25 H13        -3.9662    0.2902    1.6448 H         1 <0>         0.1084
     26 H14        -3.0243   -1.2129    1.7669 H         1 <0>         0.1113
     27 H15        -2.5327   -0.2917   -2.0062 H         1 <0>         0.4285
     28 H16        -3.8015    0.6268   -1.4787 H         1 <0>         0.4349
@<TRIPOS>BOND
     1    1    2 1
     2    1   15 1
     3    1   16 1
     4    1   17 1
     5    2    3 2
     6    2    4 1
     7    4   12 1
     8    4    5 2
     9    5    6 1
    10    5   18 1
    11    6    7 1
    12    6   19 1
    13    6   20 1
    14    7    8 1
    15    7   21 1
    16    7   22 1
    17    8    9 1
    18    8   14 1
    19    8   10 1
    20   10   11 1
    21   10   23 1
    22   10   24 1
    23   11   12 1
    24   11   25 1
    25   11   26 1
    26   12   13 1
    27   12   14 1
    28   14   27 1
    29   14   28 1
@<TRIPOS>MOLECULE
ZINC04098885
   28    29     0     0     0
SMALL
USER_CHARGES
1-(9-azabicyclo[4.2.1]non-4-en-5-yl)ethanone
@<TRIPOS>ATOM
      1 C1          0.9561    2.9250    2.3594 C.3       1 <0>        -0.2009
      2 C2          1.8868    2.6621    1.2038 C.2       1 <0>         0.3805
      3 O1          3.0484    3.0062    1.2699 O.2       1 <0>        -0.4361
      4 C3          1.3870    1.9882   -0.0046 C.2       1 <0>        -0.2690
      5 C4          2.2139    1.8637   -1.0260 C.2       1 <0>         0.0051
      6 C5          1.8108    1.1949   -2.3255 C.3       1 <0>        -0.1334
      7 C6          1.4310   -0.2570   -2.0738 C.3       1 <0>        -0.1245
      8 C7          0.1073   -0.4111   -1.3772 C.3       1 <0>         0.0072
      9 H1         -0.2599   -1.4455   -1.4856 H         1 <0>         0.1545
     10 C8         -0.8899    0.5581   -2.1051 C.3       1 <0>        -0.1479
     11 C9         -0.7477    1.8784   -1.3092 C.3       1 <0>        -0.1465
     12 C10        -0.0260    1.4857   -0.0013 C.3       1 <0>         0.0757
     13 H2         -0.5721    1.8737    0.8637 H         1 <0>         0.1629
     14 H3          0.0689    2.5018    2.1758 H         1 <0>         0.0701
     15 H4          1.3792    2.5014    3.2703 H         1 <0>         0.1032
     16 H5          0.8268    4.0000    2.4846 H         1 <0>         0.1076
     17 H6          3.2252    2.2588   -0.9272 H         1 <0>         0.1510
     18 H7          2.6712    1.2153   -3.0114 H         1 <0>         0.1037
     19 H8          0.9974    1.7300   -2.8039 H         1 <0>         0.1114
     20 H9          2.2187   -0.7246   -1.4708 H         1 <0>         0.0891
     21 H10         1.4017   -0.7821   -3.0360 H         1 <0>         0.1227
     22 H11        -0.6008    0.6919   -3.1455 H         1 <0>         0.1148
     23 H12        -1.9074    0.1716   -2.0340 H         1 <0>         0.1009
     24 H13        -1.7387    2.2798   -1.0768 H         1 <0>         0.1072
     25 H14        -0.1750    2.6160   -1.8620 H         1 <0>         0.1089
     26 N1         -0.0215    0.0266   -0.0217 N.4       1 <0>        -0.4903
     27 H15         0.7689   -0.3244    0.5317 H         1 <0>         0.4308
     28 H16        -0.9004   -0.3273    0.3740 H         1 <0>         0.4414
@<TRIPOS>BOND
     1    1    2 1
     2    1   14 1
     3    1   15 1
     4    1   16 1
     5    2    3 2
     6    2    4 1
     7    4   12 1
     8    4    5 2
     9    5    6 1
    10    5   17 1
    11    6    7 1
    12    6   18 1
    13    6   19 1
    14    7    8 1
    15    7   20 1
    16    7   21 1
    17    8    9 1
    18    8   10 1
    19    8   26 1
    20   10   11 1
    21   10   22 1
    22   10   23 1
    23   11   12 1
    24   11   24 1
    25   11   25 1
    26   12   13 1
    27   12   26 1
    28   26   27 1
    29   26   28 1
@<TRIPOS>MOLECULE
ZINC00005898
   24    25     0     0     0
SMALL
USER_CHARGES
3-[(2R)-pyrrolidin-2-yl]pyridine
@<TRIPOS>ATOM
      1 C1         -3.5303    4.7937   -3.0864 C.ar      1 <0>        -0.1553
      2 C2         -3.3015    3.6409   -2.3505 C.ar      1 <0>        -0.0406
      3 C3         -2.2630    3.6396   -1.4321 C.ar      1 <0>        -0.1948
      4 C4         -1.4884    4.7755   -1.2899 C.ar      1 <0>         0.1032
      5 N1         -1.7311    5.8521   -2.0114 N.ar      1 <0>        -0.4673
      6 C5         -2.7136    5.8909   -2.8903 C.ar      1 <0>         0.1291
      7 C6         -1.9784    2.4133   -0.6038 C.3       1 <0>         0.0880
      8 H1         -2.8671    1.7856   -0.5376 H         1 <0>         0.1514
      9 C7         -0.8008    1.6177   -1.2067 C.3       1 <0>        -0.1418
     10 C8         -0.0127    1.0858    0.0080 C.3       1 <0>        -0.1510
     11 C9         -0.7780    1.6049    1.2442 C.3       1 <0>        -0.0060
     12 H2         -4.3332    4.8316   -3.8077 H         1 <0>         0.1533
     13 H3         -3.9205    2.7663   -2.4863 H         1 <0>         0.1482
     14 H4         -0.6746    4.7812   -0.5798 H         1 <0>         0.1483
     15 H5         -2.8820    6.7908   -3.4632 H         1 <0>         0.1724
     16 H6         -0.1711    2.2719   -1.8096 H         1 <0>         0.1009
     17 H7         -1.1729    0.7888   -1.8090 H         1 <0>         0.1144
     18 H8          0.0021   -0.0041    0.0020 H         1 <0>         0.1134
     19 H9          1.0044    1.4776    0.0004 H         1 <0>         0.1017
     20 H10        -1.4779    0.8500    1.6026 H         1 <0>         0.1366
     21 H11        -0.0803    1.8832    2.0340 H         1 <0>         0.1435
     22 N2         -1.5074    2.7697    0.7356 N.4       1 <0>        -0.5148
     23 H12        -2.3044    2.9835    1.3466 H         1 <0>         0.4380
     24 H13        -0.8848    3.5847    0.6874 H         1 <0>         0.4294
@<TRIPOS>BOND
     1    1    6 ar
     2    1    2 ar
     3    1   12 1
     4    2    3 ar
     5    2   13 1
     6    3    4 ar
     7    3    7 1
     8    4    5 ar
     9    4   14 1
    10    5    6 ar
    11    6   15 1
    12    7    8 1
    13    7    9 1
    14    7   22 1
    15    9   10 1
    16    9   16 1
    17    9   17 1
    18   10   11 1
    19   10   18 1
    20   10   19 1
    21   11   20 1
    22   11   21 1
    23   11   22 1
    24   22   23 1
    25   22   24 1
@<TRIPOS>MOLECULE
ZINC03164350
   24    24     0     0     0
SMALL
USER_CHARGES
1-(1-methyl-3,6-dihydro-2H-pyridin-4-yl)ethanone
@<TRIPOS>ATOM
      1 C1         -4.0007    3.0215   -2.4236 C.3       1 <0>        -0.1955
      2 C2         -2.5895    2.4927   -2.4280 C.2       1 <0>         0.3813
      3 O1         -1.9637    2.4424   -3.4662 O.2       1 <0>        -0.4349
      4 C3         -1.9742    2.0402   -1.1806 C.2       1 <0>        -0.1791
      5 C4         -0.7329    1.5803   -1.2136 C.2       1 <0>        -0.1136
      6 C5         -0.0127    1.0858    0.0080 C.3       1 <0>         0.0321
      7 C6         -2.1264    1.2376    1.1619 C.3       1 <0>        -0.0027
      8 C7         -2.7756    2.1158    0.0892 C.3       1 <0>        -0.1141
      9 C8         -0.0806    0.9816    2.4255 C.3       1 <0>        -0.0425
     10 H1         -3.9861    4.0092   -2.2679 H         1 <0>         0.0932
     11 H2         -4.4701    2.8121   -3.3848 H         1 <0>         0.0975
     12 H3         -4.5679    2.5367   -1.6289 H         1 <0>         0.0882
     13 H4         -0.2152    1.5602   -2.1612 H         1 <0>         0.1640
     14 H5          0.0021   -0.0041    0.0020 H         1 <0>         0.1497
     15 H6          1.0107    1.4608    0.0003 H         1 <0>         0.1486
     16 H7         -2.5874    1.4397    2.1287 H         1 <0>         0.1405
     17 H8         -2.2604    0.1868    0.9050 H         1 <0>         0.1352
     18 H9         -2.8080    3.1484    0.4367 H         1 <0>         0.1113
     19 H10        -3.7900    1.7650   -0.1007 H         1 <0>         0.1301
     20 H11         0.9832    1.2185    2.4400 H         1 <0>         0.1251
     21 H12        -0.5582    1.4003    3.3113 H         1 <0>         0.1259
     22 H13        -0.2119   -0.1005    2.4192 H         1 <0>         0.1248
     23 N1         -0.6931    1.5804    1.2207 N.4       1 <0>        -0.3986
     24 H14        -0.5941    2.6013    1.2677 H         1 <0>         0.4333
@<TRIPOS>BOND
     1    1    2 1
     2    1   10 1
     3    1   11 1
     4    1   12 1
     5    2    3 2
     6    2    4 1
     7    4    8 1
     8    4    5 2
     9    5    6 1
    10    5   13 1
    11    6   14 1
    12    6   15 1
    13    6   23 1
    14    7    8 1
    15    7   16 1
    16    7   17 1
    17    7   23 1
    18    8   18 1
    19    8   19 1
    20    9   20 1
    21    9   21 1
    22    9   22 1
    23    9   23 1
    24   23   24 1
@<TRIPOS>MOLECULE
ZINC13735584
   27    28     0     0     0
SMALL
USER_CHARGES
3-methyl-5-[(2R)-1-methylpyrrolidin-2-yl]isoxazole
@<TRIPOS>ATOM
      1 C1         -3.8968    5.8001   -3.8834 C.3       1 <0>        -0.0894
      2 C2         -3.0714    5.1051   -2.8315 C.2       1 <0>         0.0306
      3 C3         -3.2415    3.7840   -2.3575 C.2       1 <0>        -0.1613
      4 C4         -2.2630    3.6396   -1.4321 C.2       1 <0>        -0.1116
      5 O1         -1.6014    4.8048   -1.3944 O.3       1 <0>         0.1062
      6 N1         -2.0599    5.6019   -2.1797 N.2       1 <0>        -0.3314
      7 C5         -1.9784    2.4133   -0.6038 C.3       1 <0>         0.1339
      8 H1         -2.8671    1.7856   -0.5376 H         1 <0>         0.1676
      9 C6         -0.8008    1.6177   -1.2067 C.3       1 <0>        -0.1438
     10 C7         -0.0127    1.0858    0.0080 C.3       1 <0>        -0.1490
     11 C8         -0.7780    1.6049    1.2442 C.3       1 <0>        -0.0053
     12 C9         -2.6486    3.1182    1.6285 C.3       1 <0>        -0.0369
     13 H2         -4.7345    6.3112   -3.4090 H         1 <0>         0.0911
     14 H3         -3.2779    6.5275   -4.4089 H         1 <0>         0.0863
     15 H4         -4.2749    5.0645   -4.5933 H         1 <0>         0.0915
     16 H5         -3.9806    3.0581   -2.6626 H         1 <0>         0.1866
     17 H6         -0.1711    2.2719   -1.8096 H         1 <0>         0.1043
     18 H7         -1.1729    0.7888   -1.8090 H         1 <0>         0.1199
     19 H8          0.0021   -0.0041    0.0020 H         1 <0>         0.1160
     20 H9          1.0044    1.4776    0.0004 H         1 <0>         0.1042
     21 H10        -1.4779    0.8500    1.6026 H         1 <0>         0.1372
     22 H11        -0.0803    1.8832    2.0340 H         1 <0>         0.1440
     23 H12        -3.2943    2.2445    1.7171 H         1 <0>         0.1231
     24 H13        -2.2794    3.3987    2.6150 H         1 <0>         0.1309
     25 H14        -3.2149    3.9468    1.2034 H         1 <0>         0.1206
     26 N2         -1.5014    2.7748    0.7293 N.4       1 <0>        -0.4014
     27 H15        -0.8680    3.5806    0.6682 H         1 <0>         0.4361
@<TRIPOS>BOND
     1    1    2 1
     2    1   13 1
     3    1   14 1
     4    1   15 1
     5    2    6 2
     6    2    3 1
     7    3    4 2
     8    3   16 1
     9    4    5 1
    10    4    7 1
    11    5    6 1
    12    7    8 1
    13    7    9 1
    14    7   26 1
    15    9   10 1
    16    9   17 1
    17    9   18 1
    18   10   11 1
    19   10   19 1
    20   10   20 1
    21   11   21 1
    22   11   22 1
    23   11   26 1
    24   12   23 1
    25   12   24 1
    26   12   25 1
    27   12   26 1
    28   26   27 1
@<TRIPOS>MOLECULE
ZINC00008090
   24    25     0     0     0
SMALL
USER_CHARGES
3-methyl-5-[(2R)-pyrrolidin-2-yl]isoxazole
@<TRIPOS>ATOM
      1 C1          1.3879   -3.8839   -4.3415 C.3       1 <0>        -0.0899
      2 C2          1.0474   -2.7165   -3.4513 C.2       1 <0>         0.0302
      3 C3          1.6841   -2.3610   -2.2401 C.2       1 <0>        -0.1588
      4 C4          1.0163   -1.2557   -1.8314 C.2       1 <0>        -0.1216
      5 O1          0.0799   -1.0133   -2.7593 O.3       1 <0>         0.1076
      6 N1          0.1124   -1.8325   -3.6482 N.2       1 <0>        -0.3309
      7 C5          1.2787   -0.4531   -0.5832 C.3       1 <0>         0.1340
      8 H1          1.8250   -1.0594    0.1393 H         1 <0>         0.1688
      9 C6          2.0927    0.8114   -0.9295 C.3       1 <0>        -0.1387
     10 C7          1.4742    1.8902   -0.0019 C.3       1 <0>        -0.1427
     11 C8         -0.0180    1.4742    0.0101 C.3       1 <0>        -0.0100
     12 H2          2.1349   -3.5769   -5.0735 H         1 <0>         0.0917
     13 H3          1.7856   -4.6985   -3.7362 H         1 <0>         0.0917
     14 H4          0.4894   -4.2207   -4.8586 H         1 <0>         0.0864
     15 H5          2.5105   -2.8569   -1.7527 H         1 <0>         0.1872
     16 H6          3.1482    0.6651   -0.7001 H         1 <0>         0.1224
     17 H7          1.9611    1.0794   -1.9778 H         1 <0>         0.1046
     18 H8          1.5983    2.8869   -0.4252 H         1 <0>         0.1223
     19 H9          1.9025    1.8366    0.9990 H         1 <0>         0.1042
     20 H10        -0.5243    1.8518   -0.8782 H         1 <0>         0.1369
     21 H11        -0.5072    1.8421    0.9120 H         1 <0>         0.1436
     22 N2          0.0067   -0.0003   -0.0001 N.4       1 <0>        -0.5203
     23 H12        -0.0765   -0.3528    0.9607 H         1 <0>         0.4414
     24 H13        -0.7755   -0.3540   -0.5634 H         1 <0>         0.4399
@<TRIPOS>BOND
     1    1    2 1
     2    1   12 1
     3    1   13 1
     4    1   14 1
     5    2    6 2
     6    2    3 1
     7    3    4 2
     8    3   15 1
     9    4    5 1
    10    4    7 1
    11    5    6 1
    12    7    8 1
    13    7    9 1
    14    7   22 1
    15    9   10 1
    16    9   16 1
    17    9   17 1
    18   10   11 1
    19   10   18 1
    20   10   19 1
    21   11   20 1
    22   11   21 1
    23   11   22 1
    24   22   23 1
    25   22   24 1
@<TRIPOS>MOLECULE
ZINC03786099
   27    28     0     0     0
SMALL
USER_CHARGES

@<TRIPOS>ATOM
      1 C1          0.5015    1.5311   -0.0916 C.3       1 <0>        -0.0983
      2 C2          0.2787    0.0407   -0.0881 C.2       1 <0>         0.1102
      3 C3          0.3653   -0.8100   -1.2047 C.2       1 <0>        -0.2117
      4 C4          0.1001   -2.0658   -0.7961 C.2       1 <0>        -0.0005
      5 O1         -0.1465   -2.0296    0.5223 O.3       1 <0>        -0.0813
      6 N1         -0.0223   -0.6855    0.9511 N.2       1 <0>        -0.2785
      7 C5          0.0828   -3.2955   -1.6671 C.3       1 <0>         0.1094
      8 H1          0.3536   -3.0298   -2.6889 H         1 <0>         0.1689
      9 C6         -1.3218   -3.9344   -1.6454 C.3       1 <0>        -0.1373
     10 C7         -1.0140   -5.4550   -1.6401 C.3       1 <0>        -0.1406
     11 C8          0.2675   -5.5118   -0.7716 C.3       1 <0>        -0.0105
     12 N2          1.0296   -4.2959   -1.1412 N.4       1 <0>        -0.3895
     13 C9          1.7096   -3.7577    0.0445 C.3       1 <0>        -0.0542
     14 H2          1.5549    1.7415    0.0933 H         1 <0>         0.0996
     15 H3          0.2142    1.9391   -1.0607 H         1 <0>         0.0969
     16 H4         -0.1035    1.9908    0.6899 H         1 <0>         0.0920
     17 H5          0.6027   -0.5087   -2.2142 H         1 <0>         0.1743
     18 H6         -1.8619   -3.6474   -0.7432 H         1 <0>         0.1062
     19 H7         -1.8846   -3.6583   -2.5371 H         1 <0>         0.1232
     20 H8         -1.8253   -6.0160   -1.1762 H         1 <0>         0.1233
     21 H9         -0.8180   -5.8172   -2.6493 H         1 <0>         0.1044
     22 H10         0.0094   -5.4922    0.2872 H         1 <0>         0.1362
     23 H11         0.8452   -6.4059   -1.0057 H         1 <0>         0.1418
     24 H12         0.9908   -3.6464    0.8563 H         1 <0>         0.1346
     25 H13         2.5011   -4.4415    0.3512 H         1 <0>         0.1301
     26 H14         2.1414   -2.7858   -0.1942 H         1 <0>         0.1178
     27 H15         1.7121   -4.5225   -1.8490 H         1 <0>         0.4333
@<TRIPOS>BOND
     1    1    2 1
     2    1   14 1
     3    1   15 1
     4    1   16 1
     5    2    6 2
     6    2    3 1
     7    3    4 2
     8    3   17 1
     9    4    5 1
    10    4    7 1
    11    5    6 1
    12    7    8 1
    13    7   12 1
    14    7    9 1
    15    9   10 1
    16    9   18 1
    17    9   19 1
    18   10   11 1
    19   10   20 1
    20   10   21 1
    21   11   12 1
    22   11   22 1
    23   11   23 1
    24   12   13 1
    25   12   27 1
    26   13   24 1
    27   13   25 1
    28   13   26 1
@<TRIPOS>MOLECULE
ZINC00031164
   27    28     0     0     0
SMALL
USER_CHARGES

@<TRIPOS>ATOM
      1 C1         -0.0167    1.3776    0.0096 C.ar      1 <0>        -0.1568
      2 C2          1.1849    2.0698    0.0019 C.ar      1 <0>        -0.0405
      3 C3          2.3651    1.3426   -0.0133 C.ar      1 <0>        -0.2037
      4 C4          2.3054   -0.0383   -0.0202 C.ar      1 <0>         0.1052
      5 N1          1.1443   -0.6632   -0.0129 N.ar      1 <0>        -0.4685
      6 C5          0.0021   -0.0041    0.0020 C.ar      1 <0>         0.1300
      7 C6          3.6964    2.0488   -0.0227 C.3       1 <0>         0.0903
      8 H1          3.5610    3.0739   -0.3678 H         1 <0>         0.1465
      9 C7          4.2770    2.0604    1.3930 C.3       1 <0>        -0.1371
     10 C8          5.6292    2.7791    1.3785 C.3       1 <0>        -0.1388
     11 C9          6.5554    2.0830    0.3770 C.3       1 <0>        -0.1494
     12 C10         5.8904    2.0706   -1.0011 C.3       1 <0>        -0.0065
     13 N2          4.6157    1.3465   -0.9261 N.4       1 <0>        -0.5054
     14 H2         -0.9552    1.9117    0.0259 H         1 <0>         0.1528
     15 H3          1.2009    3.1496    0.0072 H         1 <0>         0.1475
     16 H4          3.2203   -0.6121   -0.0320 H         1 <0>         0.1490
     17 H5         -0.9294   -0.5505    0.0083 H         1 <0>         0.1719
     18 H6          3.5939    2.5835    2.0622 H         1 <0>         0.1125
     19 H7          4.4130    1.0357    1.7390 H         1 <0>         0.0903
     20 H8          5.4865    3.8181    1.0817 H         1 <0>         0.0839
     21 H9          6.0731    2.7406    2.3732 H         1 <0>         0.0976
     22 H10         7.5009    2.6223    0.3201 H         1 <0>         0.1148
     23 H11         6.7387    1.0588    0.7019 H         1 <0>         0.0895
     24 H12         5.7077    3.0952   -1.3251 H         1 <0>         0.1323
     25 H13         6.5472    1.5759   -1.7165 H         1 <0>         0.1365
     26 H14         4.7795    0.4134   -0.5788 H         1 <0>         0.4245
     27 H15         4.2060    1.2935   -1.8466 H         1 <0>         0.4315
@<TRIPOS>BOND
     1    1    6 ar
     2    1    2 ar
     3    1   14 1
     4    2    3 ar
     5    2   15 1
     6    3    4 ar
     7    3    7 1
     8    4    5 ar
     9    4   16 1
    10    5    6 ar
    11    6   17 1
    12    7    8 1
    13    7   13 1
    14    7    9 1
    15    9   10 1
    16    9   18 1
    17    9   19 1
    18   10   11 1
    19   10   20 1
    20   10   21 1
    21   11   12 1
    22   11   22 1
    23   11   23 1
    24   12   13 1
    25   12   24 1
    26   12   25 1
    27   13   26 1
    28   13   27 1
@<TRIPOS>MOLECULE
ZINC00031165
   27    28     0     0     0
SMALL
USER_CHARGES

@<TRIPOS>ATOM
      1 C1         -0.0167    1.3776    0.0096 C.ar      1 <0>        -0.1568
      2 C2          1.1849    2.0698    0.0019 C.ar      1 <0>        -0.0405
      3 C3          2.3651    1.3426   -0.0133 C.ar      1 <0>        -0.2038
      4 C4          2.3054   -0.0383   -0.0202 C.ar      1 <0>         0.1052
      5 N1          1.1443   -0.6632   -0.0129 N.ar      1 <0>        -0.4685
      6 C5          0.0021   -0.0041    0.0020 C.ar      1 <0>         0.1300
      7 C6          3.6964    2.0488   -0.0227 C.3       1 <0>         0.0903
      8 H1          3.5678    3.0703    0.3352 H         1 <0>         0.1465
      9 C7          4.2492    2.0747   -1.4493 C.3       1 <0>        -0.1371
     10 C8          5.6016    2.7933   -1.4539 C.3       1 <0>        -0.1389
     11 C9          6.5470    2.0873   -0.4778 C.3       1 <0>        -0.1494
     12 C10         5.9090    2.0609    0.9128 C.3       1 <0>        -0.0066
     13 N2          4.6331    1.3375    0.8554 N.4       1 <0>        -0.5054
     14 H2         -0.9552    1.9117    0.0259 H         1 <0>         0.1528
     15 H3          1.2009    3.1496    0.0072 H         1 <0>         0.1475
     16 H4          3.2203   -0.6121   -0.0320 H         1 <0>         0.1490
     17 H5         -0.9294   -0.5505    0.0083 H         1 <0>         0.1719
     18 H6          4.3785    1.0536   -1.8082 H         1 <0>         0.0903
     19 H7          3.5533    2.6045   -2.0998 H         1 <0>         0.1125
     20 H8          6.0260    2.7649   -2.4574 H         1 <0>         0.0975
     21 H9          5.4648    3.8294   -1.1439 H         1 <0>         0.0839
     22 H10         6.7239    1.0665   -0.8165 H         1 <0>         0.0895
     23 H11         7.4935    2.6261   -0.4338 H         1 <0>         0.1148
     24 H12         6.5797    1.5591    1.6103 H         1 <0>         0.1366
     25 H13         5.7328    3.0822    1.2506 H         1 <0>         0.1323
     26 H14         4.2414    1.2752    1.7832 H         1 <0>         0.4315
     27 H15         4.7900    0.4080    0.4956 H         1 <0>         0.4245
@<TRIPOS>BOND
     1    1    6 ar
     2    1    2 ar
     3    1   14 1
     4    2    3 ar
     5    2   15 1
     6    3    4 ar
     7    3    7 1
     8    4    5 ar
     9    4   16 1
    10    5    6 ar
    11    6   17 1
    12    7    8 1
    13    7   13 1
    14    7    9 1
    15    9   10 1
    16    9   18 1
    17    9   19 1
    18   10   11 1
    19   10   20 1
    20   10   21 1
    21   11   12 1
    22   11   22 1
    23   11   23 1
    24   12   13 1
    25   12   24 1
    26   12   25 1
    27   13   26 1
    28   13   27 1
@<TRIPOS>MOLECULE
ZINC13444091
   31    32     0     0     0
SMALL
USER_CHARGES
2-methoxy-5-[(2S)-1-methylpyrrolidin-2-yl]pyridine
@<TRIPOS>ATOM
      1 C1         -3.3743    1.4553    2.2595 C.3       1 <0>        -0.0364
      2 C2         -4.8384    1.2495    0.3248 C.3       1 <0>        -0.0064
      3 C3         -4.6453    1.1323   -1.2024 C.3       1 <0>        -0.1502
      4 C4         -3.1231    0.9838   -1.4037 C.3       1 <0>        -0.1418
      5 C5         -2.5246    1.0236    0.0188 C.3       1 <0>         0.0930
      6 H1         -2.3847    0.0124    0.4009 H         1 <0>         0.1482
      7 C6         -1.2151    1.7695    0.0173 C.ar      1 <0>        -0.2339
      8 C7         -0.0126    1.0758    0.0080 C.ar      1 <0>        -0.0067
      9 C8          1.1668    1.7996    0.0006 C.ar      1 <0>        -0.1761
     10 C9          1.1081    3.1875    0.0086 C.ar      1 <0>         0.3507
     11 N1         -0.0573    3.8126    0.0232 N.ar      1 <0>        -0.5271
     12 C10        -1.1984    3.1498    0.0305 C.ar      1 <0>         0.1498
     13 O1          2.2573    3.9087    0.0020 O.3       1 <0>        -0.2952
     14 C11         2.1301    5.3320    0.0109 C.3       1 <0>         0.0344
     15 H2         -2.3796    1.7602    2.5845 H         1 <0>         0.1211
     16 H3         -4.1260    2.0009    2.8299 H         1 <0>         0.1271
     17 H4         -3.4985    0.3852    2.4251 H         1 <0>         0.1213
     18 H5         -5.6335    1.9590    0.5541 H         1 <0>         0.1397
     19 H6         -5.0647    0.2740    0.7552 H         1 <0>         0.1349
     20 H7         -5.0069    2.0323   -1.6999 H         1 <0>         0.1008
     21 H8         -5.1651    0.2533   -1.5835 H         1 <0>         0.1127
     22 H9         -2.7375    1.8108   -1.9999 H         1 <0>         0.1000
     23 H10        -2.8942    0.0325   -1.8842 H         1 <0>         0.1137
     24 H11         0.0021   -0.0041    0.0020 H         1 <0>         0.1541
     25 H12         2.1201    1.2923   -0.0116 H         1 <0>         0.1582
     26 H13        -2.1311    3.6942    0.0424 H         1 <0>         0.1496
     27 H14         1.5778    5.6529   -0.8723 H         1 <0>         0.0655
     28 H15         1.5941    5.6433    0.9075 H         1 <0>         0.0649
     29 H16         3.1213    5.7854    0.0042 H         1 <0>         0.1082
     30 N2         -3.5364    1.7336    0.7976 N.4       1 <0>        -0.3985
     31 H17        -3.4575    2.7445    0.6362 H         1 <0>         0.4244
@<TRIPOS>BOND
     1    1   15 1
     2    1   16 1
     3    1   17 1
     4    1   30 1
     5    2    3 1
     6    2   18 1
     7    2   19 1
     8    2   30 1
     9    3    4 1
    10    3   20 1
    11    3   21 1
    12    4    5 1
    13    4   22 1
    14    4   23 1
    15    5    6 1
    16    5    7 1
    17    5   30 1
    18    7   12 ar
    19    7    8 ar
    20    8    9 ar
    21    8   24 1
    22    9   10 ar
    23    9   25 1
    24   10   11 ar
    25   10   13 1
    26   11   12 ar
    27   12   26 1
    28   13   14 1
    29   14   27 1
    30   14   28 1
    31   14   29 1
    32   30   31 1
@<TRIPOS>MOLECULE
ZINC13444094
   31    32     0     0     0
SMALL
USER_CHARGES
2-methoxy-5-[(2R)-1-methylpyrrolidin-2-yl]pyridine
@<TRIPOS>ATOM
      1 C1         -1.5984    0.5837    1.7789 C.3       1 <0>        -0.0369
      2 C2          0.4572    1.8162    2.2074 C.3       1 <0>        -0.0078
      3 C3          1.5695    2.4238    1.3162 C.3       1 <0>        -0.1488
      4 C4          1.4278    1.6301   -0.0028 C.3       1 <0>        -0.1396
      5 C5         -0.0127    1.0858    0.0080 C.3       1 <0>         0.0906
      6 H1          0.0021   -0.0041    0.0020 H         1 <0>         0.1468
      7 C6         -0.7631    1.5954   -1.1954 C.ar      1 <0>        -0.2364
      8 C7         -0.9330    0.7863   -2.3107 C.ar      1 <0>        -0.0074
      9 C8         -1.6333    1.2915   -3.3920 C.ar      1 <0>        -0.1758
     10 C9         -2.1298    2.5874   -3.3299 C.ar      1 <0>         0.3507
     11 N1         -1.9428    3.3297   -2.2515 N.ar      1 <0>        -0.5267
     12 C10        -1.2840    2.8738   -1.2028 C.ar      1 <0>         0.1482
     13 O1         -2.8137    3.0962   -4.3855 O.3       1 <0>        -0.2952
     14 C11        -3.2992    4.4344   -4.2598 C.3       1 <0>         0.0344
     15 H2         -1.0689   -0.3431    1.9997 H         1 <0>         0.1223
     16 H3         -2.0539    0.9682    2.6915 H         1 <0>         0.1260
     17 H4         -2.3748    0.3910    1.0386 H         1 <0>         0.1216
     18 H5          0.7908    0.8796    2.6541 H         1 <0>         0.1369
     19 H6          0.1541    2.5230    2.9799 H         1 <0>         0.1400
     20 H7          2.5515    2.2614    1.7606 H         1 <0>         0.1187
     21 H8          1.3919    3.4860    1.1482 H         1 <0>         0.0981
     22 H9          2.1428    0.8077   -0.0281 H         1 <0>         0.1084
     23 H10         1.5770    2.2886   -0.8585 H         1 <0>         0.1054
     24 H11        -0.5312   -0.2159   -2.3323 H         1 <0>         0.1542
     25 H12        -1.7875    0.6881   -4.2744 H         1 <0>         0.1583
     26 H13        -1.1505    3.5090   -0.3396 H         1 <0>         0.1511
     27 H14        -2.4602    5.1118   -4.1003 H         1 <0>         0.0656
     28 H15        -3.8260    4.7168   -5.1713 H         1 <0>         0.1082
     29 H16        -3.9815    4.4952   -3.4120 H         1 <0>         0.0649
     30 N2         -0.6267    1.5824    1.2402 N.4       1 <0>        -0.3994
     31 H17        -1.1193    2.4634    1.0516 H         1 <0>         0.4238
@<TRIPOS>BOND
     1    1   15 1
     2    1   16 1
     3    1   17 1
     4    1   30 1
     5    2    3 1
     6    2   18 1
     7    2   19 1
     8    2   30 1
     9    3    4 1
    10    3   20 1
    11    3   21 1
    12    4    5 1
    13    4   22 1
    14    4   23 1
    15    5    6 1
    16    5    7 1
    17    5   30 1
    18    7   12 ar
    19    7    8 ar
    20    8    9 ar
    21    8   24 1
    22    9   10 ar
    23    9   25 1
    24   10   11 ar
    25   10   13 1
    26   11   12 ar
    27   12   26 1
    28   13   14 1
    29   14   27 1
    30   14   28 1
    31   14   29 1
    32   30   31 1
@<TRIPOS>MOLECULE
ZINC13444114
   30    31     0     0     0
SMALL
USER_CHARGES
2-methyl-5-[(2R)-1-methylpyrrolidin-2-yl]pyridine
@<TRIPOS>ATOM
      1 C1         -2.8863    3.1531   -4.5017 C.3       1 <0>        -0.1194
      2 C2         -2.1276    2.5873   -3.3289 C.ar      1 <0>         0.1611
      3 C3         -1.6346    1.2975   -3.3923 C.ar      1 <0>        -0.1579
      4 C4         -0.9335    0.7884   -2.3102 C.ar      1 <0>        -0.0377
      5 C5         -0.7631    1.5954   -1.1954 C.ar      1 <0>        -0.2027
      6 C6         -1.2851    2.8748   -1.2042 C.ar      1 <0>         0.1088
      7 N1         -1.9422    3.3281   -2.2541 N.ar      1 <0>        -0.4691
      8 C7         -0.0127    1.0858    0.0080 C.3       1 <0>         0.0852
      9 H1          0.0021   -0.0041    0.0020 H         1 <0>         0.1468
     10 C8          1.4278    1.6301   -0.0028 C.3       1 <0>        -0.1390
     11 C9          1.5695    2.4238    1.3162 C.3       1 <0>        -0.1485
     12 C10         0.4572    1.8162    2.2074 C.3       1 <0>        -0.0078
     13 C11        -1.5984    0.5837    1.7789 C.3       1 <0>        -0.0370
     14 H2         -2.1906    3.6453   -5.1812 H         1 <0>         0.0916
     15 H3         -3.3978    2.3464   -5.0268 H         1 <0>         0.0860
     16 H4         -3.6193    3.8768   -4.1452 H         1 <0>         0.0867
     17 H5         -1.7894    0.6957   -4.2756 H         1 <0>         0.1518
     18 H6         -0.5330   -0.2144   -2.3332 H         1 <0>         0.1475
     19 H7         -1.1531    3.5111   -0.3416 H         1 <0>         0.1481
     20 H8          2.1428    0.8077   -0.0281 H         1 <0>         0.1087
     21 H9          1.5770    2.2886   -0.8585 H         1 <0>         0.1052
     22 H10         2.5515    2.2614    1.7606 H         1 <0>         0.1193
     23 H11         1.3919    3.4860    1.1482 H         1 <0>         0.0988
     24 H12         0.7908    0.8796    2.6541 H         1 <0>         0.1370
     25 H13         0.1541    2.5230    2.9799 H         1 <0>         0.1407
     26 H14        -1.0689   -0.3431    1.9997 H         1 <0>         0.1222
     27 H15        -2.0539    0.9682    2.6915 H         1 <0>         0.1268
     28 H16        -2.3748    0.3910    1.0386 H         1 <0>         0.1212
     29 N2         -0.6267    1.5824    1.2402 N.4       1 <0>        -0.3992
     30 H17        -1.1193    2.4634    1.0516 H         1 <0>         0.4249
@<TRIPOS>BOND
     1    1    2 1
     2    1   14 1
     3    1   15 1
     4    1   16 1
     5    2    7 ar
     6    2    3 ar
     7    3    4 ar
     8    3   17 1
     9    4    5 ar
    10    4   18 1
    11    5    6 ar
    12    5    8 1
    13    6    7 ar
    14    6   19 1
    15    8    9 1
    16    8   10 1
    17    8   29 1
    18   10   11 1
    19   10   20 1
    20   10   21 1
    21   11   12 1
    22   11   22 1
    23   11   23 1
    24   12   24 1
    25   12   25 1
    26   12   29 1
    27   13   26 1
    28   13   27 1
    29   13   28 1
    30   13   29 1
    31   29   30 1
@<TRIPOS>MOLECULE
ZINC13444117
   30    31     0     0     0
SMALL
USER_CHARGES
2-methyl-5-[(2S)-1-methylpyrrolidin-2-yl]pyridine
@<TRIPOS>ATOM
      1 C1          2.3881    3.9818    0.0002 C.3       1 <0>        -0.1194
      2 C2          1.1105    3.1826    0.0081 C.ar      1 <0>         0.1613
      3 C3          1.1685    1.8016    0.0006 C.ar      1 <0>        -0.1582
      4 C4         -0.0126    1.0758    0.0080 C.ar      1 <0>        -0.0370
      5 C5         -1.2134    1.7694    0.0173 C.ar      1 <0>        -0.1998
      6 C6         -1.1928    3.1510    0.0299 C.ar      1 <0>         0.1106
      7 N1         -0.0498    3.8088    0.0225 N.ar      1 <0>        -0.4697
      8 C7         -2.5241    1.0257    0.0199 C.3       1 <0>         0.0885
      9 H1         -2.3858    0.0146    0.4027 H         1 <0>         0.1483
     10 C8         -3.1233    0.9857   -1.4023 C.3       1 <0>        -0.1418
     11 C9         -4.6451    1.1370   -1.2005 C.3       1 <0>        -0.1493
     12 C10        -4.8374    1.2556    0.3267 C.3       1 <0>        -0.0078
     13 C11        -3.3721    1.4606    2.2606 C.3       1 <0>        -0.0364
     14 H2          2.6865    4.1796   -1.0294 H         1 <0>         0.0915
     15 H3          2.2290    4.9264    0.5203 H         1 <0>         0.0866
     16 H4          3.1728    3.4174    0.5038 H         1 <0>         0.0859
     17 H5          2.1219    1.2944   -0.0112 H         1 <0>         0.1518
     18 H6          0.0021   -0.0041    0.0020 H         1 <0>         0.1475
     19 H7         -2.1237    3.6986    0.0413 H         1 <0>         0.1465
     20 H8         -2.7366    1.8116   -1.9994 H         1 <0>         0.1003
     21 H9         -2.8962    0.0338   -1.8821 H         1 <0>         0.1138
     22 H10        -5.0055    2.0371   -1.6985 H         1 <0>         0.1014
     23 H11        -5.1666    0.2585   -1.5806 H         1 <0>         0.1131
     24 H12        -5.6312    1.9666    0.5558 H         1 <0>         0.1399
     25 H13        -5.0651    0.2809    0.7581 H         1 <0>         0.1349
     26 H14        -2.3767    1.7641    2.5849 H         1 <0>         0.1216
     27 H15        -4.1227    2.0078    2.8310 H         1 <0>         0.1271
     28 H16        -3.4980    0.3907    2.4271 H         1 <0>         0.1211
     29 N2         -3.5423    1.7388    0.7996 N.4       1 <0>        -0.3981
     30 H17        -3.4649    2.7498    0.6378 H         1 <0>         0.4255
@<TRIPOS>BOND
     1    1    2 1
     2    1   14 1
     3    1   15 1
     4    1   16 1
     5    2    7 ar
     6    2    3 ar
     7    3    4 ar
     8    3   17 1
     9    4    5 ar
    10    4   18 1
    11    5    6 ar
    12    5    8 1
    13    6    7 ar
    14    6   19 1
    15    8    9 1
    16    8   10 1
    17    8   29 1
    18   10   11 1
    19   10   20 1
    20   10   21 1
    21   11   12 1
    22   11   22 1
    23   11   23 1
    24   12   24 1
    25   12   25 1
    26   12   29 1
    27   13   26 1
    28   13   27 1
    29   13   28 1
    30   13   29 1
    31   29   30 1
@<TRIPOS>MOLECULE
ZINC00391812
   27    28     0     0     0
SMALL
USER_CHARGES

@<TRIPOS>ATOM
      1 C1          0.3944    1.5372   -0.0882 C.3       1 <0>        -0.0517
      2 N1          0.2218    0.0783   -0.0924 N.4       1 <0>        -0.3878
      3 C2          0.9063   -0.4989   -1.2638 C.3       1 <0>        -0.0125
      4 C3          1.9925   -1.4575   -0.7321 C.3       1 <0>        -0.1421
      5 C4          2.2411   -0.9393    0.7089 C.3       1 <0>        -0.1364
      6 C5          0.8181   -0.4968    1.1321 C.3       1 <0>         0.0811
      7 H1          0.2382   -1.3559    1.4692 H         1 <0>         0.1507
      8 C6          0.8940    0.5453    2.2181 C.ar      1 <0>        -0.2036
      9 C7          1.8431    1.5545    2.1577 C.ar      1 <0>        -0.0573
     10 C8          1.8760    2.4913    3.1790 C.ar      1 <0>        -0.1660
     11 C9          0.9680    2.3891    4.2162 C.ar      1 <0>         0.1377
     12 N2          0.0793    1.4154    4.2410 N.ar      1 <0>        -0.4739
     13 C10         0.0150    0.5105    3.2837 C.ar      1 <0>         0.1353
     14 H2          1.4576    1.7772   -0.0812 H         1 <0>         0.1215
     15 H3         -0.0678    1.9603   -0.9800 H         1 <0>         0.1243
     16 H4         -0.0786    1.9564    0.7999 H         1 <0>         0.1209
     17 H5          0.1926   -1.0502   -1.8760 H         1 <0>         0.1353
     18 H6          1.3676    0.2945   -1.8519 H         1 <0>         0.1319
     19 H7          1.6257   -2.4838   -0.7146 H         1 <0>         0.1029
     20 H8          2.9001   -1.3816   -1.3309 H         1 <0>         0.1144
     21 H9          2.6094   -1.7378    1.3529 H         1 <0>         0.1203
     22 H10         2.9285   -0.0933    0.7065 H         1 <0>         0.0978
     23 H11         2.5404    1.6091    1.3347 H         1 <0>         0.1428
     24 H12         2.6020    3.2907    3.1646 H         1 <0>         0.1512
     25 H13         0.9870    3.1149    5.0157 H         1 <0>         0.1712
     26 H14        -0.7302   -0.2695    3.3356 H         1 <0>         0.1637
     27 H15        -0.7608   -0.1480   -0.1301 H         1 <0>         0.4285
@<TRIPOS>BOND
     1    1    2 1
     2    1   14 1
     3    1   15 1
     4    1   16 1
     5    2    6 1
     6    2    3 1
     7    2   27 1
     8    3    4 1
     9    3   17 1
    10    3   18 1
    11    4    5 1
    12    4   19 1
    13    4   20 1
    14    5    6 1
    15    5   21 1
    16    5   22 1
    17    6    7 1
    18    6    8 1
    19    8   13 ar
    20    8    9 ar
    21    9   10 ar
    22    9   23 1
    23   10   11 ar
    24   10   24 1
    25   11   12 ar
    26   11   25 1
    27   12   13 ar
    28   13   26 1
@<TRIPOS>MOLECULE
ZINC06525315
   25    26     0     0     0
SMALL
USER_CHARGES
3-(azetidin-2-ylmethoxy)-2-fluoro-pyridine
@<TRIPOS>ATOM
      1 C1          1.7767   -0.5074   -3.1314 C.ar      1 <0>        -0.1390
      2 C2          1.1669    0.1527   -2.0749 C.ar      1 <0>        -0.1326
      3 C3          0.6061   -0.6074   -1.0562 C.ar      1 <0>         0.0398
      4 C4          0.6664   -1.9943   -1.1374 C.ar      1 <0>         0.2992
      5 N1          1.2519   -2.5828   -2.1630 N.ar      1 <0>        -0.4717
      6 C5          1.7982   -1.8881   -3.1430 C.ar      1 <0>         0.1183
      7 F1          0.1208   -2.7463   -0.1566 F         1 <0>        -0.1011
      8 O1          0.0021   -0.0041    0.0020 O.3       1 <0>        -0.3070
      9 C6         -0.0173    1.4248    0.0099 C.3       1 <0>         0.0437
     10 C7         -0.7334    1.9182    1.2687 C.3       1 <0>         0.0138
     11 H1         -1.6681    1.3897    1.4563 H         1 <0>         0.1745
     12 C8         -0.8689    3.4458    1.3361 C.3       1 <0>        -0.1667
     13 C9         -0.5657    3.2343    2.8261 C.3       1 <0>        -0.0227
     14 H2          2.2262    0.0524   -3.9383 H         1 <0>         0.1565
     15 H3          1.1323    1.2317   -2.0430 H         1 <0>         0.1507
     16 H4          2.2683   -2.4065   -3.9656 H         1 <0>         0.1803
     17 H5          1.0053    1.8021    0.0021 H         1 <0>         0.0891
     18 H6         -0.5445    1.7859   -0.8732 H         1 <0>         0.1145
     19 H7         -0.0927    3.9870    0.7951 H         1 <0>         0.1292
     20 H8         -1.8745    3.8141    1.1332 H         1 <0>         0.1322
     21 H9         -1.4561    3.0580    3.4296 H         1 <0>         0.1557
     22 H10         0.0864    3.9979    3.2501 H         1 <0>         0.1552
     23 N2          0.0393    2.0739    2.3977 N.4       1 <0>        -0.4741
     24 H11         1.0351    2.2017    2.1825 H         1 <0>         0.4375
     25 H12        -0.0704    1.3000    3.0635 H         1 <0>         0.4249
@<TRIPOS>BOND
     1    1    6 ar
     2    1    2 ar
     3    1   14 1
     4    2    3 ar
     5    2   15 1
     6    3    4 ar
     7    3    8 1
     8    4    5 ar
     9    4    7 1
    10    5    6 ar
    11    6   16 1
    12    8    9 1
    13    9   10 1
    14    9   17 1
    15    9   18 1
    16   10   11 1
    17   10   12 1
    18   10   23 1
    19   12   13 1
    20   12   19 1
    21   12   20 1
    22   13   21 1
    23   13   22 1
    24   13   23 1
    25   23   24 1
    26   23   25 1
@<TRIPOS>MOLECULE
ZINC13819654
   24    24     0     0     0
SMALL
USER_CHARGES
2-[(5-chloro-3-pyridyl)oxy]-N-methyl-ethanamine
@<TRIPOS>ATOM
      1 C1         -1.3707    3.5816   -2.4663 C.3       1 <0>        -0.0437
      2 C2         -0.7527    1.5927   -1.2315 C.3       1 <0>         0.0044
      3 C3         -0.0127    1.0858    0.0080 C.3       1 <0>         0.0194
      4 O1         -0.6816    1.5467    1.1837 O.3       1 <0>        -0.3214
      5 C4         -0.1488    1.1821    2.3797 C.ar      1 <0>         0.0750
      6 C5         -0.7416    1.5908    3.5700 C.ar      1 <0>        -0.0911
      7 C6         -0.1619    1.1934    4.7650 C.ar      1 <0>        -0.0511
      8 C7          0.9782    0.4096    4.7344 C.ar      1 <0>         0.0965
      9 N1          1.5141    0.0396    3.5881 N.ar      1 <0>        -0.4282
     10 C8          0.9906    0.3925    2.4307 C.ar      1 <0>         0.0292
     11 Cl1        -0.8581    1.6726    6.2814 Cl        1 <0>        -0.0230
     12 H1         -0.9181    3.1718   -3.3693 H         1 <0>         0.1244
     13 H2         -2.4208    3.2925   -2.4229 H         1 <0>         0.1242
     14 H3         -1.2935    4.6688   -2.4824 H         1 <0>         0.1273
     15 H4         -0.2958    1.1691   -2.1259 H         1 <0>         0.1540
     16 H5         -1.7985    1.2898   -1.1795 H         1 <0>         0.1439
     17 H6          0.0021   -0.0041    0.0020 H         1 <0>         0.1147
     18 H7          1.0099    1.4631    0.0003 H         1 <0>         0.0924
     19 H8         -1.6314    2.2028    3.5633 H         1 <0>         0.1572
     20 H9          1.4348    0.0966    5.6618 H         1 <0>         0.1770
     21 H10         1.4559    0.0662    1.5123 H         1 <0>         0.1647
     22 N2         -0.6645    3.0644   -1.2791 N.4       1 <0>        -0.5218
     23 H11        -1.0928    3.4569   -0.4325 H         1 <0>         0.4411
     24 H12         0.3227    3.3432   -1.3240 H         1 <0>         0.4349
@<TRIPOS>BOND
     1    1   12 1
     2    1   13 1
     3    1   14 1
     4    1   22 1
     5    2    3 1
     6    2   15 1
     7    2   16 1
     8    2   22 1
     9    3    4 1
    10    3   17 1
    11    3   18 1
    12    4    5 1
    13    5   10 ar
    14    5    6 ar
    15    6    7 ar
    16    6   19 1
    17    7    8 ar
    18    7   11 1
    19    8    9 ar
    20    8   20 1
    21    9   10 ar
    22   10   21 1
    23   22   23 1
    24   22   24 1
@<TRIPOS>MOLECULE
ZINC13738853
   31    32     0     0     0
SMALL
USER_CHARGES
[(2S,3S)-1-methyl-2-(3-pyridyl)pyrrolidin-3-yl]methanol
@<TRIPOS>ATOM
      1 C1          3.9438    0.3101    1.6507 C.3       1 <0>        -0.0434
      2 C2          5.7250    0.8628    0.0943 C.3       1 <0>        -0.0107
      3 C3          5.7532    1.7741   -1.1580 C.3       1 <0>        -0.1356
      4 C4          4.2414    2.0320   -1.3921 C.3       1 <0>        -0.1003
      5 H1          3.7904    1.2065   -1.9428 H         1 <0>         0.1153
      6 C5          3.6752    2.1053    0.0416 C.3       1 <0>         0.0850
      7 H2          3.5893    3.1453    0.3562 H         1 <0>         0.1474
      8 C6          2.3236    1.4409    0.0936 C.ar      1 <0>        -0.1988
      9 C7          2.1527    0.1571   -0.4020 C.ar      1 <0>        -0.0601
     10 C8          0.8915   -0.4143   -0.3332 C.ar      1 <0>        -0.1630
     11 C9         -0.1465    0.3097    0.2227 C.ar      1 <0>         0.1367
     12 N1          0.0525    1.5290    0.6834 N.ar      1 <0>        -0.4717
     13 C10         1.2385    2.1039    0.6344 C.ar      1 <0>         0.1346
     14 C11         4.0260    3.3564   -2.1272 C.3       1 <0>         0.0849
     15 O1          4.4530    3.2229   -3.4844 O.3       1 <0>        -0.5675
     16 H3          3.6582   -0.4764    0.9522 H         1 <0>         0.1222
     17 H4          4.6197   -0.0989    2.4017 H         1 <0>         0.1250
     18 H5          3.0524    0.7031    2.1397 H         1 <0>         0.1208
     19 H6          6.6690    0.9313    0.6348 H         1 <0>         0.1391
     20 H7          5.5246   -0.1696   -0.1920 H         1 <0>         0.1327
     21 H8          6.2808    2.7053   -0.9515 H         1 <0>         0.1015
     22 H9          6.1977    1.2561   -2.0079 H         1 <0>         0.1221
     23 H10         2.9825   -0.3848   -0.8310 H         1 <0>         0.1400
     24 H11         0.7231   -1.4141   -0.7052 H         1 <0>         0.1513
     25 H12        -1.1320   -0.1283    0.2800 H         1 <0>         0.1714
     26 H13         1.3631    3.1042    1.0219 H         1 <0>         0.1638
     27 H14         2.9680    3.6174   -2.1032 H         1 <0>         0.0589
     28 H15         4.6049    4.1408   -1.6397 H         1 <0>         0.0583
     29 H16         4.3453    4.0264   -4.0114 H         1 <0>         0.3975
     30 N2          4.6287    1.4079    0.9196 N.4       1 <0>        -0.3926
     31 H17         5.0141    2.0740    1.5994 H         1 <0>         0.4353
@<TRIPOS>BOND
     1    1   16 1
     2    1   17 1
     3    1   18 1
     4    1   30 1
     5    2    3 1
     6    2   19 1
     7    2   20 1
     8    2   30 1
     9    3    4 1
    10    3   21 1
    11    3   22 1
    12    4    5 1
    13    4    6 1
    14    4   14 1
    15    6    7 1
    16    6    8 1
    17    6   30 1
    18    8   13 ar
    19    8    9 ar
    20    9   10 ar
    21    9   23 1
    22   10   11 ar
    23   10   24 1
    24   11   12 ar
    25   11   25 1
    26   12   13 ar
    27   13   26 1
    28   14   15 1
    29   14   27 1
    30   14   28 1
    31   15   29 1
    32   30   31 1
