@<TRIPOS>MOLECULE
ZINC03826943
   29    30     0     0     0
SMALL
USER_CHARGES
3-ethynyl-5-(1-methylpyrrolidin-2-yl)-pyridine
@<TRIPOS>ATOM
      1 C1          3.5644    3.2214   -2.2497 C.3       1 <0>        -0.0373
      2 C2          4.4369    4.4100   -0.3119 C.3       1 <0>        -0.0064
      3 C3          4.4738    4.1666    1.2121 C.3       1 <0>        -0.1497
      4 C4          3.9188    2.7401    1.4037 C.3       1 <0>        -0.1418
      5 C5          3.5933    2.2416   -0.0207 C.3       1 <0>         0.0859
      6 H1          4.4262    1.6633   -0.4207 H         1 <0>         0.1505
      7 C6          2.3350    1.4124   -0.0127 C.ar      1 <0>        -0.1842
      8 C7          2.4082    0.0303   -0.0208 C.ar      1 <0>        -0.0267
      9 C8          1.2130   -0.6972   -0.0133 C.ar      1 <0>        -0.0041
     10 C9          0.0021   -0.0041    0.0020 C.ar      1 <0>         0.1477
     11 N1         -0.0158    1.3127    0.0093 N.ar      1 <0>        -0.4587
     12 C10         1.0950    2.0245    0.0025 C.ar      1 <0>         0.1045
     13 C11         1.2323   -2.1291   -0.0216 C.1       1 <0>        -0.1957
     14 C12         1.2480   -3.3030   -0.0285 C.1       1 <0>        -0.1039
     15 H2          2.8374    2.4769   -2.5741 H         1 <0>         0.1212
     16 H3          3.4114    4.1455   -2.8072 H         1 <0>         0.1288
     17 H4          4.5723    2.8491   -2.4329 H         1 <0>         0.1216
     18 H5          4.1619    5.4430   -0.5253 H         1 <0>         0.1412
     19 H6          5.4033    4.1748   -0.7579 H         1 <0>         0.1354
     20 H7          3.8422    4.8908    1.7266 H         1 <0>         0.1022
     21 H8          5.4979    4.2270    1.5805 H         1 <0>         0.1136
     22 H9          3.0148    2.7641    2.0122 H         1 <0>         0.1016
     23 H10         4.6692    2.0993    1.8668 H         1 <0>         0.1148
     24 H11         3.3633   -0.4737   -0.0322 H         1 <0>         0.1512
     25 H12        -0.9285   -0.5522    0.0076 H         1 <0>         0.1758
     26 H13         1.0349    3.1028    0.0088 H         1 <0>         0.1510
     27 H14         1.2621   -4.3528   -0.0346 H         1 <0>         0.2338
     28 N2          3.4090    3.4746   -0.7825 N.4       1 <0>        -0.3982
     29 H15         2.4743    3.8604   -0.6042 H         1 <0>         0.4259
@<TRIPOS>BOND
     1    1   15 1
     2    1   16 1
     3    1   17 1
     4    1   28 1
     5    2    3 1
     6    2   18 1
     7    2   19 1
     8    2   28 1
     9    3    4 1
    10    3   20 1
    11    3   21 1
    12    4    5 1
    13    4   22 1
    14    4   23 1
    15    5    6 1
    16    5    7 1
    17    5   28 1
    18    7   12 ar
    19    7    8 ar
    20    8    9 ar
    21    8   24 1
    22    9   10 ar
    23    9   13 1
    24   10   11 ar
    25   10   25 1
    26   11   12 ar
    27   12   26 1
    28   13   14 3
    29   14   27 1
    30   28   29 1
@<TRIPOS>MOLECULE
ZINC38140873
   33    34     0     0     0
SMALL
USER_CHARGES

@<TRIPOS>ATOM
      1 C1         -0.0820    1.2566   -0.1597 C.3       1 <0>        -0.1376
      2 C2          0.1299   -0.2584   -0.1357 C.3       1 <0>         0.1209
      3 C3          1.1088   -0.6885   -1.2706 C.3       1 <0>        -0.1308
      4 H1          0.9713   -0.1930   -2.2316 H         1 <0>         0.0927
      5 C4          1.0260   -2.2454   -1.2884 C.3       1 <0>        -0.1285
      6 C5          1.7232   -2.6889    0.0180 C.3       1 <0>        -0.1306
      7 C6          2.1617   -1.3581    0.7021 C.3       1 <0>        -0.0951
      8 H2          2.9507   -1.4439    1.4493 H         1 <0>         0.0975
      9 C7          2.4912   -0.4592   -0.5636 C.3       1 <0>        -0.1231
     10 C8          0.8366   -0.6831    1.1718 C.3       1 <0>        -0.0537
     11 C9         -0.0129   -1.7053    1.9297 C.3       1 <0>        -0.1366
     12 C10         1.1126    0.5389    2.0502 C.3       1 <0>        -0.1384
     13 N1         -1.1554   -0.9564   -0.2730 N.3       1 <0>        -0.6808
     14 C11        -1.7845   -0.6516   -1.5651 C.3       1 <0>         0.0196
     15 H3          0.8832    1.7594   -0.0985 H         1 <0>         0.0616
     16 H4         -0.5807    1.5391   -1.0868 H         1 <0>         0.0519
     17 H5         -0.6993    1.5507    0.6891 H         1 <0>         0.0651
     18 H6         -0.0144   -2.5706   -1.2931 H         1 <0>         0.0625
     19 H7          1.5535   -2.6441   -2.1549 H         1 <0>         0.0637
     20 H8          1.0256   -3.2321    0.6555 H         1 <0>         0.0757
     21 H9          2.5935   -3.3056   -0.2062 H         1 <0>         0.0629
     22 H10         3.3195   -0.8663   -1.1435 H         1 <0>         0.0668
     23 H11         2.6519    0.5887   -0.3101 H         1 <0>         0.0728
     24 H12        -0.2810   -2.5226    1.2602 H         1 <0>         0.0585
     25 H13         0.5564   -2.0977    2.7723 H         1 <0>         0.0506
     26 H14        -0.9194   -1.2238    2.2964 H         1 <0>         0.0628
     27 H15         0.1706    1.0280    2.2985 H         1 <0>         0.0610
     28 H16         1.6105    0.2226    2.9668 H         1 <0>         0.0528
     29 H17         1.7531    1.2367    1.5109 H         1 <0>         0.0573
     30 H18        -1.0412   -1.9516   -0.1523 H         1 <0>         0.3433
     31 H19        -1.9599    0.4216   -1.6396 H         1 <0>         0.0667
     32 H20        -1.1262   -0.9692   -2.3736 H         1 <0>         0.0247
     33 H21        -2.7343   -1.1811   -1.6406 H         1 <0>         0.0639
@<TRIPOS>BOND
     1    1    2 1
     2    1   15 1
     3    1   16 1
     4    1   17 1
     5    2   10 1
     6    2    3 1
     7    2   13 1
     8    3    4 1
     9    3    9 1
    10    3    5 1
    11    5    6 1
    12    5   18 1
    13    5   19 1
    14    6    7 1
    15    6   20 1
    16    6   21 1
    17    7    8 1
    18    7    9 1
    19    7   10 1
    20    9   22 1
    21    9   23 1
    22   10   11 1
    23   10   12 1
    24   11   24 1
    25   11   25 1
    26   11   26 1
    27   12   27 1
    28   12   28 1
    29   12   29 1
    30   13   14 1
    31   13   30 1
    32   14   31 1
    33   14   32 1
    34   14   33 1
@<TRIPOS>MOLECULE
ZINC13611494
   45    46     0     0     0
SMALL
USER_CHARGES
3-(6-fluorohex-1-ynyl)-5-[[(2S)-1-methylpyrrolidin-2-yl]methoxy]pyridine
@<TRIPOS>ATOM
      1 C1         -3.0878    2.3839    1.5872 C.3       1 <0>        -0.0362
      2 C2         -0.8009    1.6167    1.2317 C.3       1 <0>        -0.0070
      3 C3         -0.0127    1.0858    0.0080 C.3       1 <0>        -0.1483
      4 C4         -0.8223    1.6286   -1.1920 C.3       1 <0>        -0.1400
      5 C5         -2.2314    1.9037   -0.6350 C.3       1 <0>         0.0333
      6 H1         -2.4649    2.9648   -0.7234 H         1 <0>         0.1515
      7 C6         -3.2650    1.0734   -1.3987 C.3       1 <0>         0.0340
      8 O1         -4.5778    1.4215   -0.9545 O.3       1 <0>        -0.3197
      9 C7         -5.6191    0.7704   -1.5368 C.ar      1 <0>         0.0665
     10 C8         -6.9251    1.0535   -1.1586 C.ar      1 <0>        -0.0831
     11 C9         -7.9620    0.3572   -1.7875 C.ar      1 <0>         0.0266
     12 C10        -7.6456   -0.5884   -2.7640 C.ar      1 <0>         0.1020
     13 N1         -6.3919   -0.8234   -3.0906 N.ar      1 <0>        -0.4390
     14 C11        -5.3905   -0.1815   -2.5209 C.ar      1 <0>         0.0279
     15 C12        -9.3267    0.6101   -1.4350 C.1       1 <0>        -0.1777
     16 C13       -10.4455    0.8175   -1.1459 C.1       1 <0>        -0.0992
     17 C14       -11.8483    1.0774   -0.7835 C.3       1 <0>        -0.0179
     18 C15       -12.1814    2.5459   -1.0547 C.3       1 <0>        -0.1132
     19 C16       -13.6395    2.8161   -0.6780 C.3       1 <0>        -0.1568
     20 C17       -13.9726    4.2846   -0.9492 C.3       1 <0>         0.0608
     21 F1        -15.3058    4.5316   -0.6048 F         1 <0>        -0.2162
     22 H2         -4.1102    2.3192    1.2148 H         1 <0>         0.1288
     23 H3         -3.0608    2.0703    2.6308 H         1 <0>         0.1232
     24 H4         -2.7367    3.4128    1.5078 H         1 <0>         0.1195
     25 H5         -0.6178    0.9936    2.1071 H         1 <0>         0.1401
     26 H6         -0.5403    2.6552    1.4361 H         1 <0>         0.1359
     27 H7          0.0021   -0.0041    0.0020 H         1 <0>         0.0999
     28 H8          1.0019    1.4840    0.0005 H         1 <0>         0.1195
     29 H9         -0.3756    2.5508   -1.5636 H         1 <0>         0.1127
     30 H10        -0.8682    0.8829   -1.9857 H         1 <0>         0.1091
     31 H11        -3.1769    1.2759   -2.4660 H         1 <0>         0.1128
     32 H12        -3.0880    0.0138   -1.2141 H         1 <0>         0.0900
     33 H13        -7.1344    1.7917   -0.3985 H         1 <0>         0.1482
     34 H14        -8.4374   -1.1328   -3.2571 H         1 <0>         0.1704
     35 H15        -4.3771   -0.4026   -2.8218 H         1 <0>         0.1597
     36 H16       -12.5017    0.4405   -1.3798 H         1 <0>         0.0998
     37 H17       -11.9964    0.8606    0.2744 H         1 <0>         0.0993
     38 H18       -11.5281    3.1828   -0.4584 H         1 <0>         0.0709
     39 H19       -12.0333    2.7627   -2.1126 H         1 <0>         0.0719
     40 H20       -14.2928    2.1792   -1.2743 H         1 <0>         0.0803
     41 H21       -13.7876    2.5993    0.3799 H         1 <0>         0.0798
     42 H22       -13.3193    4.9214   -0.3529 H         1 <0>         0.0737
     43 H23       -13.8245    4.5013   -2.0071 H         1 <0>         0.0742
     44 N2         -2.1941    1.5010    0.7758 N.4       1 <0>        -0.3968
     45 H24        -2.5082    0.5278    0.8675 H         1 <0>         0.4286
@<TRIPOS>BOND
     1    1   22 1
     2    1   23 1
     3    1   24 1
     4    1   44 1
     5    2    3 1
     6    2   25 1
     7    2   26 1
     8    2   44 1
     9    3    4 1
    10    3   27 1
    11    3   28 1
    12    4    5 1
    13    4   29 1
    14    4   30 1
    15    5    6 1
    16    5    7 1
    17    5   44 1
    18    7    8 1
    19    7   31 1
    20    7   32 1
    21    8    9 1
    22    9   14 ar
    23    9   10 ar
    24   10   11 ar
    25   10   33 1
    26   11   12 ar
    27   11   15 1
    28   12   13 ar
    29   12   34 1
    30   13   14 ar
    31   14   35 1
    32   15   16 3
    33   16   17 1
    34   17   18 1
    35   17   36 1
    36   17   37 1
    37   18   19 1
    38   18   38 1
    39   18   39 1
    40   19   20 1
    41   19   40 1
    42   19   41 1
    43   20   21 1
    44   20   42 1
    45   20   43 1
    46   44   45 1
@<TRIPOS>MOLECULE
ZINC00391812
   27    28     0     0     0
SMALL
USER_CHARGES

@<TRIPOS>ATOM
      1 C1          0.3944    1.5372   -0.0882 C.3       1 <0>        -0.0517
      2 N1          0.2218    0.0783   -0.0924 N.4       1 <0>        -0.3878
      3 C2          0.9063   -0.4989   -1.2638 C.3       1 <0>        -0.0125
      4 C3          1.9925   -1.4575   -0.7321 C.3       1 <0>        -0.1421
      5 C4          2.2411   -0.9393    0.7089 C.3       1 <0>        -0.1364
      6 C5          0.8181   -0.4968    1.1321 C.3       1 <0>         0.0811
      7 H1          0.2382   -1.3559    1.4692 H         1 <0>         0.1507
      8 C6          0.8940    0.5453    2.2181 C.ar      1 <0>        -0.2036
      9 C7          1.8431    1.5545    2.1577 C.ar      1 <0>        -0.0573
     10 C8          1.8760    2.4913    3.1790 C.ar      1 <0>        -0.1660
     11 C9          0.9680    2.3891    4.2162 C.ar      1 <0>         0.1377
     12 N2          0.0793    1.4154    4.2410 N.ar      1 <0>        -0.4739
     13 C10         0.0150    0.5105    3.2837 C.ar      1 <0>         0.1353
     14 H2          1.4576    1.7772   -0.0812 H         1 <0>         0.1215
     15 H3         -0.0678    1.9603   -0.9800 H         1 <0>         0.1243
     16 H4         -0.0786    1.9564    0.7999 H         1 <0>         0.1209
     17 H5          0.1926   -1.0502   -1.8760 H         1 <0>         0.1353
     18 H6          1.3676    0.2945   -1.8519 H         1 <0>         0.1319
     19 H7          1.6257   -2.4838   -0.7146 H         1 <0>         0.1029
     20 H8          2.9001   -1.3816   -1.3309 H         1 <0>         0.1144
     21 H9          2.6094   -1.7378    1.3529 H         1 <0>         0.1203
     22 H10         2.9285   -0.0933    0.7065 H         1 <0>         0.0978
     23 H11         2.5404    1.6091    1.3347 H         1 <0>         0.1428
     24 H12         2.6020    3.2907    3.1646 H         1 <0>         0.1512
     25 H13         0.9870    3.1149    5.0157 H         1 <0>         0.1712
     26 H14        -0.7302   -0.2695    3.3356 H         1 <0>         0.1637
     27 H15        -0.7608   -0.1480   -0.1301 H         1 <0>         0.4285
@<TRIPOS>BOND
     1    1    2 1
     2    1   14 1
     3    1   15 1
     4    1   16 1
     5    2    6 1
     6    2    3 1
     7    2   27 1
     8    3    4 1
     9    3   17 1
    10    3   18 1
    11    4    5 1
    12    4   19 1
    13    4   20 1
    14    5    6 1
    15    5   21 1
    16    5   22 1
    17    6    7 1
    18    6    8 1
    19    8   13 ar
    20    8    9 ar
    21    9   10 ar
    22    9   23 1
    23   10   11 ar
    24   10   24 1
    25   11   12 ar
    26   11   25 1
    27   12   13 ar
    28   13   26 1
@<TRIPOS>MOLECULE
ZINC06525315
   25    26     0     0     0
SMALL
USER_CHARGES
3-(azetidin-2-ylmethoxy)-2-fluoro-pyridine
@<TRIPOS>ATOM
      1 C1          1.7767   -0.5074   -3.1314 C.ar      1 <0>        -0.1390
      2 C2          1.1669    0.1527   -2.0749 C.ar      1 <0>        -0.1326
      3 C3          0.6061   -0.6074   -1.0562 C.ar      1 <0>         0.0398
      4 C4          0.6664   -1.9943   -1.1374 C.ar      1 <0>         0.2992
      5 N1          1.2519   -2.5828   -2.1630 N.ar      1 <0>        -0.4717
      6 C5          1.7982   -1.8881   -3.1430 C.ar      1 <0>         0.1183
      7 F1          0.1208   -2.7463   -0.1566 F         1 <0>        -0.1011
      8 O1          0.0021   -0.0041    0.0020 O.3       1 <0>        -0.3070
      9 C6         -0.0173    1.4248    0.0099 C.3       1 <0>         0.0437
     10 C7         -0.7334    1.9182    1.2687 C.3       1 <0>         0.0138
     11 H1         -1.6681    1.3897    1.4563 H         1 <0>         0.1745
     12 C8         -0.8689    3.4458    1.3361 C.3       1 <0>        -0.1667
     13 C9         -0.5657    3.2343    2.8261 C.3       1 <0>        -0.0227
     14 H2          2.2262    0.0524   -3.9383 H         1 <0>         0.1565
     15 H3          1.1323    1.2317   -2.0430 H         1 <0>         0.1507
     16 H4          2.2683   -2.4065   -3.9656 H         1 <0>         0.1803
     17 H5          1.0053    1.8021    0.0021 H         1 <0>         0.0891
     18 H6         -0.5445    1.7859   -0.8732 H         1 <0>         0.1145
     19 H7         -0.0927    3.9870    0.7951 H         1 <0>         0.1292
     20 H8         -1.8745    3.8141    1.1332 H         1 <0>         0.1322
     21 H9         -1.4561    3.0580    3.4296 H         1 <0>         0.1557
     22 H10         0.0864    3.9979    3.2501 H         1 <0>         0.1552
     23 N2          0.0393    2.0739    2.3977 N.4       1 <0>        -0.4741
     24 H11         1.0351    2.2017    2.1825 H         1 <0>         0.4375
     25 H12        -0.0704    1.3000    3.0635 H         1 <0>         0.4249
@<TRIPOS>BOND
     1    1    6 ar
     2    1    2 ar
     3    1   14 1
     4    2    3 ar
     5    2   15 1
     6    3    4 ar
     7    3    8 1
     8    4    5 ar
     9    4    7 1
    10    5    6 ar
    11    6   16 1
    12    8    9 1
    13    9   10 1
    14    9   17 1
    15    9   18 1
    16   10   11 1
    17   10   12 1
    18   10   23 1
    19   12   13 1
    20   12   19 1
    21   12   20 1
    22   13   21 1
    23   13   22 1
    24   13   23 1
    25   23   24 1
    26   23   25 1
@<TRIPOS>MOLECULE
ZINC13611482
   33    34     0     0     0
SMALL
USER_CHARGES
3-ethynyl-5-[[(2S)-1-methylpyrrolidin-2-yl]methoxy]pyridine
@<TRIPOS>ATOM
      1 C1         -3.0878    2.3839    1.5872 C.3       1 <0>        -0.0362
      2 C2         -0.8009    1.6167    1.2317 C.3       1 <0>        -0.0070
      3 C3         -0.0127    1.0858    0.0080 C.3       1 <0>        -0.1484
      4 C4         -0.8223    1.6286   -1.1920 C.3       1 <0>        -0.1399
      5 C5         -2.2314    1.9037   -0.6350 C.3       1 <0>         0.0333
      6 H1         -2.4649    2.9648   -0.7234 H         1 <0>         0.1516
      7 C6         -3.2650    1.0734   -1.3987 C.3       1 <0>         0.0340
      8 O1         -4.5778    1.4215   -0.9545 O.3       1 <0>        -0.3195
      9 C7         -5.6191    0.7704   -1.5368 C.ar      1 <0>         0.0655
     10 C8         -6.9251    1.0535   -1.1586 C.ar      1 <0>        -0.0809
     11 C9         -7.9620    0.3572   -1.7875 C.ar      1 <0>         0.0173
     12 C10        -7.6456   -0.5884   -2.7640 C.ar      1 <0>         0.1039
     13 N1         -6.3919   -0.8234   -3.0906 N.ar      1 <0>        -0.4399
     14 C11        -5.3905   -0.1815   -2.5209 C.ar      1 <0>         0.0297
     15 C12        -9.3267    0.6101   -1.4350 C.1       1 <0>        -0.1834
     16 C13       -10.4455    0.8175   -1.1459 C.1       1 <0>        -0.1169
     17 H2         -4.1102    2.3192    1.2148 H         1 <0>         0.1289
     18 H3         -3.0608    2.0703    2.6308 H         1 <0>         0.1233
     19 H4         -2.7367    3.4128    1.5078 H         1 <0>         0.1195
     20 H5         -0.6178    0.9936    2.1071 H         1 <0>         0.1401
     21 H6         -0.5403    2.6552    1.4361 H         1 <0>         0.1359
     22 H7          0.0021   -0.0041    0.0020 H         1 <0>         0.0999
     23 H8          1.0019    1.4840    0.0005 H         1 <0>         0.1194
     24 H9         -0.3756    2.5508   -1.5636 H         1 <0>         0.1127
     25 H10        -0.8682    0.8829   -1.9857 H         1 <0>         0.1091
     26 H11        -3.1769    1.2759   -2.4660 H         1 <0>         0.1129
     27 H12        -3.0880    0.0138   -1.2141 H         1 <0>         0.0900
     28 H13        -7.1344    1.7917   -0.3985 H         1 <0>         0.1492
     29 H14        -8.4374   -1.1328   -3.2571 H         1 <0>         0.1713
     30 H15        -4.3771   -0.4026   -2.8218 H         1 <0>         0.1600
     31 H16       -11.4462    1.0029   -0.8874 H         1 <0>         0.2326
     32 N2         -2.1941    1.5010    0.7758 N.4       1 <0>        -0.3968
     33 H17        -2.5082    0.5278    0.8675 H         1 <0>         0.4286
@<TRIPOS>BOND
     1    1   17 1
     2    1   18 1
     3    1   19 1
     4    1   32 1
     5    2    3 1
     6    2   20 1
     7    2   21 1
     8    2   32 1
     9    3    4 1
    10    3   22 1
    11    3   23 1
    12    4    5 1
    13    4   24 1
    14    4   25 1
    15    5    6 1
    16    5    7 1
    17    5   32 1
    18    7    8 1
    19    7   26 1
    20    7   27 1
    21    8    9 1
    22    9   14 ar
    23    9   10 ar
    24   10   11 ar
    25   10   28 1
    26   11   12 ar
    27   11   15 1
    28   12   13 ar
    29   12   29 1
    30   13   14 ar
    31   14   30 1
    32   15   16 3
    33   16   31 1
    34   32   33 1
@<TRIPOS>MOLECULE
ZINC00967913
   28    30     0     0     0
SMALL
USER_CHARGES

@<TRIPOS>ATOM
      1 C1          1.2171   -0.6545    0.1555 C.ar      1 <0>        -0.0752
      2 C2          2.3777    0.1031    0.1418 C.ar      1 <0>        -0.1425
      3 C3          2.2860    1.4736   -0.0235 C.ar      1 <0>         0.1878
      4 N1          1.1116    2.0586   -0.1663 N.ar      1 <0>        -0.4633
      5 C4         -0.0121    1.3684   -0.1581 C.ar      1 <0>         0.1458
      6 C5          0.0021   -0.0041    0.0020 C.ar      1 <0>        -0.1631
      7 C6         -1.2872   -0.7844    0.0101 C.3       1 <0>        -0.0612
      8 H1         -2.1393   -0.1141    0.1233 H         1 <0>         0.1365
      9 C7         -1.2749   -1.8456    1.1375 C.3       1 <0>        -0.1443
     10 C8         -1.4042   -3.1952    0.3689 C.3       1 <0>         0.0384
     11 H2         -1.0647   -4.0789    0.9092 H         1 <0>         0.1726
     12 C9         -2.8802   -3.2368   -0.1294 C.3       1 <0>        -0.1467
     13 C10        -2.9122   -2.1745   -1.2554 C.3       1 <0>        -0.1410
     14 C11        -1.4241   -1.6312   -1.2910 C.3       1 <0>         0.0452
     15 H3         -1.1139   -1.1348   -2.2105 H         1 <0>         0.1734
     16 N2         -0.6607   -2.8754   -0.9018 N.4       1 <0>        -0.5418
     17 Cl1         3.7316    2.4346   -0.0426 Cl        1 <0>        -0.0014
     18 H4          1.2583   -1.7267    0.2784 H         1 <0>         0.1305
     19 H5          3.3413   -0.3704    0.2590 H         1 <0>         0.1568
     20 H6         -0.9547    1.8820   -0.2775 H         1 <0>         0.1733
     21 H7         -0.3364   -1.8073    1.6905 H         1 <0>         0.1022
     22 H8         -2.1225   -1.7031    1.8079 H         1 <0>         0.1235
     23 H9         -3.1240   -4.2228   -0.5251 H         1 <0>         0.1015
     24 H10        -3.5644   -2.9648    0.6743 H         1 <0>         0.1177
     25 H11        -3.1719   -2.6339   -2.2092 H         1 <0>         0.1026
     26 H12        -3.6123   -1.3759   -1.0098 H         1 <0>         0.1175
     27 H13         0.3118   -2.6745   -0.7232 H         1 <0>         0.4224
     28 H14        -0.7670   -3.6066   -1.5889 H         1 <0>         0.4327
@<TRIPOS>BOND
     1    1    6 ar
     2    1    2 ar
     3    1   18 1
     4    2    3 ar
     5    2   19 1
     6    3    4 ar
     7    3   17 1
     8    4    5 ar
     9    5    6 ar
    10    5   20 1
    11    6    7 1
    12    7    8 1
    13    7   14 1
    14    7    9 1
    15    9   10 1
    16    9   21 1
    17    9   22 1
    18   10   11 1
    19   10   16 1
    20   10   12 1
    21   12   13 1
    22   12   23 1
    23   12   24 1
    24   13   14 1
    25   13   25 1
    26   13   26 1
    27   14   15 1
    28   14   16 1
    29   16   27 1
    30   16   28 1
@<TRIPOS>MOLECULE
ZINC02565794
   28    30     0     0     0
SMALL
USER_CHARGES

@<TRIPOS>ATOM
      1 C1          1.0928   -0.4585   -0.7237 C.ar      1 <0>        -0.0620
      2 C2          2.2584    0.2913   -0.7024 C.ar      1 <0>        -0.1496
      3 C3          2.2945    1.4601    0.0370 C.ar      1 <0>         0.1879
      4 N1          1.2364    1.8615    0.7161 N.ar      1 <0>        -0.4678
      5 C4          0.1118    1.1728    0.7180 C.ar      1 <0>         0.1387
      6 C5          0.0021   -0.0041    0.0020 C.ar      1 <0>        -0.1517
      7 C6         -1.2872   -0.7844    0.0101 C.3       1 <0>        -0.0603
      8 H1         -2.1406   -0.1121    0.0984 H         1 <0>         0.1214
      9 C7         -1.4069   -1.6526   -1.2663 C.3       1 <0>        -0.1520
     10 C8         -1.4635   -3.1084   -0.7127 C.3       1 <0>         0.0416
     11 H2         -1.8985   -3.8501   -1.3825 H         1 <0>         0.1732
     12 C9         -0.0153   -3.4112   -0.2228 C.3       1 <0>        -0.1506
     13 C10         0.1242   -2.5441    1.0524 C.3       1 <0>        -0.1538
     14 C11        -1.2892   -1.8286    1.1671 C.3       1 <0>         0.0430
     15 H3         -1.5584   -1.4416    2.1499 H         1 <0>         0.1768
     16 N2         -2.1888   -2.8932    0.5901 N.4       1 <0>        -0.5340
     17 Cl1         3.7479    2.4089    0.0725 Cl        1 <0>        -0.0051
     18 H4          1.0341   -1.3727   -1.2956 H         1 <0>         0.1499
     19 H5          3.1274   -0.0328   -1.2557 H         1 <0>         0.1556
     20 H6         -0.7333    1.5325    1.2862 H         1 <0>         0.1691
     21 H7         -2.3211   -1.4127   -1.8092 H         1 <0>         0.1082
     22 H8         -0.5337   -1.5186   -1.9048 H         1 <0>         0.1199
     23 H9          0.0951   -4.4685    0.0180 H         1 <0>         0.1039
     24 H10         0.7148   -3.1093   -0.9738 H         1 <0>         0.1130
     25 H11         0.3037   -3.1717    1.9253 H         1 <0>         0.1016
     26 H12         0.9234   -1.8126    0.9335 H         1 <0>         0.1174
     27 H13        -3.1247   -2.5463    0.4419 H         1 <0>         0.4324
     28 H14        -2.1894   -3.7275    1.1576 H         1 <0>         0.4332
@<TRIPOS>BOND
     1    1    6 ar
     2    1    2 ar
     3    1   18 1
     4    2    3 ar
     5    2   19 1
     6    3    4 ar
     7    3   17 1
     8    4    5 ar
     9    5    6 ar
    10    5   20 1
    11    6    7 1
    12    7    8 1
    13    7   14 1
    14    7    9 1
    15    9   10 1
    16    9   21 1
    17    9   22 1
    18   10   11 1
    19   10   16 1
    20   10   12 1
    21   12   13 1
    22   12   23 1
    23   12   24 1
    24   13   14 1
    25   13   25 1
    26   13   26 1
    27   14   15 1
    28   14   16 1
    29   16   27 1
    30   16   28 1
