@<TRIPOS>MOLECULE
ZINC12359024
   22    21     0     0     0
SMALL
USER_CHARGES
(2R,3S,4R,5S)-2,3,4,5-tetrahydroxyhexanedioic acid
@<TRIPOS>ATOM
      1 C1          1.2864    1.5618   -0.0018 C.3       1 <0>         0.0712
      2 H1          1.1856    2.6471    0.0050 H         1 <0>         0.1105
      3 C2          2.0397    1.1274   -1.2607 C.3       1 <0>         0.0711
      4 H2          2.1405    0.0421   -1.2675 H         1 <0>         0.1105
      5 C3          1.2625    1.5752   -2.5002 C.3       1 <0>         0.0362
      6 H3          0.3080    1.0503   -2.5398 H         1 <0>         0.1065
      7 C4          2.0626    1.2568   -3.7369 C.2       1 <0>         0.4525
      8 O1          2.4758    2.1515   -4.4360 O.co2     1 <0>        -0.6382
      9 O2          1.0293    2.9834   -2.4331 O.3       1 <0>        -0.5517
     10 O3          3.3371    1.7263   -1.2698 O.3       1 <0>        -0.5435
     11 C5          2.0636    1.1140    1.2377 C.3       1 <0>         0.0362
     12 H4          3.0180    1.6389    1.2773 H         1 <0>         0.1065
     13 C6          1.2635    1.4323    2.4744 C.2       1 <0>         0.4525
     14 O4          0.8503    0.5377    3.1735 O.co2     1 <0>        -0.6381
     15 O5          2.2968   -0.2943    1.1706 O.3       1 <0>        -0.5517
     16 O6         -0.0110    0.9628    0.0073 O.3       1 <0>        -0.5436
     17 H5          1.8365    3.5144   -2.3953 H         1 <0>         0.3634
     18 H6          3.3240    2.6932   -1.2645 H         1 <0>         0.3613
     19 H7          1.4895   -0.8253    1.1328 H         1 <0>         0.3634
     20 H8          0.0021   -0.0041    0.0020 H         1 <0>         0.3613
     21 O7          2.3162   -0.0206   -4.0618 O.co2     1 <0>        -0.7681
     22 O8          1.0099    2.7098    2.7993 O.co2     1 <0>        -0.7682
@<TRIPOS>BOND
     1    1    2 1
     2    1    3 1
     3    1   11 1
     4    1   16 1
     5    3    4 1
     6    3    5 1
     7    3   10 1
     8    5    6 1
     9    5    7 1
    10    5    9 1
    11    7    8 2
    12    7   21 1
    13    9   17 1
    14   10   18 1
    15   11   12 1
    16   11   13 1
    17   11   15 1
    18   13   14 2
    19   13   22 1
    20   15   19 1
    21   16   20 1
@<TRIPOS>MOLECULE
ZINC03828421
   31    33     0     0     0
SMALL
USER_CHARGES
2-(3-pyridyl)quinuclidine
@<TRIPOS>ATOM
      1 C1         -4.4614    3.3273    1.6845 C.ar      1 <0>        -0.1528
      2 C2         -3.1715    2.8184    1.6924 C.ar      1 <0>        -0.0473
      3 C3         -2.1374    3.6349    1.2613 C.ar      1 <0>        -0.1897
      4 C4         -2.4237    4.9218    0.8459 C.ar      1 <0>         0.0954
      5 N1         -3.6636    5.3705    0.8466 N.ar      1 <0>        -0.4653
      6 C5         -4.6718    4.6222    1.2503 C.ar      1 <0>         0.1249
      7 C6         -0.7182    3.1280    1.2517 C.3       1 <0>         0.0934
      8 H1         -0.2495    3.3407    2.2125 H         1 <0>         0.1468
      9 C7         -0.7167    1.6166    1.0059 C.3       1 <0>        -0.1366
     10 C8          0.0705    1.3242   -0.2778 C.3       1 <0>        -0.1022
     11 C9         -0.5875    2.0579   -1.4532 C.3       1 <0>        -0.1291
     12 C10        -0.5992    3.5707   -1.1261 C.3       1 <0>        -0.0098
     13 C11         1.4368    3.3606    0.1698 C.3       1 <0>         0.0006
     14 C12         1.4992    1.8557   -0.1073 C.3       1 <0>        -0.1378
     15 H2         -5.2911    2.7194    2.0138 H         1 <0>         0.1528
     16 H3         -2.9770    1.8100    2.0268 H         1 <0>         0.1503
     17 H4         -1.6233    5.5656    0.5125 H         1 <0>         0.1452
     18 H5         -5.6734    5.0260    1.2410 H         1 <0>         0.1719
     19 H6         -1.7419    1.2637    0.8939 H         1 <0>         0.1052
     20 H7         -0.2441    1.1102    1.8475 H         1 <0>         0.1065
     21 H8          0.0901    0.2513   -0.4693 H         1 <0>         0.1180
     22 H9         -0.0226    1.8663   -2.3655 H         1 <0>         0.1037
     23 H10        -1.6121    1.7069   -1.5753 H         1 <0>         0.0970
     24 H11        -1.6268    3.9334   -1.0999 H         1 <0>         0.1255
     25 H12        -0.0441    4.1061   -1.8964 H         1 <0>         0.1306
     26 H13         1.8904    3.5712    1.1383 H         1 <0>         0.1294
     27 H14         1.9779    3.8966   -0.6099 H         1 <0>         0.1315
     28 H15         1.9796    1.3498    0.7302 H         1 <0>         0.1017
     29 H16         2.0672    1.6756   -1.0199 H         1 <0>         0.1022
     30 N2          0.0329    3.8250    0.1861 N.4       1 <0>        -0.3904
     31 H17         0.0180    4.8345    0.3733 H         1 <0>         0.4287
@<TRIPOS>BOND
     1    1    6 ar
     2    1    2 ar
     3    1   15 1
     4    2    3 ar
     5    2   16 1
     6    3    4 ar
     7    3    7 1
     8    4    5 ar
     9    4   17 1
    10    5    6 ar
    11    6   18 1
    12    7    8 1
    13    7    9 1
    14    7   30 1
    15    9   10 1
    16    9   19 1
    17    9   20 1
    18   10   14 1
    19   10   11 1
    20   10   21 1
    21   11   12 1
    22   11   22 1
    23   11   23 1
    24   12   24 1
    25   12   25 1
    26   12   30 1
    27   13   14 1
    28   13   26 1
    29   13   27 1
    30   13   30 1
    31   14   28 1
    32   14   29 1
    33   30   31 1
@<TRIPOS>MOLECULE
ZINC04632552
   31    33     0     0     0
SMALL
USER_CHARGES
2-(3-pyridyl)quinuclidine
@<TRIPOS>ATOM
      1 C1          0.7756   -0.3647    4.7066 C.ar      1 <0>        -0.1527
      2 C2          1.4456    0.1508    3.6073 C.ar      1 <0>        -0.0475
      3 C3          1.3999   -0.5560    2.4157 C.ar      1 <0>        -0.1895
      4 C4          0.6887   -1.7400    2.3617 C.ar      1 <0>         0.0952
      5 N1          0.0680   -2.2031    3.4288 N.ar      1 <0>        -0.4652
      6 C5          0.0895   -1.5573    4.5785 C.ar      1 <0>         0.1247
      7 C6          2.1115   -0.0369    1.1928 C.3       1 <0>         0.0934
      8 H1          3.1310   -0.4219    1.1745 H         1 <0>         0.1469
      9 C7          2.1434    1.4936    1.2315 C.3       1 <0>        -0.1377
     10 C8          1.4191    2.0356   -0.0073 C.3       1 <0>        -0.0995
     11 C9         -0.0234    1.5145    0.0023 C.3       1 <0>        -0.1341
     12 C10         0.0042   -0.0167   -0.0021 C.3       1 <0>        -0.0069
     13 C11         2.0932   -0.0305   -1.2286 C.3       1 <0>         0.0007
     14 C12         2.1244    1.5001   -1.2598 C.3       1 <0>        -0.1376
     15 H2          0.7896    0.1595    5.6507 H         1 <0>         0.1528
     16 H3          1.9904    1.0807    3.6781 H         1 <0>         0.1503
     17 H4          0.6448   -2.2945    1.4359 H         1 <0>         0.1451
     18 H5         -0.4348   -1.9655    5.4299 H         1 <0>         0.1719
     19 H6          1.6409    1.8467    2.1319 H         1 <0>         0.1051
     20 H7          3.1777    1.8374    1.2317 H         1 <0>         0.1064
     21 H8          1.4240    3.1256    0.0026 H         1 <0>         0.1191
     22 H9         -0.5472    1.8729   -0.8839 H         1 <0>         0.1022
     23 H10        -0.5335    1.8680    0.8983 H         1 <0>         0.0976
     24 H11        -0.4957   -0.3919    0.8908 H         1 <0>         0.1251
     25 H12        -0.5090   -0.3871   -0.8894 H         1 <0>         0.1312
     26 H13         3.1131   -0.4151   -1.2274 H         1 <0>         0.1295
     27 H14         1.5654   -0.4015   -2.1072 H         1 <0>         0.1316
     28 H15         1.6083    1.8578   -2.1507 H         1 <0>         0.1023
     29 H16         3.1586    1.8441   -1.2718 H         1 <0>         0.1019
     30 N2          1.3989   -0.5080   -0.0138 N.4       1 <0>        -0.3910
     31 H17         1.3906   -1.5348   -0.0164 H         1 <0>         0.4286
@<TRIPOS>BOND
     1    1    6 ar
     2    1    2 ar
     3    1   15 1
     4    2    3 ar
     5    2   16 1
     6    3    4 ar
     7    3    7 1
     8    4    5 ar
     9    4   17 1
    10    5    6 ar
    11    6   18 1
    12    7    8 1
    13    7    9 1
    14    7   30 1
    15    9   10 1
    16    9   19 1
    17    9   20 1
    18   10   14 1
    19   10   11 1
    20   10   21 1
    21   11   12 1
    22   11   22 1
    23   11   23 1
    24   12   24 1
    25   12   25 1
    26   12   30 1
    27   13   14 1
    28   13   26 1
    29   13   27 1
    30   13   30 1
    31   14   28 1
    32   14   29 1
    33   30   31 1
