@<TRIPOS>MOLECULE
ZINC00005898
   24    25     0     0     0
SMALL
USER_CHARGES
3-[(2R)-pyrrolidin-2-yl]pyridine
@<TRIPOS>ATOM
      1 C1         -3.5303    4.7937   -3.0864 C.ar      1 <0>        -0.1553
      2 C2         -3.3015    3.6409   -2.3505 C.ar      1 <0>        -0.0406
      3 C3         -2.2630    3.6396   -1.4321 C.ar      1 <0>        -0.1948
      4 C4         -1.4884    4.7755   -1.2899 C.ar      1 <0>         0.1032
      5 N1         -1.7311    5.8521   -2.0114 N.ar      1 <0>        -0.4673
      6 C5         -2.7136    5.8909   -2.8903 C.ar      1 <0>         0.1291
      7 C6         -1.9784    2.4133   -0.6038 C.3       1 <0>         0.0880
      8 H1         -2.8671    1.7856   -0.5376 H         1 <0>         0.1514
      9 C7         -0.8008    1.6177   -1.2067 C.3       1 <0>        -0.1418
     10 C8         -0.0127    1.0858    0.0080 C.3       1 <0>        -0.1510
     11 C9         -0.7780    1.6049    1.2442 C.3       1 <0>        -0.0060
     12 H2         -4.3332    4.8316   -3.8077 H         1 <0>         0.1533
     13 H3         -3.9205    2.7663   -2.4863 H         1 <0>         0.1482
     14 H4         -0.6746    4.7812   -0.5798 H         1 <0>         0.1483
     15 H5         -2.8820    6.7908   -3.4632 H         1 <0>         0.1724
     16 H6         -0.1711    2.2719   -1.8096 H         1 <0>         0.1009
     17 H7         -1.1729    0.7888   -1.8090 H         1 <0>         0.1144
     18 H8          0.0021   -0.0041    0.0020 H         1 <0>         0.1134
     19 H9          1.0044    1.4776    0.0004 H         1 <0>         0.1017
     20 H10        -1.4779    0.8500    1.6026 H         1 <0>         0.1366
     21 H11        -0.0803    1.8832    2.0340 H         1 <0>         0.1435
     22 N2         -1.5074    2.7697    0.7356 N.4       1 <0>        -0.5148
     23 H12        -2.3044    2.9835    1.3466 H         1 <0>         0.4380
     24 H13        -0.8848    3.5847    0.6874 H         1 <0>         0.4294
@<TRIPOS>BOND
     1    1    6 ar
     2    1    2 ar
     3    1   12 1
     4    2    3 ar
     5    2   13 1
     6    3    4 ar
     7    3    7 1
     8    4    5 ar
     9    4   14 1
    10    5    6 ar
    11    6   15 1
    12    7    8 1
    13    7    9 1
    14    7   22 1
    15    9   10 1
    16    9   16 1
    17    9   17 1
    18   10   11 1
    19   10   18 1
    20   10   19 1
    21   11   20 1
    22   11   21 1
    23   11   22 1
    24   22   23 1
    25   22   24 1
@<TRIPOS>MOLECULE
ZINC00391820
   24    25     0     0     0
SMALL
USER_CHARGES

@<TRIPOS>ATOM
      1 C1         -0.0167    1.3776    0.0096 C.ar      1 <0>        -0.1555
      2 C2          1.1849    2.0698    0.0019 C.ar      1 <0>        -0.0408
      3 C3          2.3651    1.3426   -0.0133 C.ar      1 <0>        -0.1999
      4 C4          2.3054   -0.0383   -0.0202 C.ar      1 <0>         0.1010
      5 N1          1.1443   -0.6632   -0.0129 N.ar      1 <0>        -0.4674
      6 C5          0.0021   -0.0041    0.0020 C.ar      1 <0>         0.1293
      7 C6          3.6964    2.0488   -0.0227 C.3       1 <0>         0.0843
      8 H1          3.5738    3.0754    0.3224 H         1 <0>         0.1494
      9 C7          4.2846    2.0413   -1.4494 C.3       1 <0>        -0.1342
     10 C8          5.8001    1.8213   -1.2015 C.3       1 <0>        -0.1434
     11 C9          5.7823    0.8677    0.0191 C.3       1 <0>        -0.0105
     12 N2          4.6482    1.3366    0.8495 N.4       1 <0>        -0.5163
     13 H2         -0.9552    1.9117    0.0259 H         1 <0>         0.1533
     14 H3          1.2009    3.1496    0.0072 H         1 <0>         0.1483
     15 H4          3.2203   -0.6121   -0.0320 H         1 <0>         0.1503
     16 H5         -0.9294   -0.5505    0.0083 H         1 <0>         0.1724
     17 H6          3.8668    1.2219   -2.0342 H         1 <0>         0.1017
     18 H7          4.1096    2.9971   -1.9434 H         1 <0>         0.1173
     19 H8          6.2715    1.3459   -2.0616 H         1 <0>         0.1204
     20 H9          6.2960    2.7605   -0.9560 H         1 <0>         0.1020
     21 H10         5.6177   -0.1600   -0.3047 H         1 <0>         0.1349
     22 H11         6.7162    0.9461    0.5756 H         1 <0>         0.1412
     23 H12         4.9851    1.9618    1.5663 H         1 <0>         0.4341
     24 H13         4.1901    0.5462    1.2779 H         1 <0>         0.4283
@<TRIPOS>BOND
     1    1    6 ar
     2    1    2 ar
     3    1   13 1
     4    2    3 ar
     5    2   14 1
     6    3    4 ar
     7    3    7 1
     8    4    5 ar
     9    4   15 1
    10    5    6 ar
    11    6   16 1
    12    7    8 1
    13    7   12 1
    14    7    9 1
    15    9   10 1
    16    9   17 1
    17    9   18 1
    18   10   11 1
    19   10   19 1
    20   10   20 1
    21   11   12 1
    22   11   21 1
    23   11   22 1
    24   12   23 1
    25   12   24 1
@<TRIPOS>MOLECULE
ZINC13643827
   26    28     0     0     0
SMALL
USER_CHARGES

@<TRIPOS>ATOM
      1 C1         -0.0168    1.3854    0.0097 C.ar      1 <0>        -0.1050
      2 C2          1.1480    2.1248    0.0025 C.ar      1 <0>        -0.1050
      3 C3          2.3972    1.5163   -0.0135 C.ar      1 <0>        -0.0838
      4 C4          2.4200    0.1339   -0.0211 C.ar      1 <0>        -0.1373
      5 C5          1.2432   -0.6131   -0.0129 C.ar      1 <0>        -0.1372
      6 C6          0.0021   -0.0041    0.0020 C.ar      1 <0>        -0.0840
      7 C7          1.5970   -2.0812   -0.0227 C.3       1 <0>        -0.0683
      8 H1          0.8731   -2.7017    0.5055 H         1 <0>         0.1340
      9 C8          3.0149   -2.0963    0.6277 C.3       1 <0>        -0.1261
     10 C9          3.5976   -0.8113   -0.0378 C.3       1 <0>        -0.0662
     11 H2          4.4731   -0.4170    0.4781 H         1 <0>         0.1352
     12 C10         3.8601   -1.1927   -1.5088 C.3       1 <0>         0.0016
     13 N1          2.5765   -1.4396   -2.1757 N.4       1 <0>        -0.5091
     14 C11         1.7917   -2.4972   -1.4949 C.3       1 <0>         0.0040
     15 H3         -0.9666    1.8992    0.0261 H         1 <0>         0.1340
     16 H4          1.0874    3.2031    0.0091 H         1 <0>         0.1340
     17 H5          3.3082    2.0964   -0.0200 H         1 <0>         0.1411
     18 H6         -0.9106   -0.5815    0.0079 H         1 <0>         0.1411
     19 H7          2.9587   -1.9949    1.7115 H         1 <0>         0.1005
     20 H8          3.5769   -2.9851    0.3409 H         1 <0>         0.0951
     21 H9          4.3803   -0.3763   -2.0099 H         1 <0>         0.1348
     22 H10         4.4709   -2.0946   -1.5482 H         1 <0>         0.1372
     23 H11         2.0356   -0.5878   -2.1768 H         1 <0>         0.4253
     24 H12         2.3474   -3.4339   -1.5387 H         1 <0>         0.1357
     25 H13         0.8188   -2.6262   -1.9691 H         1 <0>         0.1384
     26 H14         2.7485   -1.7218   -3.1290 H         1 <0>         0.4299
@<TRIPOS>BOND
     1    1    6 ar
     2    1    2 ar
     3    1   15 1
     4    2    3 ar
     5    2   16 1
     6    3    4 ar
     7    3   17 1
     8    4   10 1
     9    4    5 ar
    10    5    6 ar
    11    5    7 1
    12    6   18 1
    13    7    8 1
    14    7   14 1
    15    7    9 1
    16    9   10 1
    17    9   19 1
    18    9   20 1
    19   10   11 1
    20   10   12 1
    21   12   13 1
    22   12   21 1
    23   12   22 1
    24   13   14 1
    25   13   23 1
    26   13   26 1
    27   14   24 1
    28   14   25 1
@<TRIPOS>MOLECULE
ZINC04098884
   28    29     0     0     0
SMALL
USER_CHARGES

@<TRIPOS>ATOM
      1 C1         -0.0184    1.5028    0.0103 C.3       1 <0>        -0.2103
      2 C2          0.0021   -0.0041    0.0020 C.2       1 <0>         0.3798
      3 O1          1.0609   -0.5963   -0.0113 O.2       1 <0>        -0.4350
      4 C3         -1.2613   -0.7566    0.0100 C.2       1 <0>        -0.2743
      5 C4         -1.1803   -2.0831   -0.0453 C.2       1 <0>         0.0084
      6 C5         -2.4528   -2.9230    0.0168 C.3       1 <0>        -0.1381
      7 C6         -3.2610   -2.6693   -1.2566 C.3       1 <0>        -0.1290
      8 C7         -4.0383   -1.3685   -1.1625 C.3       1 <0>         0.0182
      9 H1         -4.8385   -1.3502   -1.9105 H         1 <0>         0.1517
     10 C8         -4.6272   -1.2637    0.2730 C.3       1 <0>        -0.1447
     11 C9         -3.5252   -0.5381    1.0778 C.3       1 <0>        -0.1436
     12 C10        -2.5467    0.0118    0.0264 C.3       1 <0>         0.0890
     13 H2         -2.3553    1.0768    0.2028 H         1 <0>         0.1562
     14 N1         -3.2191   -0.1720   -1.2776 N.4       1 <0>        -0.5030
     15 H3          1.0042    1.8801    0.0026 H         1 <0>         0.0980
     16 H4         -0.5455    1.8639   -0.8728 H         1 <0>         0.0909
     17 H5         -0.5286    1.8543    0.9071 H         1 <0>         0.0992
     18 H6         -0.2176   -2.5630   -0.1336 H         1 <0>         0.1540
     19 H7         -2.1651   -3.9823    0.0362 H         1 <0>         0.1025
     20 H8         -3.0265   -2.7041    0.9010 H         1 <0>         0.1147
     21 H9         -2.5779   -2.6225   -2.1050 H         1 <0>         0.0906
     22 H10        -3.9564   -3.4962   -1.4038 H         1 <0>         0.1217
     23 H11        -5.5484   -0.6718    0.2684 H         1 <0>         0.1026
     24 H12        -4.8307   -2.2519    0.6887 H         1 <0>         0.1173
     25 H13        -3.9662    0.2902    1.6448 H         1 <0>         0.1084
     26 H14        -3.0243   -1.2129    1.7669 H         1 <0>         0.1113
     27 H15        -2.5327   -0.2917   -2.0062 H         1 <0>         0.4285
     28 H16        -3.8015    0.6268   -1.4787 H         1 <0>         0.4349
@<TRIPOS>BOND
     1    1    2 1
     2    1   15 1
     3    1   16 1
     4    1   17 1
     5    2    3 2
     6    2    4 1
     7    4   12 1
     8    4    5 2
     9    5    6 1
    10    5   18 1
    11    6    7 1
    12    6   19 1
    13    6   20 1
    14    7    8 1
    15    7   21 1
    16    7   22 1
    17    8    9 1
    18    8   14 1
    19    8   10 1
    20   10   11 1
    21   10   23 1
    22   10   24 1
    23   11   12 1
    24   11   25 1
    25   11   26 1
    26   12   13 1
    27   12   14 1
    28   14   27 1
    29   14   28 1
@<TRIPOS>MOLECULE
ZINC04098885
   28    29     0     0     0
SMALL
USER_CHARGES
1-(9-azabicyclo[4.2.1]non-4-en-5-yl)ethanone
@<TRIPOS>ATOM
      1 C1          0.9561    2.9250    2.3594 C.3       1 <0>        -0.2009
      2 C2          1.8868    2.6621    1.2038 C.2       1 <0>         0.3805
      3 O1          3.0484    3.0062    1.2699 O.2       1 <0>        -0.4361
      4 C3          1.3870    1.9882   -0.0046 C.2       1 <0>        -0.2690
      5 C4          2.2139    1.8637   -1.0260 C.2       1 <0>         0.0051
      6 C5          1.8108    1.1949   -2.3255 C.3       1 <0>        -0.1334
      7 C6          1.4310   -0.2570   -2.0738 C.3       1 <0>        -0.1245
      8 C7          0.1073   -0.4111   -1.3772 C.3       1 <0>         0.0072
      9 H1         -0.2599   -1.4455   -1.4856 H         1 <0>         0.1545
     10 C8         -0.8899    0.5581   -2.1051 C.3       1 <0>        -0.1479
     11 C9         -0.7477    1.8784   -1.3092 C.3       1 <0>        -0.1465
     12 C10        -0.0260    1.4857   -0.0013 C.3       1 <0>         0.0757
     13 H2         -0.5721    1.8737    0.8637 H         1 <0>         0.1629
     14 H3          0.0689    2.5018    2.1758 H         1 <0>         0.0701
     15 H4          1.3792    2.5014    3.2703 H         1 <0>         0.1032
     16 H5          0.8268    4.0000    2.4846 H         1 <0>         0.1076
     17 H6          3.2252    2.2588   -0.9272 H         1 <0>         0.1510
     18 H7          2.6712    1.2153   -3.0114 H         1 <0>         0.1037
     19 H8          0.9974    1.7300   -2.8039 H         1 <0>         0.1114
     20 H9          2.2187   -0.7246   -1.4708 H         1 <0>         0.0891
     21 H10         1.4017   -0.7821   -3.0360 H         1 <0>         0.1227
     22 H11        -0.6008    0.6919   -3.1455 H         1 <0>         0.1148
     23 H12        -1.9074    0.1716   -2.0340 H         1 <0>         0.1009
     24 H13        -1.7387    2.2798   -1.0768 H         1 <0>         0.1072
     25 H14        -0.1750    2.6160   -1.8620 H         1 <0>         0.1089
     26 N1         -0.0215    0.0266   -0.0217 N.4       1 <0>        -0.4903
     27 H15         0.7689   -0.3244    0.5317 H         1 <0>         0.4308
     28 H16        -0.9004   -0.3273    0.3740 H         1 <0>         0.4414
@<TRIPOS>BOND
     1    1    2 1
     2    1   14 1
     3    1   15 1
     4    1   16 1
     5    2    3 2
     6    2    4 1
     7    4   12 1
     8    4    5 2
     9    5    6 1
    10    5   17 1
    11    6    7 1
    12    6   18 1
    13    6   19 1
    14    7    8 1
    15    7   20 1
    16    7   21 1
    17    8    9 1
    18    8   10 1
    19    8   26 1
    20   10   11 1
    21   10   22 1
    22   10   23 1
    23   11   12 1
    24   11   24 1
    25   11   25 1
    26   12   13 1
    27   12   26 1
    28   26   27 1
    29   26   28 1
@<TRIPOS>MOLECULE
ZINC00391812
   27    28     0     0     0
SMALL
USER_CHARGES

@<TRIPOS>ATOM
      1 C1          0.3944    1.5372   -0.0882 C.3       1 <0>        -0.0517
      2 N1          0.2218    0.0783   -0.0924 N.4       1 <0>        -0.3878
      3 C2          0.9063   -0.4989   -1.2638 C.3       1 <0>        -0.0125
      4 C3          1.9925   -1.4575   -0.7321 C.3       1 <0>        -0.1421
      5 C4          2.2411   -0.9393    0.7089 C.3       1 <0>        -0.1364
      6 C5          0.8181   -0.4968    1.1321 C.3       1 <0>         0.0811
      7 H1          0.2382   -1.3559    1.4692 H         1 <0>         0.1507
      8 C6          0.8940    0.5453    2.2181 C.ar      1 <0>        -0.2036
      9 C7          1.8431    1.5545    2.1577 C.ar      1 <0>        -0.0573
     10 C8          1.8760    2.4913    3.1790 C.ar      1 <0>        -0.1660
     11 C9          0.9680    2.3891    4.2162 C.ar      1 <0>         0.1377
     12 N2          0.0793    1.4154    4.2410 N.ar      1 <0>        -0.4739
     13 C10         0.0150    0.5105    3.2837 C.ar      1 <0>         0.1353
     14 H2          1.4576    1.7772   -0.0812 H         1 <0>         0.1215
     15 H3         -0.0678    1.9603   -0.9800 H         1 <0>         0.1243
     16 H4         -0.0786    1.9564    0.7999 H         1 <0>         0.1209
     17 H5          0.1926   -1.0502   -1.8760 H         1 <0>         0.1353
     18 H6          1.3676    0.2945   -1.8519 H         1 <0>         0.1319
     19 H7          1.6257   -2.4838   -0.7146 H         1 <0>         0.1029
     20 H8          2.9001   -1.3816   -1.3309 H         1 <0>         0.1144
     21 H9          2.6094   -1.7378    1.3529 H         1 <0>         0.1203
     22 H10         2.9285   -0.0933    0.7065 H         1 <0>         0.0978
     23 H11         2.5404    1.6091    1.3347 H         1 <0>         0.1428
     24 H12         2.6020    3.2907    3.1646 H         1 <0>         0.1512
     25 H13         0.9870    3.1149    5.0157 H         1 <0>         0.1712
     26 H14        -0.7302   -0.2695    3.3356 H         1 <0>         0.1637
     27 H15        -0.7608   -0.1480   -0.1301 H         1 <0>         0.4285
@<TRIPOS>BOND
     1    1    2 1
     2    1   14 1
     3    1   15 1
     4    1   16 1
     5    2    6 1
     6    2    3 1
     7    2   27 1
     8    3    4 1
     9    3   17 1
    10    3   18 1
    11    4    5 1
    12    4   19 1
    13    4   20 1
    14    5    6 1
    15    5   21 1
    16    5   22 1
    17    6    7 1
    18    6    8 1
    19    8   13 ar
    20    8    9 ar
    21    9   10 ar
    22    9   23 1
    23   10   11 ar
    24   10   24 1
    25   11   12 ar
    26   11   25 1
    27   12   13 ar
    28   13   26 1
@<TRIPOS>MOLECULE
ZINC01530808
   44    43     0     0     0
SMALL
USER_CHARGES

@<TRIPOS>ATOM
      1 C1         -0.0178    1.4648    0.0101 C.3       1 <0>        -0.0512
      2 N1          0.0021   -0.0041    0.0020 N.4       1 <0>        -0.2715
      3 C2          0.7126   -0.4907    1.1921 C.3       1 <0>        -0.0512
      4 C3         -1.3761   -0.5125    0.0124 C.3       1 <0>        -0.0466
      5 C4          0.6897   -0.4778   -1.2066 C.3       1 <0>        -0.0092
      6 C5          2.1250    0.0518   -1.2175 C.3       1 <0>        -0.1525
      7 C6          2.8412   -0.4417   -2.4763 C.3       1 <0>        -0.1184
      8 C7          4.2766    0.0879   -2.4871 C.3       1 <0>        -0.1184
      9 C8          4.9927   -0.4055   -3.7459 C.3       1 <0>        -0.1525
     10 C9          6.4281    0.1241   -3.7568 C.3       1 <0>        -0.0092
     11 N2          7.1157   -0.3497   -4.9654 N.4       1 <0>        -0.2715
     12 C10         6.4052    0.1370   -6.1555 C.3       1 <0>        -0.0512
     13 C11         8.4938    0.1588   -4.9758 C.3       1 <0>        -0.0466
     14 C12         7.1356   -1.8185   -4.9735 C.3       1 <0>        -0.0513
     15 H1          1.0047    1.8421    0.0024 H         1 <0>         0.1212
     16 H2         -0.5450    1.8259   -0.8730 H         1 <0>         0.1224
     17 H3         -0.5280    1.8163    0.9069 H         1 <0>         0.1252
     18 H4          0.2024   -0.1392    2.0889 H         1 <0>         0.1252
     19 H5          0.7273   -1.5806    1.1861 H         1 <0>         0.1224
     20 H6          1.7352   -0.1134    1.1844 H         1 <0>         0.1212
     21 H7         -1.9033   -0.1515   -0.8706 H         1 <0>         0.1226
     22 H8         -1.3613   -1.6024    0.0064 H         1 <0>         0.1225
     23 H9         -1.8863   -0.1610    0.9092 H         1 <0>         0.1255
     24 H10         0.7044   -1.5677   -1.2126 H         1 <0>         0.1285
     25 H11         0.1625   -0.1167   -2.0897 H         1 <0>         0.1285
     26 H12         2.1103    1.1416   -1.2115 H         1 <0>         0.0899
     27 H13         2.6522   -0.3093   -0.3344 H         1 <0>         0.0899
     28 H14         2.8560   -1.5315   -2.4823 H         1 <0>         0.0777
     29 H15         2.3140   -0.0806   -3.3593 H         1 <0>         0.0777
     30 H16         4.2618    1.1778   -2.4811 H         1 <0>         0.0777
     31 H17         4.8038   -0.2732   -1.6041 H         1 <0>         0.0777
     32 H18         5.0075   -1.4954   -3.7519 H         1 <0>         0.0899
     33 H19         4.4655   -0.0444   -4.6290 H         1 <0>         0.0899
     34 H20         6.4133    1.2140   -3.7508 H         1 <0>         0.1285
     35 H21         6.9553   -0.2370   -2.8737 H         1 <0>         0.1285
     36 H22         6.3904    1.2268   -6.1495 H         1 <0>         0.1224
     37 H23         6.9154   -0.2146   -7.0523 H         1 <0>         0.1252
     38 H24         5.3826   -0.2403   -6.1478 H         1 <0>         0.1212
     39 H25         9.0210   -0.2023   -4.0928 H         1 <0>         0.1225
     40 H26         9.0040   -0.1927   -5.8726 H         1 <0>         0.1255
     41 H27         8.4791    1.2487   -4.9698 H         1 <0>         0.1226
     42 H28         6.1130   -2.1958   -4.9657 H         1 <0>         0.1212
     43 H29         7.6458   -2.1700   -5.8703 H         1 <0>         0.1252
     44 H30         7.6628   -2.1796   -4.0904 H         1 <0>         0.1224
@<TRIPOS>BOND
     1    1    2 1
     2    1   15 1
     3    1   16 1
     4    1   17 1
     5    2    3 1
     6    2    4 1
     7    2    5 1
     8    3   18 1
     9    3   19 1
    10    3   20 1
    11    4   21 1
    12    4   22 1
    13    4   23 1
    14    5    6 1
    15    5   24 1
    16    5   25 1
    17    6    7 1
    18    6   26 1
    19    6   27 1
    20    7    8 1
    21    7   28 1
    22    7   29 1
    23    8    9 1
    24    8   30 1
    25    8   31 1
    26    9   10 1
    27    9   32 1
    28    9   33 1
    29   10   11 1
    30   10   34 1
    31   10   35 1
    32   11   12 1
    33   11   13 1
    34   11   14 1
    35   12   36 1
    36   12   37 1
    37   12   38 1
    38   13   39 1
    39   13   40 1
    40   13   41 1
    41   14   42 1
    42   14   43 1
    43   14   44 1
@<TRIPOS>MOLECULE
ZINC01599730
   29    31     0     0     0
SMALL
USER_CHARGES

@<TRIPOS>ATOM
      1 C1         -0.0164    1.3600    0.0095 C.2       1 <0>        -0.0245
      2 C2          1.1996    2.0523    0.0016 C.2       1 <0>        -0.1843
      3 C3          2.3778    1.3768   -0.0442 C.2       1 <0>         0.0941
      4 N1          2.3937    0.0268   -0.1381 N.am      1 <0>        -0.5087
      5 C4          1.2352   -0.6700   -0.0346 C.2       1 <0>         0.5066
      6 O1          1.2662   -1.8886    0.0278 O.2       1 <0>        -0.5237
      7 C5          0.0021   -0.0041    0.0020 C.2       1 <0>        -0.2160
      8 C6          3.6089   -0.7431   -0.4070 C.3       1 <0>         0.0769
      9 C7          4.8712    0.0424   -0.0913 C.3       1 <0>        -0.1209
     10 H1          5.7197   -0.4721   -0.5424 H         1 <0>         0.1427
     11 C8          4.7670    1.4398   -0.7098 C.3       1 <0>        -0.1321
     12 C9          3.6522    2.1878    0.0311 C.3       1 <0>        -0.0636
     13 H2          3.5027    3.1776   -0.4001 H         1 <0>         0.1512
     14 C10         4.0502    2.2840    1.5133 C.3       1 <0>        -0.0032
     15 N2          4.0742    0.9227    2.0685 N.4       1 <0>        -0.5068
     16 C11         5.1112    0.1456    1.4075 C.3       1 <0>        -0.0085
     17 H3         -0.9536    1.8964    0.0258 H         1 <0>         0.1488
     18 H4          1.2018    3.1319    0.0318 H         1 <0>         0.1548
     19 H5         -0.9213   -0.5637    0.0243 H         1 <0>         0.1605
     20 H6          3.5951   -1.6485    0.1997 H         1 <0>         0.1127
     21 H7          3.6225   -1.0255   -1.4597 H         1 <0>         0.1058
     22 H8          5.7120    1.9695   -0.5893 H         1 <0>         0.1044
     23 H9          4.5190    1.3590   -1.7681 H         1 <0>         0.1039
     24 H10         5.0388    2.7347    1.6006 H         1 <0>         0.1478
     25 H11         3.3204    2.8884    2.0520 H         1 <0>         0.1423
     26 H12         4.2644    0.9675    3.0584 H         1 <0>         0.4367
     27 H13         5.1185   -0.8558    1.8380 H         1 <0>         0.1365
     28 H14         6.0788    0.6158    1.5829 H         1 <0>         0.1433
     29 H15         3.1779    0.4839    1.9198 H         1 <0>         0.4231
@<TRIPOS>BOND
     1    1    7 2
     2    1    2 1
     3    1   17 1
     4    2    3 2
     5    2   18 1
     6    3   12 1
     7    3    4 1
     8    4    5 am
     9    4    8 1
    10    5    6 2
    11    5    7 1
    12    7   19 1
    13    8    9 1
    14    8   20 1
    15    8   21 1
    16    9   10 1
    17    9   16 1
    18    9   11 1
    19   11   12 1
    20   11   22 1
    21   11   23 1
    22   12   13 1
    23   12   14 1
    24   14   15 1
    25   14   24 1
    26   14   25 1
    27   15   16 1
    28   15   26 1
    29   15   29 1
    30   16   27 1
    31   16   28 1
@<TRIPOS>MOLECULE
ZINC01481833
   30    33     0     0     0
SMALL
USER_CHARGES
BLAH
@<TRIPOS>ATOM
      1 C1         -0.0126    1.0758    0.0080 C.ar      1 <0>         0.0966
      2 C2          1.1918    1.7831    0.0003 C.ar      1 <0>         0.0966
      3 N1          1.1984    3.0965    0.0072 N.ar      1 <0>        -0.4215
      4 C3          0.0401    3.7650    0.0224 C.ar      1 <0>         0.0813
      5 C4          0.0125    5.1704    0.0335 C.ar      1 <0>        -0.0410
      6 C5         -1.1805    5.8238    0.0448 C.ar      1 <0>        -0.1245
      7 C6         -2.3856    5.1162    0.0469 C.ar      1 <0>        -0.1247
      8 C7         -2.3961    3.7559    0.0387 C.ar      1 <0>        -0.0409
      9 C8         -1.1823    3.0472    0.0280 C.ar      1 <0>         0.0811
     10 N2         -1.1627    1.7099    0.0169 N.ar      1 <0>        -0.4215
     11 C9         -3.5341    6.1155    0.0591 C.3       1 <0>        -0.0599
     12 H1         -4.4250    5.7502   -0.4518 H         1 <0>         0.1398
     13 C10        -2.9031    7.3764   -0.5983 C.3       1 <0>        -0.1241
     14 C11        -1.4937    7.3136    0.0576 C.3       1 <0>        -0.0600
     15 H2         -0.7414    7.9138   -0.4542 H         1 <0>         0.1398
     16 C12        -1.6899    7.7219    1.5301 C.3       1 <0>         0.0036
     17 C13        -3.7942    6.4872    1.5314 C.3       1 <0>         0.0036
     18 H3          0.0021   -0.0041    0.0020 H         1 <0>         0.1876
     19 H4          2.1277    1.2443   -0.0119 H         1 <0>         0.1876
     20 H5          0.9363    5.7299    0.0333 H         1 <0>         0.1493
     21 H6         -3.3348    3.2218    0.0415 H         1 <0>         0.1492
     22 H7         -3.4357    8.2839   -0.3139 H         1 <0>         0.1008
     23 H8         -2.8440    7.2746   -1.6819 H         1 <0>         0.1034
     24 H9         -0.7194    7.7941    2.0210 H         1 <0>         0.1339
     25 H10        -2.1966    8.6858    1.5770 H         1 <0>         0.1409
     26 H11        -4.3303    5.6756    2.0234 H         1 <0>         0.1340
     27 H12        -4.3883    7.3999    1.5779 H         1 <0>         0.1409
     28 N3         -2.5008    6.6942    2.2200 N.4       1 <0>        -0.5192
     29 H13        -2.6789    6.9988    3.1842 H         1 <0>         0.4374
     30 H14        -1.9812    5.8087    2.2313 H         1 <0>         0.4298
@<TRIPOS>BOND
     1    1   10 ar
     2    1    2 ar
     3    1   18 1
     4    2    3 ar
     5    2   19 1
     6    3    4 ar
     7    4    9 ar
     8    4    5 ar
     9    5    6 ar
    10    5   20 1
    11    6   14 1
    12    6    7 ar
    13    7    8 ar
    14    7   11 1
    15    8    9 ar
    16    8   21 1
    17    9   10 ar
    18   11   12 1
    19   11   17 1
    20   11   13 1
    21   13   14 1
    22   13   22 1
    23   13   23 1
    24   14   15 1
    25   14   16 1
    26   16   24 1
    27   16   25 1
    28   16   28 1
    29   17   26 1
    30   17   27 1
    31   17   28 1
    32   28   29 1
    33   28   30 1
@<TRIPOS>MOLECULE
ZINC00967913
   28    30     0     0     0
SMALL
USER_CHARGES

@<TRIPOS>ATOM
      1 C1          1.2171   -0.6545    0.1555 C.ar      1 <0>        -0.0752
      2 C2          2.3777    0.1031    0.1418 C.ar      1 <0>        -0.1425
      3 C3          2.2860    1.4736   -0.0235 C.ar      1 <0>         0.1878
      4 N1          1.1116    2.0586   -0.1663 N.ar      1 <0>        -0.4633
      5 C4         -0.0121    1.3684   -0.1581 C.ar      1 <0>         0.1458
      6 C5          0.0021   -0.0041    0.0020 C.ar      1 <0>        -0.1631
      7 C6         -1.2872   -0.7844    0.0101 C.3       1 <0>        -0.0612
      8 H1         -2.1393   -0.1141    0.1233 H         1 <0>         0.1365
      9 C7         -1.2749   -1.8456    1.1375 C.3       1 <0>        -0.1443
     10 C8         -1.4042   -3.1952    0.3689 C.3       1 <0>         0.0384
     11 H2         -1.0647   -4.0789    0.9092 H         1 <0>         0.1726
     12 C9         -2.8802   -3.2368   -0.1294 C.3       1 <0>        -0.1467
     13 C10        -2.9122   -2.1745   -1.2554 C.3       1 <0>        -0.1410
     14 C11        -1.4241   -1.6312   -1.2910 C.3       1 <0>         0.0452
     15 H3         -1.1139   -1.1348   -2.2105 H         1 <0>         0.1734
     16 N2         -0.6607   -2.8754   -0.9018 N.4       1 <0>        -0.5418
     17 Cl1         3.7316    2.4346   -0.0426 Cl        1 <0>        -0.0014
     18 H4          1.2583   -1.7267    0.2784 H         1 <0>         0.1305
     19 H5          3.3413   -0.3704    0.2590 H         1 <0>         0.1568
     20 H6         -0.9547    1.8820   -0.2775 H         1 <0>         0.1733
     21 H7         -0.3364   -1.8073    1.6905 H         1 <0>         0.1022
     22 H8         -2.1225   -1.7031    1.8079 H         1 <0>         0.1235
     23 H9         -3.1240   -4.2228   -0.5251 H         1 <0>         0.1015
     24 H10        -3.5644   -2.9648    0.6743 H         1 <0>         0.1177
     25 H11        -3.1719   -2.6339   -2.2092 H         1 <0>         0.1026
     26 H12        -3.6123   -1.3759   -1.0098 H         1 <0>         0.1175
     27 H13         0.3118   -2.6745   -0.7232 H         1 <0>         0.4224
     28 H14        -0.7670   -3.6066   -1.5889 H         1 <0>         0.4327
@<TRIPOS>BOND
     1    1    6 ar
     2    1    2 ar
     3    1   18 1
     4    2    3 ar
     5    2   19 1
     6    3    4 ar
     7    3   17 1
     8    4    5 ar
     9    5    6 ar
    10    5   20 1
    11    6    7 1
    12    7    8 1
    13    7   14 1
    14    7    9 1
    15    9   10 1
    16    9   21 1
    17    9   22 1
    18   10   11 1
    19   10   16 1
    20   10   12 1
    21   12   13 1
    22   12   23 1
    23   12   24 1
    24   13   14 1
    25   13   25 1
    26   13   26 1
    27   14   15 1
    28   14   16 1
    29   16   27 1
    30   16   28 1
@<TRIPOS>MOLECULE
ZINC02565794
   28    30     0     0     0
SMALL
USER_CHARGES

@<TRIPOS>ATOM
      1 C1          1.0928   -0.4585   -0.7237 C.ar      1 <0>        -0.0620
      2 C2          2.2584    0.2913   -0.7024 C.ar      1 <0>        -0.1496
      3 C3          2.2945    1.4601    0.0370 C.ar      1 <0>         0.1879
      4 N1          1.2364    1.8615    0.7161 N.ar      1 <0>        -0.4678
      5 C4          0.1118    1.1728    0.7180 C.ar      1 <0>         0.1387
      6 C5          0.0021   -0.0041    0.0020 C.ar      1 <0>        -0.1517
      7 C6         -1.2872   -0.7844    0.0101 C.3       1 <0>        -0.0603
      8 H1         -2.1406   -0.1121    0.0984 H         1 <0>         0.1214
      9 C7         -1.4069   -1.6526   -1.2663 C.3       1 <0>        -0.1520
     10 C8         -1.4635   -3.1084   -0.7127 C.3       1 <0>         0.0416
     11 H2         -1.8985   -3.8501   -1.3825 H         1 <0>         0.1732
     12 C9         -0.0153   -3.4112   -0.2228 C.3       1 <0>        -0.1506
     13 C10         0.1242   -2.5441    1.0524 C.3       1 <0>        -0.1538
     14 C11        -1.2892   -1.8286    1.1671 C.3       1 <0>         0.0430
     15 H3         -1.5584   -1.4416    2.1499 H         1 <0>         0.1768
     16 N2         -2.1888   -2.8932    0.5901 N.4       1 <0>        -0.5340
     17 Cl1         3.7479    2.4089    0.0725 Cl        1 <0>        -0.0051
     18 H4          1.0341   -1.3727   -1.2956 H         1 <0>         0.1499
     19 H5          3.1274   -0.0328   -1.2557 H         1 <0>         0.1556
     20 H6         -0.7333    1.5325    1.2862 H         1 <0>         0.1691
     21 H7         -2.3211   -1.4127   -1.8092 H         1 <0>         0.1082
     22 H8         -0.5337   -1.5186   -1.9048 H         1 <0>         0.1199
     23 H9          0.0951   -4.4685    0.0180 H         1 <0>         0.1039
     24 H10         0.7148   -3.1093   -0.9738 H         1 <0>         0.1130
     25 H11         0.3037   -3.1717    1.9253 H         1 <0>         0.1016
     26 H12         0.9234   -1.8126    0.9335 H         1 <0>         0.1174
     27 H13        -3.1247   -2.5463    0.4419 H         1 <0>         0.4324
     28 H14        -2.1894   -3.7275    1.1576 H         1 <0>         0.4332
@<TRIPOS>BOND
     1    1    6 ar
     2    1    2 ar
     3    1   18 1
     4    2    3 ar
     5    2   19 1
     6    3    4 ar
     7    3   17 1
     8    4    5 ar
     9    5    6 ar
    10    5   20 1
    11    6    7 1
    12    7    8 1
    13    7   14 1
    14    7    9 1
    15    9   10 1
    16    9   21 1
    17    9   22 1
    18   10   11 1
    19   10   16 1
    20   10   12 1
    21   12   13 1
    22   12   23 1
    23   12   24 1
    24   13   14 1
    25   13   25 1
    26   13   26 1
    27   14   15 1
    28   14   16 1
    29   16   27 1
    30   16   28 1
