@<TRIPOS>MOLECULE
ZINC04097448
   96   102     0     0     0
SMALL
USER_CHARGES
tetramethoxy-tetramethyl-BLAH
@<TRIPOS>ATOM
      1 C1          4.0961    5.0159    0.3050 C.3       1 <0>        -0.0539
      2 N1          4.1721    4.2511    1.5603 N.4       1 <0>        -0.2555
      3 C2          5.5766    4.0227    1.8921 C.3       1 <0>        -0.0056
      4 C3          5.7035    3.4737    3.3149 C.3       1 <0>        -0.1061
      5 C4          4.7378    2.3331    3.5065 C.ar      1 <0>        -0.0532
      6 C5          4.9311    1.4773    4.5813 C.ar      1 <0>        -0.1868
      7 C6          4.0985    0.3931    4.7774 C.ar      1 <0>         0.1444
      8 C7          3.0416    0.1518    3.8861 C.ar      1 <0>         0.1445
      9 C8          2.8390    1.0360    2.8410 C.ar      1 <0>        -0.1132
     10 C9          3.6862    2.1217    2.6402 C.ar      1 <0>        -0.1380
     11 C10         3.4192    3.0199    1.4638 C.3       1 <0>         0.0776
     12 H1          2.3449    3.2646    1.5061 H         1 <0>         0.1389
     13 C11         3.6408    2.2310    0.1681 C.3       1 <0>        -0.0908
     14 C12         2.3739    1.4146    0.0082 C.ar      1 <0>        -0.0983
     15 C13         1.1625    2.0993    0.0022 C.ar      1 <0>        -0.1081
     16 C14        -0.0169    1.3938    0.0097 C.ar      1 <0>        -0.1289
     17 C15         0.0021   -0.0041    0.0020 C.ar      1 <0>         0.1562
     18 C16         1.2107   -0.6695   -0.1371 C.ar      1 <0>        -0.1326
     19 C17         2.3969    0.0456   -0.0977 C.ar      1 <0>        -0.0754
     20 O1         -1.1397   -0.6252    0.2205 O.3       1 <0>        -0.3138
     21 C18        -2.1057   -1.2192   -0.4554 C.ar      1 <0>         0.2184
     22 C19        -2.6944   -2.3347    0.1693 C.ar      1 <0>        -0.1838
     23 C20        -3.6411   -3.0554   -0.5166 C.ar      1 <0>        -0.0117
     24 C21        -4.1028   -2.6346   -1.7507 C.ar      1 <0>        -0.2185
     25 C22        -3.5559   -1.5161   -2.3524 C.ar      1 <0>         0.1783
     26 C23        -2.5423   -0.8176   -1.7050 C.ar      1 <0>        -0.0026
     27 O2         -1.9899    0.2728   -2.3022 O.3       1 <0>        -0.3130
     28 C24        -2.5958    1.5381   -2.0301 C.3       1 <0>         0.0294
     29 O3         -4.0123   -1.1043   -3.5646 O.3       1 <0>        -0.2930
     30 C25        -5.0589   -1.8743   -4.1595 C.3       1 <0>         0.0186
     31 C26        -4.1773   -4.3366    0.0696 C.3       1 <0>        -0.1057
     32 C27        -3.1368   -4.8801    1.0439 C.3       1 <0>        -0.0044
     33 N2         -2.8400   -3.8875    2.0905 N.4       1 <0>        -0.2595
     34 C28        -2.1984   -2.7045    1.5442 C.3       1 <0>         0.1094
     35 H2         -1.1208   -2.9556    1.4324 H         1 <0>         0.1316
     36 C29        -2.2760   -1.4898    2.4639 C.3       1 <0>        -0.0992
     37 C30        -1.2374   -1.5285    3.5557 C.ar      1 <0>        -0.1257
     38 C31        -1.6165   -1.8818    4.8405 C.ar      1 <0>        -0.0894
     39 C32        -0.6739   -1.9456    5.8507 C.ar      1 <0>        -0.1895
     40 C33         0.6474   -1.6326    5.5839 C.ar      1 <0>         0.1283
     41 C34         1.0335   -1.2455    4.2908 C.ar      1 <0>         0.1249
     42 C35         0.0769   -1.2071    3.2858 C.ar      1 <0>        -0.1082
     43 O4          2.3075   -0.9422    4.0639 O.3       1 <0>        -0.3033
     44 O5          1.5762   -1.7132    6.5749 O.3       1 <0>        -0.2880
     45 C36         1.1137   -2.1134    7.8665 C.3       1 <0>         0.0195
     46 C37        -1.9030   -4.5493    3.0319 C.3       1 <0>        -0.0569
     47 C38        -4.0736   -3.5918    2.8278 C.3       1 <0>        -0.0556
     48 O6          4.2971   -0.4367    5.8366 O.3       1 <0>        -0.2826
     49 C39         5.3870   -0.1274    6.7076 C.3       1 <0>         0.0183
     50 C40         3.5525    5.0928    2.6052 C.3       1 <0>        -0.0529
     51 H3          3.0555    5.2586    0.0899 H         1 <0>         0.1238
     52 H4          4.6708    5.9366    0.4052 H         1 <0>         0.1307
     53 H5          4.5058    4.4187   -0.5096 H         1 <0>         0.1245
     54 H6          6.1324    4.9608    1.8138 H         1 <0>         0.1402
     55 H7          6.0017    3.3027    1.1856 H         1 <0>         0.1305
     56 H8          5.5344    4.2490    4.0577 H         1 <0>         0.1107
     57 H9          6.7238    3.0864    3.4531 H         1 <0>         0.1226
     58 H10         5.7428    1.6601    5.2736 H         1 <0>         0.1481
     59 H11         1.9987    0.8860    2.1791 H         1 <0>         0.1412
     60 H12         4.5014    1.5613    0.2841 H         1 <0>         0.1048
     61 H13         3.7807    2.8440   -0.7096 H         1 <0>         0.1128
     62 H14         1.1537    3.1809   -0.0075 H         1 <0>         0.1333
     63 H15        -0.9632    1.9116    0.0170 H         1 <0>         0.1361
     64 H16         1.2338   -1.7416   -0.2386 H         1 <0>         0.1362
     65 H17         3.3372   -0.4767   -0.1722 H         1 <0>         0.1394
     66 H18        -4.8771   -3.1975   -2.2512 H         1 <0>         0.1505
     67 H19        -2.0596    2.3206   -2.5670 H         1 <0>         0.1010
     68 H20        -3.6356    1.5207   -2.3565 H         1 <0>         0.0558
     69 H21        -2.5543    1.7380   -0.9595 H         1 <0>         0.0428
     70 H22        -4.7171   -2.8986   -4.3078 H         1 <0>         0.0651
     71 H23        -5.9290   -1.8731   -3.5030 H         1 <0>         0.0643
     72 H24        -5.3288   -1.4385   -5.1214 H         1 <0>         0.1144
     73 H25        -5.1296   -4.1591    0.5506 H         1 <0>         0.1133
     74 H26        -4.3190   -5.0599   -0.7390 H         1 <0>         0.1272
     75 H27        -3.5178   -5.7886    1.5178 H         1 <0>         0.1398
     76 H28        -2.2187   -5.1190    0.5035 H         1 <0>         0.1309
     77 H29        -3.2592   -1.3404    2.8923 H         1 <0>         0.1003
     78 H30        -2.0875   -0.5816    1.8686 H         1 <0>         0.1274
     79 H31        -2.6492   -2.1107    5.0589 H         1 <0>         0.1320
     80 H32        -0.9652   -2.2409    6.8492 H         1 <0>         0.1455
     81 H33         0.3660   -0.9251    2.2835 H         1 <0>         0.1378
     82 H34         1.9529   -2.1368    8.5617 H         1 <0>         0.1092
     83 H35         0.3675   -1.4026    8.2215 H         1 <0>         0.0597
     84 H36         0.6680   -3.1059    7.8014 H         1 <0>         0.0610
     85 H37        -1.6511   -3.8604    3.8382 H         1 <0>         0.1259
     86 H38        -2.3746   -5.4393    3.4484 H         1 <0>         0.1281
     87 H39        -0.9949   -4.8342    2.5005 H         1 <0>         0.1209
     88 H40        -4.7885   -3.1094    2.1612 H         1 <0>         0.1221
     89 H41        -4.5006   -4.5196    3.2085 H         1 <0>         0.1293
     90 H42        -3.8481   -2.9267    3.6614 H         1 <0>         0.1214
     91 H43         6.3193   -0.1446    6.1432 H         1 <0>         0.0617
     92 H44         5.2397    0.8640    7.1359 H         1 <0>         0.0601
     93 H45         5.4332   -0.8658    7.5081 H         1 <0>         0.1110
     94 H46         3.5759    4.5646    3.5584 H         1 <0>         0.1221
     95 H47         4.1059    6.0276    2.6942 H         1 <0>         0.1285
     96 H48         2.5188    5.3069    2.3337 H         1 <0>         0.1217
@<TRIPOS>BOND
     1    1    2 1
     2    1   51 1
     3    1   52 1
     4    1   53 1
     5    2   11 1
     6    2    3 1
     7    2   50 1
     8    3    4 1
     9    3   54 1
    10    3   55 1
    11    4    5 1
    12    4   56 1
    13    4   57 1
    14    5   10 ar
    15    5    6 ar
    16    6    7 ar
    17    6   58 1
    18    7    8 ar
    19    7   48 1
    20    8   43 1
    21    8    9 ar
    22    9   10 ar
    23    9   59 1
    24   10   11 1
    25   11   12 1
    26   11   13 1
    27   13   14 1
    28   13   60 1
    29   13   61 1
    30   14   19 ar
    31   14   15 ar
    32   15   16 ar
    33   15   62 1
    34   16   17 ar
    35   16   63 1
    36   17   18 ar
    37   17   20 1
    38   18   19 ar
    39   18   64 1
    40   19   65 1
    41   20   21 1
    42   21   26 ar
    43   21   22 ar
    44   22   34 1
    45   22   23 ar
    46   23   24 ar
    47   23   31 1
    48   24   25 ar
    49   24   66 1
    50   25   26 ar
    51   25   29 1
    52   26   27 1
    53   27   28 1
    54   28   67 1
    55   28   68 1
    56   28   69 1
    57   29   30 1
    58   30   70 1
    59   30   71 1
    60   30   72 1
    61   31   32 1
    62   31   73 1
    63   31   74 1
    64   32   33 1
    65   32   75 1
    66   32   76 1
    67   33   34 1
    68   33   46 1
    69   33   47 1
    70   34   35 1
    71   34   36 1
    72   36   37 1
    73   36   77 1
    74   36   78 1
    75   37   42 ar
    76   37   38 ar
    77   38   39 ar
    78   38   79 1
    79   39   40 ar
    80   39   80 1
    81   40   41 ar
    82   40   44 1
    83   41   42 ar
    84   41   43 1
    85   42   81 1
    86   44   45 1
    87   45   82 1
    88   45   83 1
    89   45   84 1
    90   46   85 1
    91   46   86 1
    92   46   87 1
    93   47   88 1
    94   47   89 1
    95   47   90 1
    96   48   49 1
    97   49   91 1
    98   49   92 1
    99   49   93 1
   100   50   94 1
   101   50   95 1
   102   50   96 1
