@<TRIPOS>MOLECULE
ZINC00391812
   27    28     0     0     0
SMALL
USER_CHARGES

@<TRIPOS>ATOM
      1 C1          0.3944    1.5372   -0.0882 C.3       1 <0>        -0.0517
      2 N1          0.2218    0.0783   -0.0924 N.4       1 <0>        -0.3878
      3 C2          0.9063   -0.4989   -1.2638 C.3       1 <0>        -0.0125
      4 C3          1.9925   -1.4575   -0.7321 C.3       1 <0>        -0.1421
      5 C4          2.2411   -0.9393    0.7089 C.3       1 <0>        -0.1364
      6 C5          0.8181   -0.4968    1.1321 C.3       1 <0>         0.0811
      7 H1          0.2382   -1.3559    1.4692 H         1 <0>         0.1507
      8 C6          0.8940    0.5453    2.2181 C.ar      1 <0>        -0.2036
      9 C7          1.8431    1.5545    2.1577 C.ar      1 <0>        -0.0573
     10 C8          1.8760    2.4913    3.1790 C.ar      1 <0>        -0.1660
     11 C9          0.9680    2.3891    4.2162 C.ar      1 <0>         0.1377
     12 N2          0.0793    1.4154    4.2410 N.ar      1 <0>        -0.4739
     13 C10         0.0150    0.5105    3.2837 C.ar      1 <0>         0.1353
     14 H2          1.4576    1.7772   -0.0812 H         1 <0>         0.1215
     15 H3         -0.0678    1.9603   -0.9800 H         1 <0>         0.1243
     16 H4         -0.0786    1.9564    0.7999 H         1 <0>         0.1209
     17 H5          0.1926   -1.0502   -1.8760 H         1 <0>         0.1353
     18 H6          1.3676    0.2945   -1.8519 H         1 <0>         0.1319
     19 H7          1.6257   -2.4838   -0.7146 H         1 <0>         0.1029
     20 H8          2.9001   -1.3816   -1.3309 H         1 <0>         0.1144
     21 H9          2.6094   -1.7378    1.3529 H         1 <0>         0.1203
     22 H10         2.9285   -0.0933    0.7065 H         1 <0>         0.0978
     23 H11         2.5404    1.6091    1.3347 H         1 <0>         0.1428
     24 H12         2.6020    3.2907    3.1646 H         1 <0>         0.1512
     25 H13         0.9870    3.1149    5.0157 H         1 <0>         0.1712
     26 H14        -0.7302   -0.2695    3.3356 H         1 <0>         0.1637
     27 H15        -0.7608   -0.1480   -0.1301 H         1 <0>         0.4285
@<TRIPOS>BOND
     1    1    2 1
     2    1   14 1
     3    1   15 1
     4    1   16 1
     5    2    6 1
     6    2    3 1
     7    2   27 1
     8    3    4 1
     9    3   17 1
    10    3   18 1
    11    4    5 1
    12    4   19 1
    13    4   20 1
    14    5    6 1
    15    5   21 1
    16    5   22 1
    17    6    7 1
    18    6    8 1
    19    8   13 ar
    20    8    9 ar
    21    9   10 ar
    22    9   23 1
    23   10   11 ar
    24   10   24 1
    25   11   12 ar
    26   11   25 1
    27   12   13 ar
    28   13   26 1
@<TRIPOS>MOLECULE
ZINC01599730
   29    31     0     0     0
SMALL
USER_CHARGES

@<TRIPOS>ATOM
      1 C1         -0.0164    1.3600    0.0095 C.2       1 <0>        -0.0245
      2 C2          1.1996    2.0523    0.0016 C.2       1 <0>        -0.1843
      3 C3          2.3778    1.3768   -0.0442 C.2       1 <0>         0.0941
      4 N1          2.3937    0.0268   -0.1381 N.am      1 <0>        -0.5087
      5 C4          1.2352   -0.6700   -0.0346 C.2       1 <0>         0.5066
      6 O1          1.2662   -1.8886    0.0278 O.2       1 <0>        -0.5237
      7 C5          0.0021   -0.0041    0.0020 C.2       1 <0>        -0.2160
      8 C6          3.6089   -0.7431   -0.4070 C.3       1 <0>         0.0769
      9 C7          4.8712    0.0424   -0.0913 C.3       1 <0>        -0.1209
     10 H1          5.7197   -0.4721   -0.5424 H         1 <0>         0.1427
     11 C8          4.7670    1.4398   -0.7098 C.3       1 <0>        -0.1321
     12 C9          3.6522    2.1878    0.0311 C.3       1 <0>        -0.0636
     13 H2          3.5027    3.1776   -0.4001 H         1 <0>         0.1512
     14 C10         4.0502    2.2840    1.5133 C.3       1 <0>        -0.0032
     15 N2          4.0742    0.9227    2.0685 N.4       1 <0>        -0.5068
     16 C11         5.1112    0.1456    1.4075 C.3       1 <0>        -0.0085
     17 H3         -0.9536    1.8964    0.0258 H         1 <0>         0.1488
     18 H4          1.2018    3.1319    0.0318 H         1 <0>         0.1548
     19 H5         -0.9213   -0.5637    0.0243 H         1 <0>         0.1605
     20 H6          3.5951   -1.6485    0.1997 H         1 <0>         0.1127
     21 H7          3.6225   -1.0255   -1.4597 H         1 <0>         0.1058
     22 H8          5.7120    1.9695   -0.5893 H         1 <0>         0.1044
     23 H9          4.5190    1.3590   -1.7681 H         1 <0>         0.1039
     24 H10         5.0388    2.7347    1.6006 H         1 <0>         0.1478
     25 H11         3.3204    2.8884    2.0520 H         1 <0>         0.1423
     26 H12         4.2644    0.9675    3.0584 H         1 <0>         0.4367
     27 H13         5.1185   -0.8558    1.8380 H         1 <0>         0.1365
     28 H14         6.0788    0.6158    1.5829 H         1 <0>         0.1433
     29 H15         3.1779    0.4839    1.9198 H         1 <0>         0.4231
@<TRIPOS>BOND
     1    1    7 2
     2    1    2 1
     3    1   17 1
     4    2    3 2
     5    2   18 1
     6    3   12 1
     7    3    4 1
     8    4    5 am
     9    4    8 1
    10    5    6 2
    11    5    7 1
    12    7   19 1
    13    8    9 1
    14    8   20 1
    15    8   21 1
    16    9   10 1
    17    9   16 1
    18    9   11 1
    19   11   12 1
    20   11   22 1
    21   11   23 1
    22   12   13 1
    23   12   14 1
    24   14   15 1
    25   14   24 1
    26   14   25 1
    27   15   16 1
    28   15   26 1
    29   15   29 1
    30   16   27 1
    31   16   28 1
@<TRIPOS>MOLECULE
ZINC00967913
   28    30     0     0     0
SMALL
USER_CHARGES

@<TRIPOS>ATOM
      1 C1          1.2171   -0.6545    0.1555 C.ar      1 <0>        -0.0752
      2 C2          2.3777    0.1031    0.1418 C.ar      1 <0>        -0.1425
      3 C3          2.2860    1.4736   -0.0235 C.ar      1 <0>         0.1878
      4 N1          1.1116    2.0586   -0.1663 N.ar      1 <0>        -0.4633
      5 C4         -0.0121    1.3684   -0.1581 C.ar      1 <0>         0.1458
      6 C5          0.0021   -0.0041    0.0020 C.ar      1 <0>        -0.1631
      7 C6         -1.2872   -0.7844    0.0101 C.3       1 <0>        -0.0612
      8 H1         -2.1393   -0.1141    0.1233 H         1 <0>         0.1365
      9 C7         -1.2749   -1.8456    1.1375 C.3       1 <0>        -0.1443
     10 C8         -1.4042   -3.1952    0.3689 C.3       1 <0>         0.0384
     11 H2         -1.0647   -4.0789    0.9092 H         1 <0>         0.1726
     12 C9         -2.8802   -3.2368   -0.1294 C.3       1 <0>        -0.1467
     13 C10        -2.9122   -2.1745   -1.2554 C.3       1 <0>        -0.1410
     14 C11        -1.4241   -1.6312   -1.2910 C.3       1 <0>         0.0452
     15 H3         -1.1139   -1.1348   -2.2105 H         1 <0>         0.1734
     16 N2         -0.6607   -2.8754   -0.9018 N.4       1 <0>        -0.5418
     17 Cl1         3.7316    2.4346   -0.0426 Cl        1 <0>        -0.0014
     18 H4          1.2583   -1.7267    0.2784 H         1 <0>         0.1305
     19 H5          3.3413   -0.3704    0.2590 H         1 <0>         0.1568
     20 H6         -0.9547    1.8820   -0.2775 H         1 <0>         0.1733
     21 H7         -0.3364   -1.8073    1.6905 H         1 <0>         0.1022
     22 H8         -2.1225   -1.7031    1.8079 H         1 <0>         0.1235
     23 H9         -3.1240   -4.2228   -0.5251 H         1 <0>         0.1015
     24 H10        -3.5644   -2.9648    0.6743 H         1 <0>         0.1177
     25 H11        -3.1719   -2.6339   -2.2092 H         1 <0>         0.1026
     26 H12        -3.6123   -1.3759   -1.0098 H         1 <0>         0.1175
     27 H13         0.3118   -2.6745   -0.7232 H         1 <0>         0.4224
     28 H14        -0.7670   -3.6066   -1.5889 H         1 <0>         0.4327
@<TRIPOS>BOND
     1    1    6 ar
     2    1    2 ar
     3    1   18 1
     4    2    3 ar
     5    2   19 1
     6    3    4 ar
     7    3   17 1
     8    4    5 ar
     9    5    6 ar
    10    5   20 1
    11    6    7 1
    12    7    8 1
    13    7   14 1
    14    7    9 1
    15    9   10 1
    16    9   21 1
    17    9   22 1
    18   10   11 1
    19   10   16 1
    20   10   12 1
    21   12   13 1
    22   12   23 1
    23   12   24 1
    24   13   14 1
    25   13   25 1
    26   13   26 1
    27   14   15 1
    28   14   16 1
    29   16   27 1
    30   16   28 1
@<TRIPOS>MOLECULE
ZINC02565794
   28    30     0     0     0
SMALL
USER_CHARGES

@<TRIPOS>ATOM
      1 C1          1.0928   -0.4585   -0.7237 C.ar      1 <0>        -0.0620
      2 C2          2.2584    0.2913   -0.7024 C.ar      1 <0>        -0.1496
      3 C3          2.2945    1.4601    0.0370 C.ar      1 <0>         0.1879
      4 N1          1.2364    1.8615    0.7161 N.ar      1 <0>        -0.4678
      5 C4          0.1118    1.1728    0.7180 C.ar      1 <0>         0.1387
      6 C5          0.0021   -0.0041    0.0020 C.ar      1 <0>        -0.1517
      7 C6         -1.2872   -0.7844    0.0101 C.3       1 <0>        -0.0603
      8 H1         -2.1406   -0.1121    0.0984 H         1 <0>         0.1214
      9 C7         -1.4069   -1.6526   -1.2663 C.3       1 <0>        -0.1520
     10 C8         -1.4635   -3.1084   -0.7127 C.3       1 <0>         0.0416
     11 H2         -1.8985   -3.8501   -1.3825 H         1 <0>         0.1732
     12 C9         -0.0153   -3.4112   -0.2228 C.3       1 <0>        -0.1506
     13 C10         0.1242   -2.5441    1.0524 C.3       1 <0>        -0.1538
     14 C11        -1.2892   -1.8286    1.1671 C.3       1 <0>         0.0430
     15 H3         -1.5584   -1.4416    2.1499 H         1 <0>         0.1768
     16 N2         -2.1888   -2.8932    0.5901 N.4       1 <0>        -0.5340
     17 Cl1         3.7479    2.4089    0.0725 Cl        1 <0>        -0.0051
     18 H4          1.0341   -1.3727   -1.2956 H         1 <0>         0.1499
     19 H5          3.1274   -0.0328   -1.2557 H         1 <0>         0.1556
     20 H6         -0.7333    1.5325    1.2862 H         1 <0>         0.1691
     21 H7         -2.3211   -1.4127   -1.8092 H         1 <0>         0.1082
     22 H8         -0.5337   -1.5186   -1.9048 H         1 <0>         0.1199
     23 H9          0.0951   -4.4685    0.0180 H         1 <0>         0.1039
     24 H10         0.7148   -3.1093   -0.9738 H         1 <0>         0.1130
     25 H11         0.3037   -3.1717    1.9253 H         1 <0>         0.1016
     26 H12         0.9234   -1.8126    0.9335 H         1 <0>         0.1174
     27 H13        -3.1247   -2.5463    0.4419 H         1 <0>         0.4324
     28 H14        -2.1894   -3.7275    1.1576 H         1 <0>         0.4332
@<TRIPOS>BOND
     1    1    6 ar
     2    1    2 ar
     3    1   18 1
     4    2    3 ar
     5    2   19 1
     6    3    4 ar
     7    3   17 1
     8    4    5 ar
     9    5    6 ar
    10    5   20 1
    11    6    7 1
    12    7    8 1
    13    7   14 1
    14    7    9 1
    15    9   10 1
    16    9   21 1
    17    9   22 1
    18   10   11 1
    19   10   16 1
    20   10   12 1
    21   12   13 1
    22   12   23 1
    23   12   24 1
    24   13   14 1
    25   13   25 1
    26   13   26 1
    27   14   15 1
    28   14   16 1
    29   16   27 1
    30   16   28 1
