@<TRIPOS>MOLECULE
ZINC03826943
   29    30     0     0     0
SMALL
USER_CHARGES
3-ethynyl-5-(1-methylpyrrolidin-2-yl)-pyridine
@<TRIPOS>ATOM
      1 C1          3.5644    3.2214   -2.2497 C.3       1 <0>        -0.0373
      2 C2          4.4369    4.4100   -0.3119 C.3       1 <0>        -0.0064
      3 C3          4.4738    4.1666    1.2121 C.3       1 <0>        -0.1497
      4 C4          3.9188    2.7401    1.4037 C.3       1 <0>        -0.1418
      5 C5          3.5933    2.2416   -0.0207 C.3       1 <0>         0.0859
      6 H1          4.4262    1.6633   -0.4207 H         1 <0>         0.1505
      7 C6          2.3350    1.4124   -0.0127 C.ar      1 <0>        -0.1842
      8 C7          2.4082    0.0303   -0.0208 C.ar      1 <0>        -0.0267
      9 C8          1.2130   -0.6972   -0.0133 C.ar      1 <0>        -0.0041
     10 C9          0.0021   -0.0041    0.0020 C.ar      1 <0>         0.1477
     11 N1         -0.0158    1.3127    0.0093 N.ar      1 <0>        -0.4587
     12 C10         1.0950    2.0245    0.0025 C.ar      1 <0>         0.1045
     13 C11         1.2323   -2.1291   -0.0216 C.1       1 <0>        -0.1957
     14 C12         1.2480   -3.3030   -0.0285 C.1       1 <0>        -0.1039
     15 H2          2.8374    2.4769   -2.5741 H         1 <0>         0.1212
     16 H3          3.4114    4.1455   -2.8072 H         1 <0>         0.1288
     17 H4          4.5723    2.8491   -2.4329 H         1 <0>         0.1216
     18 H5          4.1619    5.4430   -0.5253 H         1 <0>         0.1412
     19 H6          5.4033    4.1748   -0.7579 H         1 <0>         0.1354
     20 H7          3.8422    4.8908    1.7266 H         1 <0>         0.1022
     21 H8          5.4979    4.2270    1.5805 H         1 <0>         0.1136
     22 H9          3.0148    2.7641    2.0122 H         1 <0>         0.1016
     23 H10         4.6692    2.0993    1.8668 H         1 <0>         0.1148
     24 H11         3.3633   -0.4737   -0.0322 H         1 <0>         0.1512
     25 H12        -0.9285   -0.5522    0.0076 H         1 <0>         0.1758
     26 H13         1.0349    3.1028    0.0088 H         1 <0>         0.1510
     27 H14         1.2621   -4.3528   -0.0346 H         1 <0>         0.2338
     28 N2          3.4090    3.4746   -0.7825 N.4       1 <0>        -0.3982
     29 H15         2.4743    3.8604   -0.6042 H         1 <0>         0.4259
@<TRIPOS>BOND
     1    1   15 1
     2    1   16 1
     3    1   17 1
     4    1   28 1
     5    2    3 1
     6    2   18 1
     7    2   19 1
     8    2   28 1
     9    3    4 1
    10    3   20 1
    11    3   21 1
    12    4    5 1
    13    4   22 1
    14    4   23 1
    15    5    6 1
    16    5    7 1
    17    5   28 1
    18    7   12 ar
    19    7    8 ar
    20    8    9 ar
    21    8   24 1
    22    9   10 ar
    23    9   13 1
    24   10   11 ar
    25   10   25 1
    26   11   12 ar
    27   12   26 1
    28   13   14 3
    29   14   27 1
    30   28   29 1
@<TRIPOS>MOLECULE
ZINC04632540
   29    30     0     0     0
SMALL
USER_CHARGES
3-ethynyl-5-(1-methylpyrrolidin-2-yl)-pyridine
@<TRIPOS>ATOM
      1 C1         -2.3005   -0.6614   -2.1944 C.3       1 <0>        -0.0369
      2 C2         -3.6002   -0.3183   -0.1585 C.3       1 <0>        -0.0071
      3 C3         -3.2522   -0.1772    1.3447 C.3       1 <0>        -0.1482
      4 C4         -1.8579   -0.8381    1.4402 C.3       1 <0>        -0.1392
      5 C5         -1.2879   -0.7831    0.0107 C.3       1 <0>         0.0836
      6 H1         -1.1137   -1.7937   -0.3588 H         1 <0>         0.1491
      7 C6          0.0021   -0.0041    0.0020 C.ar      1 <0>        -0.1869
      8 C7          1.2181   -0.6650   -0.0132 C.ar      1 <0>        -0.0276
      9 C8          2.3891    0.1007   -0.0203 C.ar      1 <0>        -0.0037
     10 C9          2.2847    1.4922   -0.0118 C.ar      1 <0>         0.1475
     11 N1          1.1039    2.0750    0.0027 N.ar      1 <0>        -0.4581
     12 C10        -0.0167    1.3787    0.0096 C.ar      1 <0>         0.1029
     13 C11         3.6732   -0.5329   -0.0365 C.1       1 <0>        -0.1959
     14 C12         4.7260   -1.0524   -0.0498 C.1       1 <0>        -0.1037
     15 H2         -2.5420   -1.7234   -2.1498 H         1 <0>         0.1227
     16 H3         -3.0481   -0.1438   -2.7955 H         1 <0>         0.1276
     17 H4         -1.3172   -0.5311   -2.6464 H         1 <0>         0.1217
     18 H5         -3.9821   -1.3164   -0.3729 H         1 <0>         0.1371
     19 H6         -4.3220    0.4411   -0.4591 H         1 <0>         0.1415
     20 H7         -3.9756   -0.7121    1.9600 H         1 <0>         0.1199
     21 H8         -3.2017    0.8731    1.6320 H         1 <0>         0.0996
     22 H9         -1.9515   -1.8726    1.7706 H         1 <0>         0.1098
     23 H10        -1.2188   -0.2796    2.1241 H         1 <0>         0.1064
     24 H11         1.2619   -1.7441   -0.0198 H         1 <0>         0.1512
     25 H12         3.1799    2.0963   -0.0168 H         1 <0>         0.1759
     26 H13        -0.9641    1.8971    0.0169 H         1 <0>         0.1523
     27 H14         5.6675   -1.5169   -0.0616 H         1 <0>         0.2338
     28 N2         -2.2942   -0.1050   -0.8058 N.4       1 <0>        -0.4001
     29 H15        -2.0879    0.9000   -0.8471 H         1 <0>         0.4251
@<TRIPOS>BOND
     1    1   15 1
     2    1   16 1
     3    1   17 1
     4    1   28 1
     5    2    3 1
     6    2   18 1
     7    2   19 1
     8    2   28 1
     9    3    4 1
    10    3   20 1
    11    3   21 1
    12    4    5 1
    13    4   22 1
    14    4   23 1
    15    5    6 1
    16    5    7 1
    17    5   28 1
    18    7   12 ar
    19    7    8 ar
    20    8    9 ar
    21    8   24 1
    22    9   10 ar
    23    9   13 1
    24   10   11 ar
    25   10   25 1
    26   11   12 ar
    27   12   26 1
    28   13   14 3
    29   14   27 1
    30   28   29 1
@<TRIPOS>MOLECULE
ZINC00005898
   24    25     0     0     0
SMALL
USER_CHARGES
3-[(2R)-pyrrolidin-2-yl]pyridine
@<TRIPOS>ATOM
      1 C1         -3.5303    4.7937   -3.0864 C.ar      1 <0>        -0.1553
      2 C2         -3.3015    3.6409   -2.3505 C.ar      1 <0>        -0.0406
      3 C3         -2.2630    3.6396   -1.4321 C.ar      1 <0>        -0.1948
      4 C4         -1.4884    4.7755   -1.2899 C.ar      1 <0>         0.1032
      5 N1         -1.7311    5.8521   -2.0114 N.ar      1 <0>        -0.4673
      6 C5         -2.7136    5.8909   -2.8903 C.ar      1 <0>         0.1291
      7 C6         -1.9784    2.4133   -0.6038 C.3       1 <0>         0.0880
      8 H1         -2.8671    1.7856   -0.5376 H         1 <0>         0.1514
      9 C7         -0.8008    1.6177   -1.2067 C.3       1 <0>        -0.1418
     10 C8         -0.0127    1.0858    0.0080 C.3       1 <0>        -0.1510
     11 C9         -0.7780    1.6049    1.2442 C.3       1 <0>        -0.0060
     12 H2         -4.3332    4.8316   -3.8077 H         1 <0>         0.1533
     13 H3         -3.9205    2.7663   -2.4863 H         1 <0>         0.1482
     14 H4         -0.6746    4.7812   -0.5798 H         1 <0>         0.1483
     15 H5         -2.8820    6.7908   -3.4632 H         1 <0>         0.1724
     16 H6         -0.1711    2.2719   -1.8096 H         1 <0>         0.1009
     17 H7         -1.1729    0.7888   -1.8090 H         1 <0>         0.1144
     18 H8          0.0021   -0.0041    0.0020 H         1 <0>         0.1134
     19 H9          1.0044    1.4776    0.0004 H         1 <0>         0.1017
     20 H10        -1.4779    0.8500    1.6026 H         1 <0>         0.1366
     21 H11        -0.0803    1.8832    2.0340 H         1 <0>         0.1435
     22 N2         -1.5074    2.7697    0.7356 N.4       1 <0>        -0.5148
     23 H12        -2.3044    2.9835    1.3466 H         1 <0>         0.4380
     24 H13        -0.8848    3.5847    0.6874 H         1 <0>         0.4294
@<TRIPOS>BOND
     1    1    6 ar
     2    1    2 ar
     3    1   12 1
     4    2    3 ar
     5    2   13 1
     6    3    4 ar
     7    3    7 1
     8    4    5 ar
     9    4   14 1
    10    5    6 ar
    11    6   15 1
    12    7    8 1
    13    7    9 1
    14    7   22 1
    15    9   10 1
    16    9   16 1
    17    9   17 1
    18   10   11 1
    19   10   18 1
    20   10   19 1
    21   11   20 1
    22   11   21 1
    23   11   22 1
    24   22   23 1
    25   22   24 1
@<TRIPOS>MOLECULE
ZINC00391820
   24    25     0     0     0
SMALL
USER_CHARGES

@<TRIPOS>ATOM
      1 C1         -0.0167    1.3776    0.0096 C.ar      1 <0>        -0.1555
      2 C2          1.1849    2.0698    0.0019 C.ar      1 <0>        -0.0408
      3 C3          2.3651    1.3426   -0.0133 C.ar      1 <0>        -0.1999
      4 C4          2.3054   -0.0383   -0.0202 C.ar      1 <0>         0.1010
      5 N1          1.1443   -0.6632   -0.0129 N.ar      1 <0>        -0.4674
      6 C5          0.0021   -0.0041    0.0020 C.ar      1 <0>         0.1293
      7 C6          3.6964    2.0488   -0.0227 C.3       1 <0>         0.0843
      8 H1          3.5738    3.0754    0.3224 H         1 <0>         0.1494
      9 C7          4.2846    2.0413   -1.4494 C.3       1 <0>        -0.1342
     10 C8          5.8001    1.8213   -1.2015 C.3       1 <0>        -0.1434
     11 C9          5.7823    0.8677    0.0191 C.3       1 <0>        -0.0105
     12 N2          4.6482    1.3366    0.8495 N.4       1 <0>        -0.5163
     13 H2         -0.9552    1.9117    0.0259 H         1 <0>         0.1533
     14 H3          1.2009    3.1496    0.0072 H         1 <0>         0.1483
     15 H4          3.2203   -0.6121   -0.0320 H         1 <0>         0.1503
     16 H5         -0.9294   -0.5505    0.0083 H         1 <0>         0.1724
     17 H6          3.8668    1.2219   -2.0342 H         1 <0>         0.1017
     18 H7          4.1096    2.9971   -1.9434 H         1 <0>         0.1173
     19 H8          6.2715    1.3459   -2.0616 H         1 <0>         0.1204
     20 H9          6.2960    2.7605   -0.9560 H         1 <0>         0.1020
     21 H10         5.6177   -0.1600   -0.3047 H         1 <0>         0.1349
     22 H11         6.7162    0.9461    0.5756 H         1 <0>         0.1412
     23 H12         4.9851    1.9618    1.5663 H         1 <0>         0.4341
     24 H13         4.1901    0.5462    1.2779 H         1 <0>         0.4283
@<TRIPOS>BOND
     1    1    6 ar
     2    1    2 ar
     3    1   13 1
     4    2    3 ar
     5    2   14 1
     6    3    4 ar
     7    3    7 1
     8    4    5 ar
     9    4   15 1
    10    5    6 ar
    11    6   16 1
    12    7    8 1
    13    7   12 1
    14    7    9 1
    15    9   10 1
    16    9   17 1
    17    9   18 1
    18   10   11 1
    19   10   19 1
    20   10   20 1
    21   11   12 1
    22   11   21 1
    23   11   22 1
    24   12   23 1
    25   12   24 1
@<TRIPOS>MOLECULE
ZINC03079336
   26    25     0     0     0
SMALL
USER_CHARGES

@<TRIPOS>ATOM
      1 C1          0.4567    1.0915    0.2066 C.3       1 <0>        -0.1505
      2 C2          0.2519   -0.4009    0.1635 C.2       1 <0>         0.4622
      3 O1          1.2065   -1.1415    0.1480 O.2       1 <0>        -0.4897
      4 O2         -0.9909   -0.9074    0.1422 O.3       1 <0>        -0.3664
      5 C3         -1.1108   -2.3308    0.1015 C.3       1 <0>         0.0295
      6 C4         -2.5910   -2.7176    0.0823 C.3       1 <0>        -0.0006
      7 N1         -3.1974   -2.2714   -1.1791 N.4       1 <0>        -0.2721
      8 C5         -2.4263   -2.8064   -2.3093 C.3       1 <0>        -0.0542
      9 C6         -4.5812   -2.7582   -1.2563 C.3       1 <0>        -0.0453
     10 C7         -3.1910   -0.8034   -1.2332 C.3       1 <0>        -0.0471
     11 H1          1.5242    1.3115    0.2188 H         1 <0>         0.1116
     12 H2          0.0021    1.5462   -0.6735 H         1 <0>         0.1044
     13 H3         -0.0079    1.4962    1.1057 H         1 <0>         0.1080
     14 H4         -0.6243   -2.7109   -0.7968 H         1 <0>         0.0948
     15 H5         -0.6343   -2.7609    0.9824 H         1 <0>         0.1144
     16 H6         -2.6847   -3.8002    0.1675 H         1 <0>         0.1489
     17 H7         -3.1018   -2.2417    0.9193 H         1 <0>         0.1414
     18 H8         -2.4311   -3.8957   -2.2692 H         1 <0>         0.1244
     19 H9         -2.8763   -2.4753   -3.2452 H         1 <0>         0.1264
     20 H10        -1.3995   -2.4452   -2.2520 H         1 <0>         0.1197
     21 H11        -5.1533   -2.3613   -0.4177 H         1 <0>         0.1231
     22 H12        -5.0311   -2.4272   -2.1923 H         1 <0>         0.1241
     23 H13        -4.5859   -3.8475   -1.2162 H         1 <0>         0.1220
     24 H14        -2.1697   -0.4495   -1.3740 H         1 <0>         0.1297
     25 H15        -3.8098   -0.4678   -2.0653 H         1 <0>         0.1185
     26 H16        -3.5886   -0.4038   -0.3003 H         1 <0>         0.1230
@<TRIPOS>BOND
     1    1    2 1
     2    1   11 1
     3    1   12 1
     4    1   13 1
     5    2    3 2
     6    2    4 1
     7    4    5 1
     8    5    6 1
     9    5   14 1
    10    5   15 1
    11    6    7 1
    12    6   16 1
    13    6   17 1
    14    7    8 1
    15    7    9 1
    16    7   10 1
    17    8   18 1
    18    8   19 1
    19    8   20 1
    20    9   21 1
    21    9   22 1
    22    9   23 1
    23   10   24 1
    24   10   25 1
    25   10   26 1
@<TRIPOS>MOLECULE
ZINC00018379
   31    32     0     0     0
SMALL
USER_CHARGES
2-methyl-3-[[(2R)-pyrrolidin-2-yl]methoxy]pyridine
@<TRIPOS>ATOM
      1 C1         -2.0481    2.4805   -3.4583 C.3       1 <0>        -0.1016
      2 C2         -0.8077    1.6277   -3.5308 C.ar      1 <0>         0.1184
      3 C3         -0.1940    1.2075   -2.3595 C.ar      1 <0>         0.0587
      4 C4          0.9538    0.4260   -2.4411 C.ar      1 <0>        -0.1547
      5 C5          1.4324    0.0881   -3.6969 C.ar      1 <0>        -0.1369
      6 C6          0.7662    0.5449   -4.8184 C.ar      1 <0>         0.0858
      7 N1         -0.3168    1.2890   -4.7063 N.ar      1 <0>        -0.4460
      8 O1         -0.7038    1.5592   -1.1497 O.3       1 <0>        -0.3167
      9 C7         -0.0127    1.0858    0.0080 C.3       1 <0>         0.0332
     10 C8         -0.7288    1.5792    1.2668 C.3       1 <0>         0.0351
     11 H1         -1.7807    1.2948    1.2402 H         1 <0>         0.1544
     12 C9         -0.0472    1.0066    2.5345 C.3       1 <0>        -0.1368
     13 C10        -0.4518    2.0542    3.6067 C.3       1 <0>        -0.1423
     14 C11        -0.4382    3.3820    2.8204 C.3       1 <0>        -0.0107
     15 H2         -1.7650    3.5330   -3.4421 H         1 <0>         0.0791
     16 H3         -2.6741    2.2860   -4.3292 H         1 <0>         0.0841
     17 H4         -2.6024    2.2393   -2.5513 H         1 <0>         0.0753
     18 H5          1.4571    0.0873   -1.5476 H         1 <0>         0.1395
     19 H6          2.3184   -0.5211   -3.7982 H         1 <0>         0.1458
     20 H7          1.1373    0.2888   -5.7998 H         1 <0>         0.1676
     21 H8          0.0021   -0.0041    0.0020 H         1 <0>         0.1097
     22 H9          1.0099    1.4631    0.0003 H         1 <0>         0.0870
     23 H10        -0.4437    0.0213    2.7797 H         1 <0>         0.1230
     24 H11         1.0355    0.9711    2.4135 H         1 <0>         0.1027
     25 H12         0.2770    2.0786    4.4169 H         1 <0>         0.1164
     26 H13        -1.4492    1.8456    3.9935 H         1 <0>         0.1030
     27 H14         0.5097    3.8966    2.9781 H         1 <0>         0.1340
     28 H15        -1.2644    4.0141    3.1458 H         1 <0>         0.1363
     29 N2         -0.5953    3.0421    1.3981 N.4       1 <0>        -0.5171
     30 H16        -1.4357    3.4994    1.0255 H         1 <0>         0.4407
     31 H17         0.2284    3.3610    0.8747 H         1 <0>         0.4328
@<TRIPOS>BOND
     1    1    2 1
     2    1   15 1
     3    1   16 1
     4    1   17 1
     5    2    7 ar
     6    2    3 ar
     7    3    4 ar
     8    3    8 1
     9    4    5 ar
    10    4   18 1
    11    5    6 ar
    12    5   19 1
    13    6    7 ar
    14    6   20 1
    15    8    9 1
    16    9   10 1
    17    9   21 1
    18    9   22 1
    19   10   11 1
    20   10   12 1
    21   10   29 1
    22   12   13 1
    23   12   23 1
    24   12   24 1
    25   13   14 1
    26   13   25 1
    27   13   26 1
    28   14   27 1
    29   14   28 1
    30   14   29 1
    31   29   30 1
    32   29   31 1
@<TRIPOS>MOLECULE
ZINC00006562
   31    32     0     0     0
SMALL
USER_CHARGES
2-methyl-3-[[(2S)-pyrrolidin-2-yl]methoxy]pyridine
@<TRIPOS>ATOM
      1 C1         -0.9674   -4.7744   -1.0858 C.3       1 <0>        -0.0999
      2 C2         -1.5494   -3.9659   -2.2166 C.ar      1 <0>         0.1184
      3 C3         -1.4390   -2.5829   -2.1996 C.ar      1 <0>         0.0588
      4 C4         -1.9756   -1.8495   -3.2526 C.ar      1 <0>        -0.1546
      5 C5         -2.6070   -2.5351   -4.2782 C.ar      1 <0>        -0.1370
      6 C6         -2.6823   -3.9140   -4.2219 C.ar      1 <0>         0.0859
      7 N1         -2.1626   -4.5796   -3.2090 N.ar      1 <0>        -0.4460
      8 O1         -0.8107   -1.9542   -1.1714 O.3       1 <0>        -0.3171
      9 C7         -0.7344   -0.5285   -1.2323 C.3       1 <0>         0.0328
     10 C8          0.0021   -0.0041    0.0020 C.3       1 <0>         0.0346
     11 H1         -0.4705   -0.3868    0.9066 H         1 <0>         0.1533
     12 C9         -0.0188    1.5357    0.0105 C.3       1 <0>        -0.1404
     13 C10         1.4678    1.9597   -0.0014 C.3       1 <0>        -0.1480
     14 C11         2.1905    0.7049    0.5496 C.3       1 <0>        -0.0074
     15 H2         -1.7194   -4.9044   -0.3075 H         1 <0>         0.0818
     16 H3         -0.6581   -5.7508   -1.4588 H         1 <0>         0.0834
     17 H4         -0.1038   -4.2529   -0.6731 H         1 <0>         0.0717
     18 H5         -1.9018   -0.7722   -3.2707 H         1 <0>         0.1393
     19 H6         -3.0348   -1.9981   -5.1119 H         1 <0>         0.1458
     20 H7         -3.1732   -4.4536   -5.0183 H         1 <0>         0.1676
     21 H8         -1.7411   -0.1116   -1.2592 H         1 <0>         0.1092
     22 H9         -0.1940   -0.2317   -2.1312 H         1 <0>         0.0871
     23 H10        -0.5267    1.9121   -0.8775 H         1 <0>         0.1078
     24 H11        -0.5096    1.9024    0.9120 H         1 <0>         0.1133
     25 H12         1.7979    2.1803   -1.0166 H         1 <0>         0.0996
     26 H13         1.6298    2.8165    0.6527 H         1 <0>         0.1200
     27 H14         2.1355    0.6761    1.6379 H         1 <0>         0.1373
     28 H15         3.2282    0.6784    0.2173 H         1 <0>         0.1428
     29 N2          1.4118   -0.3967   -0.0349 N.4       1 <0>        -0.5132
     30 H16         1.7059   -0.5579   -1.0053 H         1 <0>         0.4323
     31 H17         1.5518   -1.2542    0.5121 H         1 <0>         0.4409
@<TRIPOS>BOND
     1    1    2 1
     2    1   15 1
     3    1   16 1
     4    1   17 1
     5    2    7 ar
     6    2    3 ar
     7    3    4 ar
     8    3    8 1
     9    4    5 ar
    10    4   18 1
    11    5    6 ar
    12    5   19 1
    13    6    7 ar
    14    6   20 1
    15    8    9 1
    16    9   10 1
    17    9   21 1
    18    9   22 1
    19   10   11 1
    20   10   12 1
    21   10   29 1
    22   12   13 1
    23   12   23 1
    24   12   24 1
    25   13   14 1
    26   13   25 1
    27   13   26 1
    28   14   27 1
    29   14   28 1
    30   14   29 1
    31   29   30 1
    32   29   31 1
@<TRIPOS>MOLECULE
ZINC38140873
   33    34     0     0     0
SMALL
USER_CHARGES

@<TRIPOS>ATOM
      1 C1         -0.0820    1.2566   -0.1597 C.3       1 <0>        -0.1376
      2 C2          0.1299   -0.2584   -0.1357 C.3       1 <0>         0.1209
      3 C3          1.1088   -0.6885   -1.2706 C.3       1 <0>        -0.1308
      4 H1          0.9713   -0.1930   -2.2316 H         1 <0>         0.0927
      5 C4          1.0260   -2.2454   -1.2884 C.3       1 <0>        -0.1285
      6 C5          1.7232   -2.6889    0.0180 C.3       1 <0>        -0.1306
      7 C6          2.1617   -1.3581    0.7021 C.3       1 <0>        -0.0951
      8 H2          2.9507   -1.4439    1.4493 H         1 <0>         0.0975
      9 C7          2.4912   -0.4592   -0.5636 C.3       1 <0>        -0.1231
     10 C8          0.8366   -0.6831    1.1718 C.3       1 <0>        -0.0537
     11 C9         -0.0129   -1.7053    1.9297 C.3       1 <0>        -0.1366
     12 C10         1.1126    0.5389    2.0502 C.3       1 <0>        -0.1384
     13 N1         -1.1554   -0.9564   -0.2730 N.3       1 <0>        -0.6808
     14 C11        -1.7845   -0.6516   -1.5651 C.3       1 <0>         0.0196
     15 H3          0.8832    1.7594   -0.0985 H         1 <0>         0.0616
     16 H4         -0.5807    1.5391   -1.0868 H         1 <0>         0.0519
     17 H5         -0.6993    1.5507    0.6891 H         1 <0>         0.0651
     18 H6         -0.0144   -2.5706   -1.2931 H         1 <0>         0.0625
     19 H7          1.5535   -2.6441   -2.1549 H         1 <0>         0.0637
     20 H8          1.0256   -3.2321    0.6555 H         1 <0>         0.0757
     21 H9          2.5935   -3.3056   -0.2062 H         1 <0>         0.0629
     22 H10         3.3195   -0.8663   -1.1435 H         1 <0>         0.0668
     23 H11         2.6519    0.5887   -0.3101 H         1 <0>         0.0728
     24 H12        -0.2810   -2.5226    1.2602 H         1 <0>         0.0585
     25 H13         0.5564   -2.0977    2.7723 H         1 <0>         0.0506
     26 H14        -0.9194   -1.2238    2.2964 H         1 <0>         0.0628
     27 H15         0.1706    1.0280    2.2985 H         1 <0>         0.0610
     28 H16         1.6105    0.2226    2.9668 H         1 <0>         0.0528
     29 H17         1.7531    1.2367    1.5109 H         1 <0>         0.0573
     30 H18        -1.0412   -1.9516   -0.1523 H         1 <0>         0.3433
     31 H19        -1.9599    0.4216   -1.6396 H         1 <0>         0.0667
     32 H20        -1.1262   -0.9692   -2.3736 H         1 <0>         0.0247
     33 H21        -2.7343   -1.1811   -1.6406 H         1 <0>         0.0639
@<TRIPOS>BOND
     1    1    2 1
     2    1   15 1
     3    1   16 1
     4    1   17 1
     5    2   10 1
     6    2    3 1
     7    2   13 1
     8    3    4 1
     9    3    9 1
    10    3    5 1
    11    5    6 1
    12    5   18 1
    13    5   19 1
    14    6    7 1
    15    6   20 1
    16    6   21 1
    17    7    8 1
    18    7    9 1
    19    7   10 1
    20    9   22 1
    21    9   23 1
    22   10   11 1
    23   10   12 1
    24   11   24 1
    25   11   25 1
    26   11   26 1
    27   12   27 1
    28   12   28 1
    29   12   29 1
    30   13   14 1
    31   13   30 1
    32   14   31 1
    33   14   32 1
    34   14   33 1
@<TRIPOS>MOLECULE
ZINC03079342
   25    24     0     0     0
SMALL
USER_CHARGES

@<TRIPOS>ATOM
      1 C1          0.5385    1.3265   -0.0156 C.3       1 <0>        -0.0552
      2 N1          0.0207   -0.0467    0.0478 N.4       1 <0>        -0.2722
      3 C2          0.5070   -0.6974    1.2718 C.3       1 <0>        -0.0471
      4 C3         -1.4480   -0.0161    0.0600 C.3       1 <0>        -0.0454
      5 C4          0.4850   -0.7999   -1.1248 C.3       1 <0>        -0.0017
      6 C5          2.0115   -0.7313   -1.2033 C.3       1 <0>         0.0515
      7 O1          2.5777   -1.4543   -0.1084 O.3       1 <0>        -0.3772
      8 C6          3.9213   -1.4920   -0.0303 C.2       1 <0>         0.6511
      9 O2          4.5947   -0.9264   -0.8688 O.2       1 <0>        -0.5552
     10 N2          4.5193   -2.1570    0.9780 N.am      1 <0>        -0.8167
     11 H1          1.6283    1.3038   -0.0246 H         1 <0>         0.1211
     12 H2          0.1776    1.8093   -0.9238 H         1 <0>         0.1253
     13 H3          0.1939    1.8853    0.8545 H         1 <0>         0.1262
     14 H4          0.0211   -0.2500    2.1388 H         1 <0>         0.1189
     15 H5          0.2750   -1.7618    1.2342 H         1 <0>         0.1224
     16 H6          1.5859   -0.5633    1.3504 H         1 <0>         0.1286
     17 H7         -1.8089    0.4667   -0.8482 H         1 <0>         0.1227
     18 H8         -1.8322   -1.0351    0.1071 H         1 <0>         0.1229
     19 H9         -1.7926    0.5427    0.9301 H         1 <0>         0.1241
     20 H10         0.1722   -1.8402   -1.0357 H         1 <0>         0.1419
     21 H11         0.0550   -0.3672   -2.0281 H         1 <0>         0.1522
     22 H12         2.3472   -1.1718   -2.1420 H         1 <0>         0.1171
     23 H13         2.3314    0.3096   -1.1555 H         1 <0>         0.0971
     24 H14         3.9817   -2.6085    1.6473 H         1 <0>         0.4117
     25 H15         5.4873   -2.1841    1.0343 H         1 <0>         0.4360
@<TRIPOS>BOND
     1    1    2 1
     2    1   11 1
     3    1   12 1
     4    1   13 1
     5    2    3 1
     6    2    4 1
     7    2    5 1
     8    3   14 1
     9    3   15 1
    10    3   16 1
    11    4   17 1
    12    4   18 1
    13    4   19 1
    14    5    6 1
    15    5   20 1
    16    5   21 1
    17    6    7 1
    18    6   22 1
    19    6   23 1
    20    7    8 1
    21    8    9 2
    22    8   10 am
    23   10   24 1
    24   10   25 1
@<TRIPOS>MOLECULE
ZINC13643827
   26    28     0     0     0
SMALL
USER_CHARGES

@<TRIPOS>ATOM
      1 C1         -0.0168    1.3854    0.0097 C.ar      1 <0>        -0.1050
      2 C2          1.1480    2.1248    0.0025 C.ar      1 <0>        -0.1050
      3 C3          2.3972    1.5163   -0.0135 C.ar      1 <0>        -0.0838
      4 C4          2.4200    0.1339   -0.0211 C.ar      1 <0>        -0.1373
      5 C5          1.2432   -0.6131   -0.0129 C.ar      1 <0>        -0.1372
      6 C6          0.0021   -0.0041    0.0020 C.ar      1 <0>        -0.0840
      7 C7          1.5970   -2.0812   -0.0227 C.3       1 <0>        -0.0683
      8 H1          0.8731   -2.7017    0.5055 H         1 <0>         0.1340
      9 C8          3.0149   -2.0963    0.6277 C.3       1 <0>        -0.1261
     10 C9          3.5976   -0.8113   -0.0378 C.3       1 <0>        -0.0662
     11 H2          4.4731   -0.4170    0.4781 H         1 <0>         0.1352
     12 C10         3.8601   -1.1927   -1.5088 C.3       1 <0>         0.0016
     13 N1          2.5765   -1.4396   -2.1757 N.4       1 <0>        -0.5091
     14 C11         1.7917   -2.4972   -1.4949 C.3       1 <0>         0.0040
     15 H3         -0.9666    1.8992    0.0261 H         1 <0>         0.1340
     16 H4          1.0874    3.2031    0.0091 H         1 <0>         0.1340
     17 H5          3.3082    2.0964   -0.0200 H         1 <0>         0.1411
     18 H6         -0.9106   -0.5815    0.0079 H         1 <0>         0.1411
     19 H7          2.9587   -1.9949    1.7115 H         1 <0>         0.1005
     20 H8          3.5769   -2.9851    0.3409 H         1 <0>         0.0951
     21 H9          4.3803   -0.3763   -2.0099 H         1 <0>         0.1348
     22 H10         4.4709   -2.0946   -1.5482 H         1 <0>         0.1372
     23 H11         2.0356   -0.5878   -2.1768 H         1 <0>         0.4253
     24 H12         2.3474   -3.4339   -1.5387 H         1 <0>         0.1357
     25 H13         0.8188   -2.6262   -1.9691 H         1 <0>         0.1384
     26 H14         2.7485   -1.7218   -3.1290 H         1 <0>         0.4299
@<TRIPOS>BOND
     1    1    6 ar
     2    1    2 ar
     3    1   15 1
     4    2    3 ar
     5    2   16 1
     6    3    4 ar
     7    3   17 1
     8    4   10 1
     9    4    5 ar
    10    5    6 ar
    11    5    7 1
    12    6   18 1
    13    7    8 1
    14    7   14 1
    15    7    9 1
    16    9   10 1
    17    9   19 1
    18    9   20 1
    19   10   11 1
    20   10   12 1
    21   12   13 1
    22   12   21 1
    23   12   22 1
    24   13   14 1
    25   13   23 1
    26   13   26 1
    27   14   24 1
    28   14   25 1
@<TRIPOS>MOLECULE
ZINC04098884
   28    29     0     0     0
SMALL
USER_CHARGES

@<TRIPOS>ATOM
      1 C1         -0.0184    1.5028    0.0103 C.3       1 <0>        -0.2103
      2 C2          0.0021   -0.0041    0.0020 C.2       1 <0>         0.3798
      3 O1          1.0609   -0.5963   -0.0113 O.2       1 <0>        -0.4350
      4 C3         -1.2613   -0.7566    0.0100 C.2       1 <0>        -0.2743
      5 C4         -1.1803   -2.0831   -0.0453 C.2       1 <0>         0.0084
      6 C5         -2.4528   -2.9230    0.0168 C.3       1 <0>        -0.1381
      7 C6         -3.2610   -2.6693   -1.2566 C.3       1 <0>        -0.1290
      8 C7         -4.0383   -1.3685   -1.1625 C.3       1 <0>         0.0182
      9 H1         -4.8385   -1.3502   -1.9105 H         1 <0>         0.1517
     10 C8         -4.6272   -1.2637    0.2730 C.3       1 <0>        -0.1447
     11 C9         -3.5252   -0.5381    1.0778 C.3       1 <0>        -0.1436
     12 C10        -2.5467    0.0118    0.0264 C.3       1 <0>         0.0890
     13 H2         -2.3553    1.0768    0.2028 H         1 <0>         0.1562
     14 N1         -3.2191   -0.1720   -1.2776 N.4       1 <0>        -0.5030
     15 H3          1.0042    1.8801    0.0026 H         1 <0>         0.0980
     16 H4         -0.5455    1.8639   -0.8728 H         1 <0>         0.0909
     17 H5         -0.5286    1.8543    0.9071 H         1 <0>         0.0992
     18 H6         -0.2176   -2.5630   -0.1336 H         1 <0>         0.1540
     19 H7         -2.1651   -3.9823    0.0362 H         1 <0>         0.1025
     20 H8         -3.0265   -2.7041    0.9010 H         1 <0>         0.1147
     21 H9         -2.5779   -2.6225   -2.1050 H         1 <0>         0.0906
     22 H10        -3.9564   -3.4962   -1.4038 H         1 <0>         0.1217
     23 H11        -5.5484   -0.6718    0.2684 H         1 <0>         0.1026
     24 H12        -4.8307   -2.2519    0.6887 H         1 <0>         0.1173
     25 H13        -3.9662    0.2902    1.6448 H         1 <0>         0.1084
     26 H14        -3.0243   -1.2129    1.7669 H         1 <0>         0.1113
     27 H15        -2.5327   -0.2917   -2.0062 H         1 <0>         0.4285
     28 H16        -3.8015    0.6268   -1.4787 H         1 <0>         0.4349
@<TRIPOS>BOND
     1    1    2 1
     2    1   15 1
     3    1   16 1
     4    1   17 1
     5    2    3 2
     6    2    4 1
     7    4   12 1
     8    4    5 2
     9    5    6 1
    10    5   18 1
    11    6    7 1
    12    6   19 1
    13    6   20 1
    14    7    8 1
    15    7   21 1
    16    7   22 1
    17    8    9 1
    18    8   14 1
    19    8   10 1
    20   10   11 1
    21   10   23 1
    22   10   24 1
    23   11   12 1
    24   11   25 1
    25   11   26 1
    26   12   13 1
    27   12   14 1
    28   14   27 1
    29   14   28 1
@<TRIPOS>MOLECULE
ZINC04098885
   28    29     0     0     0
SMALL
USER_CHARGES
1-(9-azabicyclo[4.2.1]non-4-en-5-yl)ethanone
@<TRIPOS>ATOM
      1 C1          0.9561    2.9250    2.3594 C.3       1 <0>        -0.2009
      2 C2          1.8868    2.6621    1.2038 C.2       1 <0>         0.3805
      3 O1          3.0484    3.0062    1.2699 O.2       1 <0>        -0.4361
      4 C3          1.3870    1.9882   -0.0046 C.2       1 <0>        -0.2690
      5 C4          2.2139    1.8637   -1.0260 C.2       1 <0>         0.0051
      6 C5          1.8108    1.1949   -2.3255 C.3       1 <0>        -0.1334
      7 C6          1.4310   -0.2570   -2.0738 C.3       1 <0>        -0.1245
      8 C7          0.1073   -0.4111   -1.3772 C.3       1 <0>         0.0072
      9 H1         -0.2599   -1.4455   -1.4856 H         1 <0>         0.1545
     10 C8         -0.8899    0.5581   -2.1051 C.3       1 <0>        -0.1479
     11 C9         -0.7477    1.8784   -1.3092 C.3       1 <0>        -0.1465
     12 C10        -0.0260    1.4857   -0.0013 C.3       1 <0>         0.0757
     13 H2         -0.5721    1.8737    0.8637 H         1 <0>         0.1629
     14 H3          0.0689    2.5018    2.1758 H         1 <0>         0.0701
     15 H4          1.3792    2.5014    3.2703 H         1 <0>         0.1032
     16 H5          0.8268    4.0000    2.4846 H         1 <0>         0.1076
     17 H6          3.2252    2.2588   -0.9272 H         1 <0>         0.1510
     18 H7          2.6712    1.2153   -3.0114 H         1 <0>         0.1037
     19 H8          0.9974    1.7300   -2.8039 H         1 <0>         0.1114
     20 H9          2.2187   -0.7246   -1.4708 H         1 <0>         0.0891
     21 H10         1.4017   -0.7821   -3.0360 H         1 <0>         0.1227
     22 H11        -0.6008    0.6919   -3.1455 H         1 <0>         0.1148
     23 H12        -1.9074    0.1716   -2.0340 H         1 <0>         0.1009
     24 H13        -1.7387    2.2798   -1.0768 H         1 <0>         0.1072
     25 H14        -0.1750    2.6160   -1.8620 H         1 <0>         0.1089
     26 N1         -0.0215    0.0266   -0.0217 N.4       1 <0>        -0.4903
     27 H15         0.7689   -0.3244    0.5317 H         1 <0>         0.4308
     28 H16        -0.9004   -0.3273    0.3740 H         1 <0>         0.4414
@<TRIPOS>BOND
     1    1    2 1
     2    1   14 1
     3    1   15 1
     4    1   16 1
     5    2    3 2
     6    2    4 1
     7    4   12 1
     8    4    5 2
     9    5    6 1
    10    5   17 1
    11    6    7 1
    12    6   18 1
    13    6   19 1
    14    7    8 1
    15    7   20 1
    16    7   21 1
    17    8    9 1
    18    8   10 1
    19    8   26 1
    20   10   11 1
    21   10   22 1
    22   10   23 1
    23   11   12 1
    24   11   24 1
    25   11   25 1
    26   12   13 1
    27   12   26 1
    28   26   27 1
    29   26   28 1
@<TRIPOS>MOLECULE
ZINC00018377
   25    26     0     0     0
SMALL
USER_CHARGES
3-[[(2R)-azetidin-2-yl]methoxy]pyridine
@<TRIPOS>ATOM
      1 C1          2.3514   -0.0321   -0.0201 C.ar      1 <0>        -0.1268
      2 C2          2.3784    1.3534   -0.0129 C.ar      1 <0>        -0.0959
      3 C3          1.1677    2.0381    0.0019 C.ar      1 <0>         0.0580
      4 C4         -0.0158    1.3139    0.0093 C.ar      1 <0>         0.0241
      5 N1          0.0021   -0.0041    0.0020 N.ar      1 <0>        -0.4473
      6 C5          1.1324   -0.6833   -0.0124 C.ar      1 <0>         0.0804
      7 O1          1.1443    3.3970    0.0089 O.3       1 <0>        -0.3149
      8 C6         -0.1398    4.0237    0.0241 C.3       1 <0>         0.0435
      9 C7          0.0345    5.5437    0.0301 C.3       1 <0>         0.0140
     10 H1          0.7661    5.8869   -0.7014 H         1 <0>         0.1732
     11 C8         -1.2935    6.3118   -0.0245 C.3       1 <0>        -0.1673
     12 C9         -0.5931    7.2500    0.9684 C.3       1 <0>        -0.0231
     13 H2          3.2722   -0.5964   -0.0312 H         1 <0>         0.1518
     14 H3          3.3165    1.8885   -0.0182 H         1 <0>         0.1465
     15 H4         -0.9615    1.8355    0.0166 H         1 <0>         0.1551
     16 H5          1.1051   -1.7629   -0.0179 H         1 <0>         0.1677
     17 H6         -0.7000    3.7257   -0.8622 H         1 <0>         0.1137
     18 H7         -0.6834    3.7168    0.9176 H         1 <0>         0.0883
     19 H8         -1.5072    6.7654   -0.9924 H         1 <0>         0.1319
     20 H9         -2.1405    5.7693    0.3954 H         1 <0>         0.1296
     21 H10        -1.2493    7.6131    1.7594 H         1 <0>         0.1548
     22 H11        -0.0295    8.0497    0.4881 H         1 <0>         0.1551
     23 N2          0.1736    6.1444    1.2613 N.4       1 <0>        -0.4735
     24 H12         1.1483    6.3836    1.4783 H         1 <0>         0.4235
     25 H13        -0.2184    5.5805    2.0245 H         1 <0>         0.4378
@<TRIPOS>BOND
     1    1    6 ar
     2    1    2 ar
     3    1   13 1
     4    2    3 ar
     5    2   14 1
     6    3    4 ar
     7    3    7 1
     8    4    5 ar
     9    4   15 1
    10    5    6 ar
    11    6   16 1
    12    7    8 1
    13    8    9 1
    14    8   17 1
    15    8   18 1
    16    9   10 1
    17    9   11 1
    18    9   23 1
    19   11   12 1
    20   11   19 1
    21   11   20 1
    22   12   21 1
    23   12   22 1
    24   12   23 1
    25   23   24 1
    26   23   25 1
@<TRIPOS>MOLECULE
ZINC03786099
   27    28     0     0     0
SMALL
USER_CHARGES

@<TRIPOS>ATOM
      1 C1          0.5015    1.5311   -0.0916 C.3       1 <0>        -0.0983
      2 C2          0.2787    0.0407   -0.0881 C.2       1 <0>         0.1102
      3 C3          0.3653   -0.8100   -1.2047 C.2       1 <0>        -0.2117
      4 C4          0.1001   -2.0658   -0.7961 C.2       1 <0>        -0.0005
      5 O1         -0.1465   -2.0296    0.5223 O.3       1 <0>        -0.0813
      6 N1         -0.0223   -0.6855    0.9511 N.2       1 <0>        -0.2785
      7 C5          0.0828   -3.2955   -1.6671 C.3       1 <0>         0.1094
      8 H1          0.3536   -3.0298   -2.6889 H         1 <0>         0.1689
      9 C6         -1.3218   -3.9344   -1.6454 C.3       1 <0>        -0.1373
     10 C7         -1.0140   -5.4550   -1.6401 C.3       1 <0>        -0.1406
     11 C8          0.2675   -5.5118   -0.7716 C.3       1 <0>        -0.0105
     12 N2          1.0296   -4.2959   -1.1412 N.4       1 <0>        -0.3895
     13 C9          1.7096   -3.7577    0.0445 C.3       1 <0>        -0.0542
     14 H2          1.5549    1.7415    0.0933 H         1 <0>         0.0996
     15 H3          0.2142    1.9391   -1.0607 H         1 <0>         0.0969
     16 H4         -0.1035    1.9908    0.6899 H         1 <0>         0.0920
     17 H5          0.6027   -0.5087   -2.2142 H         1 <0>         0.1743
     18 H6         -1.8619   -3.6474   -0.7432 H         1 <0>         0.1062
     19 H7         -1.8846   -3.6583   -2.5371 H         1 <0>         0.1232
     20 H8         -1.8253   -6.0160   -1.1762 H         1 <0>         0.1233
     21 H9         -0.8180   -5.8172   -2.6493 H         1 <0>         0.1044
     22 H10         0.0094   -5.4922    0.2872 H         1 <0>         0.1362
     23 H11         0.8452   -6.4059   -1.0057 H         1 <0>         0.1418
     24 H12         0.9908   -3.6464    0.8563 H         1 <0>         0.1346
     25 H13         2.5011   -4.4415    0.3512 H         1 <0>         0.1301
     26 H14         2.1414   -2.7858   -0.1942 H         1 <0>         0.1178
     27 H15         1.7121   -4.5225   -1.8490 H         1 <0>         0.4333
@<TRIPOS>BOND
     1    1    2 1
     2    1   14 1
     3    1   15 1
     4    1   16 1
     5    2    6 2
     6    2    3 1
     7    3    4 2
     8    3   17 1
     9    4    5 1
    10    4    7 1
    11    5    6 1
    12    7    8 1
    13    7   12 1
    14    7    9 1
    15    9   10 1
    16    9   18 1
    17    9   19 1
    18   10   11 1
    19   10   20 1
    20   10   21 1
    21   11   12 1
    22   11   22 1
    23   11   23 1
    24   12   13 1
    25   12   27 1
    26   13   24 1
    27   13   25 1
    28   13   26 1
@<TRIPOS>MOLECULE
ZINC13444114
   30    31     0     0     0
SMALL
USER_CHARGES
2-methyl-5-[(2R)-1-methylpyrrolidin-2-yl]pyridine
@<TRIPOS>ATOM
      1 C1         -2.8863    3.1531   -4.5017 C.3       1 <0>        -0.1194
      2 C2         -2.1276    2.5873   -3.3289 C.ar      1 <0>         0.1611
      3 C3         -1.6346    1.2975   -3.3923 C.ar      1 <0>        -0.1579
      4 C4         -0.9335    0.7884   -2.3102 C.ar      1 <0>        -0.0377
      5 C5         -0.7631    1.5954   -1.1954 C.ar      1 <0>        -0.2027
      6 C6         -1.2851    2.8748   -1.2042 C.ar      1 <0>         0.1088
      7 N1         -1.9422    3.3281   -2.2541 N.ar      1 <0>        -0.4691
      8 C7         -0.0127    1.0858    0.0080 C.3       1 <0>         0.0852
      9 H1          0.0021   -0.0041    0.0020 H         1 <0>         0.1468
     10 C8          1.4278    1.6301   -0.0028 C.3       1 <0>        -0.1390
     11 C9          1.5695    2.4238    1.3162 C.3       1 <0>        -0.1485
     12 C10         0.4572    1.8162    2.2074 C.3       1 <0>        -0.0078
     13 C11        -1.5984    0.5837    1.7789 C.3       1 <0>        -0.0370
     14 H2         -2.1906    3.6453   -5.1812 H         1 <0>         0.0916
     15 H3         -3.3978    2.3464   -5.0268 H         1 <0>         0.0860
     16 H4         -3.6193    3.8768   -4.1452 H         1 <0>         0.0867
     17 H5         -1.7894    0.6957   -4.2756 H         1 <0>         0.1518
     18 H6         -0.5330   -0.2144   -2.3332 H         1 <0>         0.1475
     19 H7         -1.1531    3.5111   -0.3416 H         1 <0>         0.1481
     20 H8          2.1428    0.8077   -0.0281 H         1 <0>         0.1087
     21 H9          1.5770    2.2886   -0.8585 H         1 <0>         0.1052
     22 H10         2.5515    2.2614    1.7606 H         1 <0>         0.1193
     23 H11         1.3919    3.4860    1.1482 H         1 <0>         0.0988
     24 H12         0.7908    0.8796    2.6541 H         1 <0>         0.1370
     25 H13         0.1541    2.5230    2.9799 H         1 <0>         0.1407
     26 H14        -1.0689   -0.3431    1.9997 H         1 <0>         0.1222
     27 H15        -2.0539    0.9682    2.6915 H         1 <0>         0.1268
     28 H16        -2.3748    0.3910    1.0386 H         1 <0>         0.1212
     29 N2         -0.6267    1.5824    1.2402 N.4       1 <0>        -0.3992
     30 H17        -1.1193    2.4634    1.0516 H         1 <0>         0.4249
@<TRIPOS>BOND
     1    1    2 1
     2    1   14 1
     3    1   15 1
     4    1   16 1
     5    2    7 ar
     6    2    3 ar
     7    3    4 ar
     8    3   17 1
     9    4    5 ar
    10    4   18 1
    11    5    6 ar
    12    5    8 1
    13    6    7 ar
    14    6   19 1
    15    8    9 1
    16    8   10 1
    17    8   29 1
    18   10   11 1
    19   10   20 1
    20   10   21 1
    21   11   12 1
    22   11   22 1
    23   11   23 1
    24   12   24 1
    25   12   25 1
    26   12   29 1
    27   13   26 1
    28   13   27 1
    29   13   28 1
    30   13   29 1
    31   29   30 1
@<TRIPOS>MOLECULE
ZINC13444117
   30    31     0     0     0
SMALL
USER_CHARGES
2-methyl-5-[(2S)-1-methylpyrrolidin-2-yl]pyridine
@<TRIPOS>ATOM
      1 C1          2.3881    3.9818    0.0002 C.3       1 <0>        -0.1194
      2 C2          1.1105    3.1826    0.0081 C.ar      1 <0>         0.1613
      3 C3          1.1685    1.8016    0.0006 C.ar      1 <0>        -0.1582
      4 C4         -0.0126    1.0758    0.0080 C.ar      1 <0>        -0.0370
      5 C5         -1.2134    1.7694    0.0173 C.ar      1 <0>        -0.1998
      6 C6         -1.1928    3.1510    0.0299 C.ar      1 <0>         0.1106
      7 N1         -0.0498    3.8088    0.0225 N.ar      1 <0>        -0.4697
      8 C7         -2.5241    1.0257    0.0199 C.3       1 <0>         0.0885
      9 H1         -2.3858    0.0146    0.4027 H         1 <0>         0.1483
     10 C8         -3.1233    0.9857   -1.4023 C.3       1 <0>        -0.1418
     11 C9         -4.6451    1.1370   -1.2005 C.3       1 <0>        -0.1493
     12 C10        -4.8374    1.2556    0.3267 C.3       1 <0>        -0.0078
     13 C11        -3.3721    1.4606    2.2606 C.3       1 <0>        -0.0364
     14 H2          2.6865    4.1796   -1.0294 H         1 <0>         0.0915
     15 H3          2.2290    4.9264    0.5203 H         1 <0>         0.0866
     16 H4          3.1728    3.4174    0.5038 H         1 <0>         0.0859
     17 H5          2.1219    1.2944   -0.0112 H         1 <0>         0.1518
     18 H6          0.0021   -0.0041    0.0020 H         1 <0>         0.1475
     19 H7         -2.1237    3.6986    0.0413 H         1 <0>         0.1465
     20 H8         -2.7366    1.8116   -1.9994 H         1 <0>         0.1003
     21 H9         -2.8962    0.0338   -1.8821 H         1 <0>         0.1138
     22 H10        -5.0055    2.0371   -1.6985 H         1 <0>         0.1014
     23 H11        -5.1666    0.2585   -1.5806 H         1 <0>         0.1131
     24 H12        -5.6312    1.9666    0.5558 H         1 <0>         0.1399
     25 H13        -5.0651    0.2809    0.7581 H         1 <0>         0.1349
     26 H14        -2.3767    1.7641    2.5849 H         1 <0>         0.1216
     27 H15        -4.1227    2.0078    2.8310 H         1 <0>         0.1271
     28 H16        -3.4980    0.3907    2.4271 H         1 <0>         0.1211
     29 N2         -3.5423    1.7388    0.7996 N.4       1 <0>        -0.3981
     30 H17        -3.4649    2.7498    0.6378 H         1 <0>         0.4255
@<TRIPOS>BOND
     1    1    2 1
     2    1   14 1
     3    1   15 1
     4    1   16 1
     5    2    7 ar
     6    2    3 ar
     7    3    4 ar
     8    3   17 1
     9    4    5 ar
    10    4   18 1
    11    5    6 ar
    12    5    8 1
    13    6    7 ar
    14    6   19 1
    15    8    9 1
    16    8   10 1
    17    8   29 1
    18   10   11 1
    19   10   20 1
    20   10   21 1
    21   11   12 1
    22   11   22 1
    23   11   23 1
    24   12   24 1
    25   12   25 1
    26   12   29 1
    27   13   26 1
    28   13   27 1
    29   13   28 1
    30   13   29 1
    31   29   30 1
@<TRIPOS>MOLECULE
ZINC00391812
   27    28     0     0     0
SMALL
USER_CHARGES

@<TRIPOS>ATOM
      1 C1          0.3944    1.5372   -0.0882 C.3       1 <0>        -0.0517
      2 N1          0.2218    0.0783   -0.0924 N.4       1 <0>        -0.3878
      3 C2          0.9063   -0.4989   -1.2638 C.3       1 <0>        -0.0125
      4 C3          1.9925   -1.4575   -0.7321 C.3       1 <0>        -0.1421
      5 C4          2.2411   -0.9393    0.7089 C.3       1 <0>        -0.1364
      6 C5          0.8181   -0.4968    1.1321 C.3       1 <0>         0.0811
      7 H1          0.2382   -1.3559    1.4692 H         1 <0>         0.1507
      8 C6          0.8940    0.5453    2.2181 C.ar      1 <0>        -0.2036
      9 C7          1.8431    1.5545    2.1577 C.ar      1 <0>        -0.0573
     10 C8          1.8760    2.4913    3.1790 C.ar      1 <0>        -0.1660
     11 C9          0.9680    2.3891    4.2162 C.ar      1 <0>         0.1377
     12 N2          0.0793    1.4154    4.2410 N.ar      1 <0>        -0.4739
     13 C10         0.0150    0.5105    3.2837 C.ar      1 <0>         0.1353
     14 H2          1.4576    1.7772   -0.0812 H         1 <0>         0.1215
     15 H3         -0.0678    1.9603   -0.9800 H         1 <0>         0.1243
     16 H4         -0.0786    1.9564    0.7999 H         1 <0>         0.1209
     17 H5          0.1926   -1.0502   -1.8760 H         1 <0>         0.1353
     18 H6          1.3676    0.2945   -1.8519 H         1 <0>         0.1319
     19 H7          1.6257   -2.4838   -0.7146 H         1 <0>         0.1029
     20 H8          2.9001   -1.3816   -1.3309 H         1 <0>         0.1144
     21 H9          2.6094   -1.7378    1.3529 H         1 <0>         0.1203
     22 H10         2.9285   -0.0933    0.7065 H         1 <0>         0.0978
     23 H11         2.5404    1.6091    1.3347 H         1 <0>         0.1428
     24 H12         2.6020    3.2907    3.1646 H         1 <0>         0.1512
     25 H13         0.9870    3.1149    5.0157 H         1 <0>         0.1712
     26 H14        -0.7302   -0.2695    3.3356 H         1 <0>         0.1637
     27 H15        -0.7608   -0.1480   -0.1301 H         1 <0>         0.4285
@<TRIPOS>BOND
     1    1    2 1
     2    1   14 1
     3    1   15 1
     4    1   16 1
     5    2    6 1
     6    2    3 1
     7    2   27 1
     8    3    4 1
     9    3   17 1
    10    3   18 1
    11    4    5 1
    12    4   19 1
    13    4   20 1
    14    5    6 1
    15    5   21 1
    16    5   22 1
    17    6    7 1
    18    6    8 1
    19    8   13 ar
    20    8    9 ar
    21    9   10 ar
    22    9   23 1
    23   10   11 ar
    24   10   24 1
    25   11   12 ar
    26   11   25 1
    27   12   13 ar
    28   13   26 1
@<TRIPOS>MOLECULE
ZINC01530808
   44    43     0     0     0
SMALL
USER_CHARGES

@<TRIPOS>ATOM
      1 C1         -0.0178    1.4648    0.0101 C.3       1 <0>        -0.0512
      2 N1          0.0021   -0.0041    0.0020 N.4       1 <0>        -0.2715
      3 C2          0.7126   -0.4907    1.1921 C.3       1 <0>        -0.0512
      4 C3         -1.3761   -0.5125    0.0124 C.3       1 <0>        -0.0466
      5 C4          0.6897   -0.4778   -1.2066 C.3       1 <0>        -0.0092
      6 C5          2.1250    0.0518   -1.2175 C.3       1 <0>        -0.1525
      7 C6          2.8412   -0.4417   -2.4763 C.3       1 <0>        -0.1184
      8 C7          4.2766    0.0879   -2.4871 C.3       1 <0>        -0.1184
      9 C8          4.9927   -0.4055   -3.7459 C.3       1 <0>        -0.1525
     10 C9          6.4281    0.1241   -3.7568 C.3       1 <0>        -0.0092
     11 N2          7.1157   -0.3497   -4.9654 N.4       1 <0>        -0.2715
     12 C10         6.4052    0.1370   -6.1555 C.3       1 <0>        -0.0512
     13 C11         8.4938    0.1588   -4.9758 C.3       1 <0>        -0.0466
     14 C12         7.1356   -1.8185   -4.9735 C.3       1 <0>        -0.0513
     15 H1          1.0047    1.8421    0.0024 H         1 <0>         0.1212
     16 H2         -0.5450    1.8259   -0.8730 H         1 <0>         0.1224
     17 H3         -0.5280    1.8163    0.9069 H         1 <0>         0.1252
     18 H4          0.2024   -0.1392    2.0889 H         1 <0>         0.1252
     19 H5          0.7273   -1.5806    1.1861 H         1 <0>         0.1224
     20 H6          1.7352   -0.1134    1.1844 H         1 <0>         0.1212
     21 H7         -1.9033   -0.1515   -0.8706 H         1 <0>         0.1226
     22 H8         -1.3613   -1.6024    0.0064 H         1 <0>         0.1225
     23 H9         -1.8863   -0.1610    0.9092 H         1 <0>         0.1255
     24 H10         0.7044   -1.5677   -1.2126 H         1 <0>         0.1285
     25 H11         0.1625   -0.1167   -2.0897 H         1 <0>         0.1285
     26 H12         2.1103    1.1416   -1.2115 H         1 <0>         0.0899
     27 H13         2.6522   -0.3093   -0.3344 H         1 <0>         0.0899
     28 H14         2.8560   -1.5315   -2.4823 H         1 <0>         0.0777
     29 H15         2.3140   -0.0806   -3.3593 H         1 <0>         0.0777
     30 H16         4.2618    1.1778   -2.4811 H         1 <0>         0.0777
     31 H17         4.8038   -0.2732   -1.6041 H         1 <0>         0.0777
     32 H18         5.0075   -1.4954   -3.7519 H         1 <0>         0.0899
     33 H19         4.4655   -0.0444   -4.6290 H         1 <0>         0.0899
     34 H20         6.4133    1.2140   -3.7508 H         1 <0>         0.1285
     35 H21         6.9553   -0.2370   -2.8737 H         1 <0>         0.1285
     36 H22         6.3904    1.2268   -6.1495 H         1 <0>         0.1224
     37 H23         6.9154   -0.2146   -7.0523 H         1 <0>         0.1252
     38 H24         5.3826   -0.2403   -6.1478 H         1 <0>         0.1212
     39 H25         9.0210   -0.2023   -4.0928 H         1 <0>         0.1225
     40 H26         9.0040   -0.1927   -5.8726 H         1 <0>         0.1255
     41 H27         8.4791    1.2487   -4.9698 H         1 <0>         0.1226
     42 H28         6.1130   -2.1958   -4.9657 H         1 <0>         0.1212
     43 H29         7.6458   -2.1700   -5.8703 H         1 <0>         0.1252
     44 H30         7.6628   -2.1796   -4.0904 H         1 <0>         0.1224
@<TRIPOS>BOND
     1    1    2 1
     2    1   15 1
     3    1   16 1
     4    1   17 1
     5    2    3 1
     6    2    4 1
     7    2    5 1
     8    3   18 1
     9    3   19 1
    10    3   20 1
    11    4   21 1
    12    4   22 1
    13    4   23 1
    14    5    6 1
    15    5   24 1
    16    5   25 1
    17    6    7 1
    18    6   26 1
    19    6   27 1
    20    7    8 1
    21    7   28 1
    22    7   29 1
    23    8    9 1
    24    8   30 1
    25    8   31 1
    26    9   10 1
    27    9   32 1
    28    9   33 1
    29   10   11 1
    30   10   34 1
    31   10   35 1
    32   11   12 1
    33   11   13 1
    34   11   14 1
    35   12   36 1
    36   12   37 1
    37   12   38 1
    38   13   39 1
    39   13   40 1
    40   13   41 1
    41   14   42 1
    42   14   43 1
    43   14   44 1
@<TRIPOS>MOLECULE
ZINC04474604
   27    28     0     0     0
SMALL
USER_CHARGES

@<TRIPOS>ATOM
      1 C1         -3.3367   -1.7998    0.9454 C.ar      1 <0>        -0.0334
      2 C2         -4.5646   -1.6558    1.5720 C.ar      1 <0>        -0.1529
      3 C3         -5.0109   -0.3872    1.8967 C.ar      1 <0>         0.1850
      4 N1         -4.2820    0.6766    1.6158 N.ar      1 <0>        -0.4783
      5 C4         -3.1096    0.5761    1.0204 C.ar      1 <0>         0.1406
      6 C5         -2.5996   -0.6587    0.6670 C.ar      1 <0>        -0.1735
      7 C6         -1.2589   -0.7638   -0.0131 C.3       1 <0>         0.1409
      8 N2         -1.4547   -1.0350   -1.4394 N.pl3     1 <0>        -0.6047
      9 C7         -2.0000   -0.0849   -2.4203 C.3       1 <0>         0.0817
     10 C8         -1.9876   -0.8726   -3.7447 C.3       1 <0>         0.0919
     11 N3         -1.4366   -2.1836   -3.3705 N.pl3     1 <0>        -0.6727
     12 C9         -1.1599   -2.1867   -2.0588 C.2       1 <0>         0.6986
     13 N4         -0.6367   -3.2512   -1.4207 N.2       1 <0>        -0.4971
     14 N5         -0.2558   -3.1441   -0.1929 N.pl3     1 <0>         0.2230
     15 O1         -1.0477   -3.5462    0.7796 O.2       1 <0>        -0.2500
     16 O2          0.9248   -2.6326    0.0881 O.3       1 <0>        -0.2646
     17 Cl1        -6.5469   -0.1924    2.6818 Cl        1 <0>        -0.0218
     18 H1         -2.9608   -2.7780    0.6841 H         1 <0>         0.1595
     19 H2         -5.1654   -2.5229    1.8036 H         1 <0>         0.1514
     20 H3         -2.5416    1.4692    0.8061 H         1 <0>         0.1672
     21 H4         -0.7159    0.1737    0.1073 H         1 <0>         0.1114
     22 H5         -0.6864   -1.5755    0.4358 H         1 <0>         0.1266
     23 H6         -3.0181    0.1985   -2.1533 H         1 <0>         0.1007
     24 H7         -1.3633    0.7968   -2.4937 H         1 <0>         0.1061
     25 H8         -2.9995   -0.9803   -4.1352 H         1 <0>         0.1056
     26 H9         -1.3448   -0.3820   -4.4756 H         1 <0>         0.1086
     27 H10        -1.2930   -2.9268   -3.9770 H         1 <0>         0.4500
@<TRIPOS>BOND
     1    1    6 ar
     2    1    2 ar
     3    1   18 1
     4    2    3 ar
     5    2   19 1
     6    3    4 ar
     7    3   17 1
     8    4    5 ar
     9    5    6 ar
    10    5   20 1
    11    6    7 1
    12    7    8 1
    13    7   21 1
    14    7   22 1
    15    8   12 1
    16    8    9 1
    17    9   10 1
    18    9   23 1
    19    9   24 1
    20   10   11 1
    21   10   25 1
    22   10   26 1
    23   11   12 1
    24   11   27 1
    25   12   13 2
    26   13   14 1
    27   14   15 2
    28   14   16 1
@<TRIPOS>MOLECULE
ZINC04474604
   27    28     0     0     0
SMALL
USER_CHARGES

@<TRIPOS>ATOM
      1 C1         -0.0232    1.3761    0.0289 C.ar      1 <0>        -0.0422
      2 C2          1.1873    2.0511    0.0320 C.ar      1 <0>        -0.1593
      3 C3          2.3644    1.3241    0.0228 C.ar      1 <0>         0.1860
      4 N1          2.3421    0.0046    0.0108 N.ar      1 <0>        -0.4757
      5 C4          1.2085   -0.6694    0.0076 C.ar      1 <0>         0.1546
      6 C5         -0.0061   -0.0105    0.0167 C.ar      1 <0>        -0.1801
      7 C6         -1.2963   -0.7892    0.0129 C.3       1 <0>         0.1880
      8 N2         -1.7176   -1.0294   -1.3695 N.pl3     1 <0>        -0.5686
      9 C7         -2.5772   -0.1402   -2.1650 C.3       1 <0>         0.0889
     10 C8         -2.6991   -0.8603   -3.5219 C.3       1 <0>         0.0864
     11 N3         -1.8954   -2.0794   -3.3480 N.pl3     1 <0>        -0.7201
     12 C9         -1.3761   -2.0919   -2.1122 C.2       1 <0>         0.6973
     13 N4         -0.5862   -3.0832   -1.6570 N.2       1 <0>        -0.4965
     14 N5         -0.3770   -4.1272   -2.3854 N.pl3     1 <0>         0.1954
     15 O1          0.6891   -4.1894   -3.1562 O.2       1 <0>        -0.2389
     16 O2         -1.2294   -5.1307   -2.3581 O.3       1 <0>        -0.2492
     17 Cl1         3.8877    2.1568    0.0265 Cl        1 <0>        -0.0218
     18 H1         -0.9578    1.9172    0.0403 H         1 <0>         0.1476
     19 H2          1.2115    3.1308    0.0410 H         1 <0>         0.1502
     20 H3          1.2298   -1.7492   -0.0027 H         1 <0>         0.1706
     21 H4         -1.1463   -1.7433    0.5180 H         1 <0>         0.1138
     22 H5         -2.0660   -0.2195    0.5335 H         1 <0>         0.1128
     23 H6         -3.5565   -0.0362   -1.6978 H         1 <0>         0.1084
     24 H7         -2.1067    0.8350   -2.2905 H         1 <0>         0.1016
     25 H8         -3.7389   -1.1139   -3.7283 H         1 <0>         0.1055
     26 H9         -2.2892   -0.2426   -4.3210 H         1 <0>         0.1031
     27 H10        -1.7598   -2.7640   -4.0217 H         1 <0>         0.4422
@<TRIPOS>BOND
     1    1    6 ar
     2    1    2 ar
     3    1   18 1
     4    2    3 ar
     5    2   19 1
     6    3    4 ar
     7    3   17 1
     8    4    5 ar
     9    5    6 ar
    10    5   20 1
    11    6    7 1
    12    7    8 1
    13    7   21 1
    14    7   22 1
    15    8   12 1
    16    8    9 1
    17    9   10 1
    18    9   23 1
    19    9   24 1
    20   10   11 1
    21   10   25 1
    22   10   26 1
    23   11   12 1
    24   11   27 1
    25   12   13 2
    26   13   14 1
    27   14   15 2
    28   14   16 1
@<TRIPOS>MOLECULE
ZINC04474604
   26    27     0     0     0
SMALL
USER_CHARGES

@<TRIPOS>ATOM
      1 C1         -0.0167    1.3825    0.0096 C.ar      1 <0>        -0.0553
      2 C2          1.1930    2.0590    0.0017 C.ar      1 <0>        -0.1627
      3 C3          2.3709    1.3334   -0.0134 C.ar      1 <0>         0.1701
      4 N1          2.3501    0.0138   -0.0207 N.ar      1 <0>        -0.4798
      5 C4          1.2174   -0.6616   -0.0136 C.ar      1 <0>         0.1507
      6 C5          0.0021   -0.0041    0.0020 C.ar      1 <0>        -0.1462
      7 C6         -1.2872   -0.7844    0.0101 C.3       1 <0>         0.1949
      8 N2         -1.7181   -1.0298   -1.3684 N.pl3     1 <0>        -0.6322
      9 C7         -2.5850   -0.1498   -2.1697 C.3       1 <0>         0.0920
     10 C8         -2.6997   -0.8951   -3.5144 C.3       1 <0>         0.0364
     11 N3         -1.8888   -2.1052   -3.3206 N.2       1 <0>        -0.6245
     12 C9         -1.3789   -2.1126   -2.1323 C.2       1 <0>         0.5431
     13 N4         -0.5682   -3.1241   -1.6745 N.2       1 <0>        -0.5178
     14 N5         -0.2592   -4.2062   -2.5090 N.pl3     1 <0>         0.2255
     15 O1         -0.7055   -4.2504   -3.6317 O.2       1 <0>        -0.2969
     16 O2          0.4537   -5.0958   -2.1064 O.3       1 <0>        -0.3190
     17 Cl1         3.8931    2.1680   -0.0235 Cl        1 <0>        -0.0438
     18 H1         -0.9519    1.9225    0.0259 H         1 <0>         0.1402
     19 H2          1.2158    3.1388    0.0070 H         1 <0>         0.1408
     20 H3          1.2399   -1.7413   -0.0203 H         1 <0>         0.1760
     21 H4         -1.1323   -1.7366    0.5174 H         1 <0>         0.0957
     22 H5         -2.0538   -0.2139    0.5344 H         1 <0>         0.0768
     23 H6         -3.5644   -0.0459   -1.7028 H         1 <0>         0.0602
     24 H7         -2.1189    0.8257   -2.3093 H         1 <0>         0.0548
     25 H8         -3.7376   -1.1591   -3.7176 H         1 <0>         0.0616
     26 H9         -2.2933   -0.2883   -4.3235 H         1 <0>         0.0592
@<TRIPOS>BOND
     1    1    6 ar
     2    1    2 ar
     3    1   18 1
     4    2    3 ar
     5    2   19 1
     6    3    4 ar
     7    3   17 1
     8    4    5 ar
     9    5    6 ar
    10    5   20 1
    11    6    7 1
    12    7    8 1
    13    7   21 1
    14    7   22 1
    15    8   12 1
    16    8    9 1
    17    9   10 1
    18    9   23 1
    19    9   24 1
    20   10   11 1
    21   10   25 1
    22   10   26 1
    23   11   12 2
    24   12   13 1
    25   13   14 1
    26   14   15 2
    27   14   16 1
@<TRIPOS>MOLECULE
ZINC04474604
   26    27     0     0     0
SMALL
USER_CHARGES

@<TRIPOS>ATOM
      1 C1         -0.0167    1.3825    0.0096 C.ar      1 <0>        -0.0532
      2 C2          1.1930    2.0590    0.0017 C.ar      1 <0>        -0.1625
      3 C3          2.3709    1.3334   -0.0134 C.ar      1 <0>         0.1721
      4 N1          2.3501    0.0138   -0.0207 N.ar      1 <0>        -0.4788
      5 C4          1.2174   -0.6616   -0.0136 C.ar      1 <0>         0.1506
      6 C5          0.0021   -0.0041    0.0020 C.ar      1 <0>        -0.1498
      7 C6         -1.2872   -0.7844    0.0101 C.3       1 <0>         0.1883
      8 N2         -1.7181   -1.0298   -1.3684 N.pl3     1 <0>        -0.6118
      9 C7         -2.5845   -0.1444   -2.1607 C.3       1 <0>         0.0913
     10 C8         -2.7153   -0.8693   -3.5142 C.3       1 <0>         0.0217
     11 N3         -1.9088   -2.0868   -3.3420 N.2       1 <0>        -0.5777
     12 C9         -1.3806   -2.0944   -2.1099 C.2       1 <0>         0.5255
     13 N4         -0.5862   -3.0832   -1.6570 N.2       1 <0>        -0.4227
     14 N5         -0.2991   -4.0814   -2.4221 N.pl3     1 <0>         0.2681
     15 O1         -0.7828   -4.1336   -3.6459 O.2       1 <0>        -0.3946
     16 O2          0.4777   -5.0484   -1.9793 O.3       1 <0>        -0.4246
     17 Cl1         3.8931    2.1680   -0.0235 Cl        1 <0>        -0.0420
     18 H1         -0.9519    1.9225    0.0259 H         1 <0>         0.1414
     19 H2          1.2158    3.1388    0.0070 H         1 <0>         0.1418
     20 H3          1.2399   -1.7413   -0.0203 H         1 <0>         0.1764
     21 H4         -1.1323   -1.7366    0.5174 H         1 <0>         0.1001
     22 H5         -2.0538   -0.2139    0.5344 H         1 <0>         0.0828
     23 H6         -3.5605   -0.0401   -1.6868 H         1 <0>         0.0654
     24 H7         -2.1161    0.8309   -2.2928 H         1 <0>         0.0600
     25 H8         -3.7562   -1.1248   -3.7123 H         1 <0>         0.0673
     26 H9         -2.3118   -0.2538   -4.3183 H         1 <0>         0.0649
@<TRIPOS>BOND
     1    1    6 ar
     2    1    2 ar
     3    1   18 1
     4    2    3 ar
     5    2   19 1
     6    3    4 ar
     7    3   17 1
     8    4    5 ar
     9    5    6 ar
    10    5   20 1
    11    6    7 1
    12    7    8 1
    13    7   21 1
    14    7   22 1
    15    8   12 1
    16    8    9 1
    17    9   10 1
    18    9   23 1
    19    9   24 1
    20   10   11 1
    21   10   25 1
    22   10   26 1
    23   11   12 1
    24   12   13 2
    25   13   14 1
    26   14   15 2
    27   14   16 1
@<TRIPOS>MOLECULE
ZINC04474604
   26    27     0     0     0
SMALL
USER_CHARGES

@<TRIPOS>ATOM
      1 C1         -3.3367   -1.7998    0.9453 C.ar      1 <0>        -0.0336
      2 C2         -4.5646   -1.6558    1.5720 C.ar      1 <0>        -0.1545
      3 C3         -5.0109   -0.3872    1.8967 C.ar      1 <0>         0.1698
      4 N1         -4.2820    0.6766    1.6158 N.ar      1 <0>        -0.4846
      5 C4         -3.1096    0.5761    1.0204 C.ar      1 <0>         0.1245
      6 C5         -2.5996   -0.6587    0.6670 C.ar      1 <0>        -0.1426
      7 C6         -1.2589   -0.7638   -0.0131 C.3       1 <0>         0.1390
      8 N2         -1.4547   -1.0350   -1.4394 N.pl3     1 <0>        -0.6490
      9 C7         -2.0000   -0.0849   -2.4203 C.3       1 <0>         0.0881
     10 C8         -1.9876   -0.8726   -3.7447 C.3       1 <0>         0.0485
     11 N3         -1.4366   -2.1836   -3.3705 N.2       1 <0>        -0.6488
     12 C9         -1.1599   -2.1867   -2.0588 C.2       1 <0>         0.6094
     13 N4         -0.6367   -3.2512   -1.4207 N.2       1 <0>        -0.5267
     14 N5         -0.2558   -3.1441   -0.1929 N.pl3     1 <0>         0.2724
     15 O1         -1.0477   -3.5462    0.7796 O.2       1 <0>        -0.3324
     16 O2          0.9248   -2.6326    0.0881 O.3       1 <0>        -0.3484
     17 Cl1        -6.5469   -0.1924    2.6818 Cl        1 <0>        -0.0430
     18 H1         -2.9608   -2.7780    0.6841 H         1 <0>         0.1647
     19 H2         -5.1654   -2.5229    1.8036 H         1 <0>         0.1445
     20 H3         -2.5416    1.4692    0.8061 H         1 <0>         0.1613
     21 H4         -0.7159    0.1737    0.1073 H         1 <0>         0.0780
     22 H5         -0.6864   -1.5755    0.4358 H         1 <0>         0.1225
     23 H6         -3.0181    0.1985   -2.1533 H         1 <0>         0.0583
     24 H7         -1.3633    0.7968   -2.4937 H         1 <0>         0.0626
     25 H8         -2.9995   -0.9803   -4.1352 H         1 <0>         0.0586
     26 H9         -1.3448   -0.3820   -4.4756 H         1 <0>         0.0617
@<TRIPOS>BOND
     1    1    6 ar
     2    1    2 ar
     3    1   18 1
     4    2    3 ar
     5    2   19 1
     6    3    4 ar
     7    3   17 1
     8    4    5 ar
     9    5    6 ar
    10    5   20 1
    11    6    7 1
    12    7    8 1
    13    7   21 1
    14    7   22 1
    15    8   12 1
    16    8    9 1
    17    9   10 1
    18    9   23 1
    19    9   24 1
    20   10   11 1
    21   10   25 1
    22   10   26 1
    23   11   12 1
    24   12   13 2
    25   13   14 1
    26   14   15 2
    27   14   16 1
@<TRIPOS>MOLECULE
ZINC13746640
   28    29     0     0     0
SMALL
USER_CHARGES
3-[[(2R)-pyrrolidin-2-yl]methoxy]pyridine
@<TRIPOS>ATOM
      1 C1         -0.0848    3.7981    0.0223 C.ar      1 <0>        -0.1274
      2 C2          1.1501    3.1693    0.0076 C.ar      1 <0>        -0.0962
      3 C3          1.1837    1.7787    0.0003 C.ar      1 <0>         0.0579
      4 C4         -0.0126    1.0758    0.0080 C.ar      1 <0>         0.0257
      5 N1         -1.1667    1.7124    0.0169 N.ar      1 <0>        -0.4471
      6 C5         -1.2334    3.0295    0.0292 C.ar      1 <0>         0.0810
      7 O1          2.3713    1.1180   -0.0137 O.3       1 <0>        -0.3213
      8 C6          2.3192   -0.3100   -0.0199 C.3       1 <0>         0.0324
      9 C7          3.7421   -0.8722   -0.0356 C.3       1 <0>         0.0350
     10 H1          4.3211   -0.4605    0.7911 H         1 <0>         0.1542
     11 C8          3.7118   -2.4189    0.0447 C.3       1 <0>        -0.1370
     12 C9          5.0727   -2.7918   -0.6029 C.3       1 <0>        -0.1423
     13 C10         5.2412   -1.7221   -1.7024 C.3       1 <0>        -0.0108
     14 H2         -0.1488    4.8762    0.0287 H         1 <0>         0.1516
     15 H3          2.0639    3.7448    0.0016 H         1 <0>         0.1461
     16 H4          0.0021   -0.0041    0.0020 H         1 <0>         0.1559
     17 H5         -2.1985    3.5139    0.0410 H         1 <0>         0.1676
     18 H6          1.8007   -0.6586    0.8732 H         1 <0>         0.1123
     19 H7          1.7843   -0.6502   -0.9067 H         1 <0>         0.0894
     20 H8          3.6651   -2.7552    1.0804 H         1 <0>         0.1235
     21 H9          2.8812   -2.8237   -0.5335 H         1 <0>         0.1038
     22 H10         5.0320   -3.7898   -1.0392 H         1 <0>         0.1167
     23 H11         5.8793   -2.7244    0.1271 H         1 <0>         0.1028
     24 H12         4.9135   -2.1219   -2.6620 H         1 <0>         0.1343
     25 H13         6.2850   -1.4143   -1.7634 H         1 <0>         0.1359
     26 N2          4.4009   -0.5767   -1.3216 N.4       1 <0>        -0.5172
     27 H14         4.9852    0.2619   -1.2245 H         1 <0>         0.4403
     28 H15         3.6893   -0.4163   -2.0442 H         1 <0>         0.4330
@<TRIPOS>BOND
     1    1    6 ar
     2    1    2 ar
     3    1   14 1
     4    2    3 ar
     5    2   15 1
     6    3    4 ar
     7    3    7 1
     8    4    5 ar
     9    4   16 1
    10    5    6 ar
    11    6   17 1
    12    7    8 1
    13    8    9 1
    14    8   18 1
    15    8   19 1
    16    9   10 1
    17    9   11 1
    18    9   26 1
    19   11   12 1
    20   11   20 1
    21   11   21 1
    22   12   13 1
    23   12   22 1
    24   12   23 1
    25   13   24 1
    26   13   25 1
    27   13   26 1
    28   26   27 1
    29   26   28 1
@<TRIPOS>MOLECULE
ZINC00155006
   33    34     0     0     0
SMALL
USER_CHARGES

@<TRIPOS>ATOM
      1 C1         -0.0178    1.4647    0.0147 C.3       1 <0>        -0.0570
      2 N1          0.0019   -0.0039   -0.0093 N.4       1 <0>        -0.2666
      3 C2          0.6856   -0.4627   -1.2251 C.3       1 <0>        -0.0212
      4 C3          2.0859    0.1564   -1.2870 C.3       1 <0>         0.0987
      5 N2          2.7922   -0.1619   -0.0364 N.pl3     1 <0>        -0.6447
      6 C4          2.1081    0.1156    1.2360 C.3       1 <0>         0.0994
      7 C5          0.7068   -0.5016    1.1788 C.3       1 <0>        -0.0209
      8 C6          4.0757   -0.7124   -0.0566 C.ar      1 <0>         0.1954
      9 C7          4.6601   -1.0716   -1.2646 C.ar      1 <0>        -0.1872
     10 C8          5.9296   -1.6152   -1.2810 C.ar      1 <0>        -0.0708
     11 C9          6.6186   -1.8025   -0.0968 C.ar      1 <0>        -0.1561
     12 C10         6.0397   -1.4461    1.1075 C.ar      1 <0>        -0.0707
     13 C11         4.7729   -0.8966    1.1306 C.ar      1 <0>        -0.1865
     14 C12        -1.3769   -0.5105   -0.0064 C.3       1 <0>        -0.0451
     15 H1          1.0049    1.8419    0.0158 H         1 <0>         0.1240
     16 H2         -0.5408    1.8355   -0.8669 H         1 <0>         0.1243
     17 H3         -0.5321    1.8066    0.9129 H         1 <0>         0.1243
     18 H4          0.7691   -1.5493   -1.2071 H         1 <0>         0.1310
     19 H5          0.1138   -0.1565   -2.1011 H         1 <0>         0.1384
     20 H6          2.6332   -0.2596   -2.1329 H         1 <0>         0.1256
     21 H7          2.0037    1.2378   -1.3962 H         1 <0>         0.0877
     22 H8          2.6701   -0.3274    2.0582 H         1 <0>         0.1252
     23 H9          2.0282    1.1928    1.3816 H         1 <0>         0.0875
     24 H10         0.1506   -0.2241    2.0742 H         1 <0>         0.1385
     25 H11         0.7897   -1.5871    1.1241 H         1 <0>         0.1310
     26 H12         4.1222   -0.9262   -2.1897 H         1 <0>         0.1223
     27 H13         6.3845   -1.8947   -2.2198 H         1 <0>         0.1284
     28 H14         7.6109   -2.2285   -0.1124 H         1 <0>         0.1269
     29 H15         6.5806   -1.5937    2.0305 H         1 <0>         0.1285
     30 H16         4.3232   -0.6143    2.0711 H         1 <0>         0.1225
     31 H17        -1.9023   -0.1391   -0.8863 H         1 <0>         0.1232
     32 H18        -1.3637   -1.6003   -0.0242 H         1 <0>         0.1209
     33 H19        -1.8880   -0.1680    0.8934 H         1 <0>         0.1232
@<TRIPOS>BOND
     1    1    2 1
     2    1   15 1
     3    1   16 1
     4    1   17 1
     5    2    7 1
     6    2    3 1
     7    2   14 1
     8    3    4 1
     9    3   18 1
    10    3   19 1
    11    4    5 1
    12    4   20 1
    13    4   21 1
    14    5    6 1
    15    5    8 1
    16    6    7 1
    17    6   22 1
    18    6   23 1
    19    7   24 1
    20    7   25 1
    21    8   13 ar
    22    8    9 ar
    23    9   10 ar
    24    9   26 1
    25   10   11 ar
    26   10   27 1
    27   11   12 ar
    28   11   28 1
    29   12   13 ar
    30   12   29 1
    31   13   30 1
    32   14   31 1
    33   14   32 1
    34   14   33 1
@<TRIPOS>MOLECULE
ZINC01599730
   29    31     0     0     0
SMALL
USER_CHARGES

@<TRIPOS>ATOM
      1 C1         -0.0164    1.3600    0.0095 C.2       1 <0>        -0.0245
      2 C2          1.1996    2.0523    0.0016 C.2       1 <0>        -0.1843
      3 C3          2.3778    1.3768   -0.0442 C.2       1 <0>         0.0941
      4 N1          2.3937    0.0268   -0.1381 N.am      1 <0>        -0.5087
      5 C4          1.2352   -0.6700   -0.0346 C.2       1 <0>         0.5066
      6 O1          1.2662   -1.8886    0.0278 O.2       1 <0>        -0.5237
      7 C5          0.0021   -0.0041    0.0020 C.2       1 <0>        -0.2160
      8 C6          3.6089   -0.7431   -0.4070 C.3       1 <0>         0.0769
      9 C7          4.8712    0.0424   -0.0913 C.3       1 <0>        -0.1209
     10 H1          5.7197   -0.4721   -0.5424 H         1 <0>         0.1427
     11 C8          4.7670    1.4398   -0.7098 C.3       1 <0>        -0.1321
     12 C9          3.6522    2.1878    0.0311 C.3       1 <0>        -0.0636
     13 H2          3.5027    3.1776   -0.4001 H         1 <0>         0.1512
     14 C10         4.0502    2.2840    1.5133 C.3       1 <0>        -0.0032
     15 N2          4.0742    0.9227    2.0685 N.4       1 <0>        -0.5068
     16 C11         5.1112    0.1456    1.4075 C.3       1 <0>        -0.0085
     17 H3         -0.9536    1.8964    0.0258 H         1 <0>         0.1488
     18 H4          1.2018    3.1319    0.0318 H         1 <0>         0.1548
     19 H5         -0.9213   -0.5637    0.0243 H         1 <0>         0.1605
     20 H6          3.5951   -1.6485    0.1997 H         1 <0>         0.1127
     21 H7          3.6225   -1.0255   -1.4597 H         1 <0>         0.1058
     22 H8          5.7120    1.9695   -0.5893 H         1 <0>         0.1044
     23 H9          4.5190    1.3590   -1.7681 H         1 <0>         0.1039
     24 H10         5.0388    2.7347    1.6006 H         1 <0>         0.1478
     25 H11         3.3204    2.8884    2.0520 H         1 <0>         0.1423
     26 H12         4.2644    0.9675    3.0584 H         1 <0>         0.4367
     27 H13         5.1185   -0.8558    1.8380 H         1 <0>         0.1365
     28 H14         6.0788    0.6158    1.5829 H         1 <0>         0.1433
     29 H15         3.1779    0.4839    1.9198 H         1 <0>         0.4231
@<TRIPOS>BOND
     1    1    7 2
     2    1    2 1
     3    1   17 1
     4    2    3 2
     5    2   18 1
     6    3   12 1
     7    3    4 1
     8    4    5 am
     9    4    8 1
    10    5    6 2
    11    5    7 1
    12    7   19 1
    13    8    9 1
    14    8   20 1
    15    8   21 1
    16    9   10 1
    17    9   16 1
    18    9   11 1
    19   11   12 1
    20   11   22 1
    21   11   23 1
    22   12   13 1
    23   12   14 1
    24   14   15 1
    25   14   24 1
    26   14   25 1
    27   15   16 1
    28   15   26 1
    29   15   29 1
    30   16   27 1
    31   16   28 1
@<TRIPOS>MOLECULE
ZINC01481833
   30    33     0     0     0
SMALL
USER_CHARGES
BLAH
@<TRIPOS>ATOM
      1 C1         -0.0126    1.0758    0.0080 C.ar      1 <0>         0.0966
      2 C2          1.1918    1.7831    0.0003 C.ar      1 <0>         0.0966
      3 N1          1.1984    3.0965    0.0072 N.ar      1 <0>        -0.4215
      4 C3          0.0401    3.7650    0.0224 C.ar      1 <0>         0.0813
      5 C4          0.0125    5.1704    0.0335 C.ar      1 <0>        -0.0410
      6 C5         -1.1805    5.8238    0.0448 C.ar      1 <0>        -0.1245
      7 C6         -2.3856    5.1162    0.0469 C.ar      1 <0>        -0.1247
      8 C7         -2.3961    3.7559    0.0387 C.ar      1 <0>        -0.0409
      9 C8         -1.1823    3.0472    0.0280 C.ar      1 <0>         0.0811
     10 N2         -1.1627    1.7099    0.0169 N.ar      1 <0>        -0.4215
     11 C9         -3.5341    6.1155    0.0591 C.3       1 <0>        -0.0599
     12 H1         -4.4250    5.7502   -0.4518 H         1 <0>         0.1398
     13 C10        -2.9031    7.3764   -0.5983 C.3       1 <0>        -0.1241
     14 C11        -1.4937    7.3136    0.0576 C.3       1 <0>        -0.0600
     15 H2         -0.7414    7.9138   -0.4542 H         1 <0>         0.1398
     16 C12        -1.6899    7.7219    1.5301 C.3       1 <0>         0.0036
     17 C13        -3.7942    6.4872    1.5314 C.3       1 <0>         0.0036
     18 H3          0.0021   -0.0041    0.0020 H         1 <0>         0.1876
     19 H4          2.1277    1.2443   -0.0119 H         1 <0>         0.1876
     20 H5          0.9363    5.7299    0.0333 H         1 <0>         0.1493
     21 H6         -3.3348    3.2218    0.0415 H         1 <0>         0.1492
     22 H7         -3.4357    8.2839   -0.3139 H         1 <0>         0.1008
     23 H8         -2.8440    7.2746   -1.6819 H         1 <0>         0.1034
     24 H9         -0.7194    7.7941    2.0210 H         1 <0>         0.1339
     25 H10        -2.1966    8.6858    1.5770 H         1 <0>         0.1409
     26 H11        -4.3303    5.6756    2.0234 H         1 <0>         0.1340
     27 H12        -4.3883    7.3999    1.5779 H         1 <0>         0.1409
     28 N3         -2.5008    6.6942    2.2200 N.4       1 <0>        -0.5192
     29 H13        -2.6789    6.9988    3.1842 H         1 <0>         0.4374
     30 H14        -1.9812    5.8087    2.2313 H         1 <0>         0.4298
@<TRIPOS>BOND
     1    1   10 ar
     2    1    2 ar
     3    1   18 1
     4    2    3 ar
     5    2   19 1
     6    3    4 ar
     7    4    9 ar
     8    4    5 ar
     9    5    6 ar
    10    5   20 1
    11    6   14 1
    12    6    7 ar
    13    7    8 ar
    14    7   11 1
    15    8    9 ar
    16    8   21 1
    17    9   10 ar
    18   11   12 1
    19   11   17 1
    20   11   13 1
    21   13   14 1
    22   13   22 1
    23   13   23 1
    24   14   15 1
    25   14   16 1
    26   16   24 1
    27   16   25 1
    28   16   28 1
    29   17   26 1
    30   17   27 1
    31   17   28 1
    32   28   29 1
    33   28   30 1
@<TRIPOS>MOLECULE
ZINC03805142
   25    26     0     0     0
SMALL
USER_CHARGES
3-(azetidin-2-ylmethoxy)pyridine
@<TRIPOS>ATOM
      1 C1          3.6404    0.9113    5.5508 C.ar      1 <0>        -0.1268
      2 C2          3.2165    0.4989    4.2975 C.ar      1 <0>        -0.0959
      3 C3          2.7161    1.4560    3.4209 C.ar      1 <0>         0.0579
      4 C4          2.6650    2.7814    3.8281 C.ar      1 <0>         0.0241
      5 N1          3.0729    3.1315    5.0317 N.ar      1 <0>        -0.4473
      6 C5          3.5529    2.2492    5.8863 C.ar      1 <0>         0.0804
      7 O1          2.2884    1.0988    2.1813 O.3       1 <0>        -0.3149
      8 C6          1.7886    2.1417    1.3419 C.3       1 <0>         0.0434
      9 C7          1.3579    1.5520   -0.0026 C.3       1 <0>         0.0140
     10 H1          2.0964    0.8664   -0.4180 H         1 <0>         0.1732
     11 C8          0.8692    2.6072   -1.0048 C.3       1 <0>        -0.1675
     12 C9         -0.1751    1.5387   -1.3575 C.3       1 <0>        -0.0228
     13 H2          4.0341    0.1955    6.2572 H         1 <0>         0.1518
     14 H3          3.2735   -0.5401    4.0083 H         1 <0>         0.1465
     15 H4          2.2825    3.5333    3.1537 H         1 <0>         0.1551
     16 H5          3.8817    2.5765    6.8615 H         1 <0>         0.1677
     17 H6          2.5705    2.8836    1.1795 H         1 <0>         0.1137
     18 H7          0.9323    2.6155    1.8219 H         1 <0>         0.0883
     19 H8          0.4531    3.5025   -0.5428 H         1 <0>         0.1295
     20 H9          1.5771    2.8248   -1.8045 H         1 <0>         0.1319
     21 H10         0.1542    0.8499   -2.1354 H         1 <0>         0.1551
     22 H11        -1.1674    1.9475   -1.5479 H         1 <0>         0.1549
     23 N2          0.0682    1.0763   -0.0834 N.4       1 <0>        -0.4736
     24 H12        -0.5543    1.4964    0.6168 H         1 <0>         0.4378
     25 H13         0.0177    0.0530   -0.0162 H         1 <0>         0.4235
@<TRIPOS>BOND
     1    1    6 ar
     2    1    2 ar
     3    1   13 1
     4    2    3 ar
     5    2   14 1
     6    3    4 ar
     7    3    7 1
     8    4    5 ar
     9    4   15 1
    10    5    6 ar
    11    6   16 1
    12    7    8 1
    13    8    9 1
    14    8   17 1
    15    8   18 1
    16    9   10 1
    17    9   11 1
    18    9   23 1
    19   11   12 1
    20   11   19 1
    21   11   20 1
    22   12   21 1
    23   12   22 1
    24   12   23 1
    25   23   24 1
    26   23   25 1
@<TRIPOS>MOLECULE
ZINC00007013
   32    34     0     0     0
SMALL
USER_CHARGES
(1R,6R)-5-(6-chloro-3-pyridyl)-9-azabicyclo[4.2.1]non-4-ene
@<TRIPOS>ATOM
      1 C1          5.6149   -0.2684    0.3214 C.ar      1 <0>        -0.0420
      2 C2          6.8986    0.2442    0.3789 C.ar      1 <0>        -0.1491
      3 C3          7.1223    1.5556   -0.0049 C.ar      1 <0>         0.1880
      4 N1          6.1322    2.3192   -0.4289 N.ar      1 <0>        -0.4708
      5 C4          4.8951    1.8739   -0.5065 C.ar      1 <0>         0.1412
      6 C5          4.5878    0.5641   -0.1377 C.ar      1 <0>        -0.1277
      7 C6          3.1990    0.0654   -0.2248 C.2       1 <0>        -0.1134
      8 C7          2.9321   -0.9058   -1.0832 C.2       1 <0>        -0.0999
      9 C8          1.5542   -1.4816   -1.2219 C.3       1 <0>        -0.1227
     10 C9          0.5568   -0.3730   -1.3894 C.3       1 <0>        -0.1487
     11 C10         0.0021   -0.0041    0.0020 C.3       1 <0>         0.0272
     12 H1         -0.9514   -0.4728    0.2454 H         1 <0>         0.1721
     13 C11        -0.0191    1.5571    0.0106 C.3       1 <0>        -0.1420
     14 C12         1.4947    1.8920   -0.0021 C.3       1 <0>        -0.1416
     15 C13         2.1649    0.6832    0.6622 C.3       1 <0>         0.0792
     16 H2          2.6384    1.0049    1.5898 H         1 <0>         0.1457
     17 Cl1         8.7298    2.2063    0.0733 Cl        1 <0>        -0.0067
     18 H3          5.4113   -1.2864    0.6192 H         1 <0>         0.1488
     19 H4          7.7168   -0.3705    0.7240 H         1 <0>         0.1560
     20 H5          4.1117    2.5288   -0.8583 H         1 <0>         0.1657
     21 H6          3.7282   -1.2942   -1.7011 H         1 <0>         0.1413
     22 H7          1.5156   -2.1258   -2.1003 H         1 <0>         0.1136
     23 H8          1.3117   -2.0635   -0.3327 H         1 <0>         0.0818
     24 H9         -0.2583   -0.7021   -2.0340 H         1 <0>         0.1136
     25 H10         1.0472    0.4945   -1.8309 H         1 <0>         0.1046
     26 H11        -0.5123    1.9457   -0.8804 H         1 <0>         0.1203
     27 H12        -0.4951    1.9360    0.9150 H         1 <0>         0.1008
     28 H13         1.8496    2.0081   -1.0261 H         1 <0>         0.1060
     29 H14         1.6884    2.7975    0.5731 H         1 <0>         0.1129
     30 N2          1.1037   -0.2696    0.9568 N.4       1 <0>        -0.5193
     31 H15         1.4489   -1.2293    0.8380 H         1 <0>         0.4301
     32 H16         0.7729   -0.1417    1.9203 H         1 <0>         0.4350
@<TRIPOS>BOND
     1    1    6 ar
     2    1    2 ar
     3    1   18 1
     4    2    3 ar
     5    2   19 1
     6    3    4 ar
     7    3   17 1
     8    4    5 ar
     9    5    6 ar
    10    5   20 1
    11    6    7 1
    12    7   15 1
    13    7    8 2
    14    8    9 1
    15    8   21 1
    16    9   10 1
    17    9   22 1
    18    9   23 1
    19   10   11 1
    20   10   24 1
    21   10   25 1
    22   11   12 1
    23   11   13 1
    24   11   30 1
    25   13   14 1
    26   13   26 1
    27   13   27 1
    28   14   15 1
    29   14   28 1
    30   14   29 1
    31   15   16 1
    32   15   30 1
    33   30   31 1
    34   30   32 1
@<TRIPOS>MOLECULE
ZINC02507596
   32    34     0     0     0
SMALL
USER_CHARGES

@<TRIPOS>ATOM
      1 C1         -0.0169    1.3953    0.0097 C.ar      1 <0>        -0.0420
      2 C2          1.1920    2.0680    0.0018 C.ar      1 <0>        -0.1491
      3 C3          2.3711    1.3421   -0.0134 C.ar      1 <0>         0.1881
      4 N1          2.3578    0.0220   -0.0208 N.ar      1 <0>        -0.4707
      5 C4          1.2322   -0.6619   -0.0137 C.ar      1 <0>         0.1413
      6 C5          0.0021   -0.0041    0.0020 C.ar      1 <0>        -0.1278
      7 C6         -1.2606   -0.7725    0.0104 C.2       1 <0>        -0.1143
      8 C7         -2.0618   -0.6776   -1.0387 C.2       1 <0>        -0.0983
      9 C8         -3.3690   -1.4098   -1.1037 C.3       1 <0>        -0.1221
     10 C9         -3.1440   -2.8751   -0.7409 C.3       1 <0>        -0.1496
     11 C10        -3.4024   -3.0475    0.7703 C.3       1 <0>         0.0307
     12 H1         -4.4010   -3.4074    1.0182 H         1 <0>         0.1687
     13 C11        -2.2389   -3.9659    1.2611 C.3       1 <0>        -0.1391
     14 C12        -1.0087   -3.0404    1.0765 C.3       1 <0>        -0.1400
     15 C13        -1.5671   -1.6237    1.2018 C.3       1 <0>         0.0897
     16 H2         -1.1426   -1.1572    2.0908 H         1 <0>         0.1409
     17 N2         -3.0419   -1.7313    1.3912 N.4       1 <0>        -0.5296
     18 Cl1         3.8907    2.1812   -0.0234 Cl        1 <0>        -0.0066
     19 H3         -0.9515    1.9364    0.0260 H         1 <0>         0.1486
     20 H4          1.2158    3.1477    0.0070 H         1 <0>         0.1561
     21 H5          1.2618   -1.7415   -0.0205 H         1 <0>         0.1660
     22 H6         -1.7662   -0.0557   -1.8707 H         1 <0>         0.1414
     23 H7         -4.0712   -0.9641   -0.3991 H         1 <0>         0.0806
     24 H8         -3.7738   -1.3429   -2.1135 H         1 <0>         0.1142
     25 H9         -3.8334   -3.5031   -1.3052 H         1 <0>         0.1135
     26 H10        -2.1167   -3.1570   -0.9721 H         1 <0>         0.1055
     27 H11        -2.3704   -4.2360    2.3089 H         1 <0>         0.1012
     28 H12        -2.1548   -4.8560    0.6377 H         1 <0>         0.1219
     29 H13        -0.2709   -3.2292    1.8563 H         1 <0>         0.1146
     30 H14        -0.5672   -3.1874    0.0908 H         1 <0>         0.1072
     31 H15        -3.5249   -0.9797    0.9222 H         1 <0>         0.4285
     32 H16        -3.2689   -1.7348    2.3743 H         1 <0>         0.4304
@<TRIPOS>BOND
     1    1    6 ar
     2    1    2 ar
     3    1   19 1
     4    2    3 ar
     5    2   20 1
     6    3    4 ar
     7    3   18 1
     8    4    5 ar
     9    5    6 ar
    10    5   21 1
    11    6    7 1
    12    7   15 1
    13    7    8 2
    14    8    9 1
    15    8   22 1
    16    9   10 1
    17    9   23 1
    18    9   24 1
    19   10   11 1
    20   10   25 1
    21   10   26 1
    22   11   12 1
    23   11   17 1
    24   11   13 1
    25   13   14 1
    26   13   27 1
    27   13   28 1
    28   14   15 1
    29   14   29 1
    30   14   30 1
    31   15   16 1
    32   15   17 1
    33   17   31 1
    34   17   32 1
@<TRIPOS>MOLECULE
ZINC00967913
   28    30     0     0     0
SMALL
USER_CHARGES

@<TRIPOS>ATOM
      1 C1          1.2171   -0.6545    0.1555 C.ar      1 <0>        -0.0752
      2 C2          2.3777    0.1031    0.1418 C.ar      1 <0>        -0.1425
      3 C3          2.2860    1.4736   -0.0235 C.ar      1 <0>         0.1878
      4 N1          1.1116    2.0586   -0.1663 N.ar      1 <0>        -0.4633
      5 C4         -0.0121    1.3684   -0.1581 C.ar      1 <0>         0.1458
      6 C5          0.0021   -0.0041    0.0020 C.ar      1 <0>        -0.1631
      7 C6         -1.2872   -0.7844    0.0101 C.3       1 <0>        -0.0612
      8 H1         -2.1393   -0.1141    0.1233 H         1 <0>         0.1365
      9 C7         -1.2749   -1.8456    1.1375 C.3       1 <0>        -0.1443
     10 C8         -1.4042   -3.1952    0.3689 C.3       1 <0>         0.0384
     11 H2         -1.0647   -4.0789    0.9092 H         1 <0>         0.1726
     12 C9         -2.8802   -3.2368   -0.1294 C.3       1 <0>        -0.1467
     13 C10        -2.9122   -2.1745   -1.2554 C.3       1 <0>        -0.1410
     14 C11        -1.4241   -1.6312   -1.2910 C.3       1 <0>         0.0452
     15 H3         -1.1139   -1.1348   -2.2105 H         1 <0>         0.1734
     16 N2         -0.6607   -2.8754   -0.9018 N.4       1 <0>        -0.5418
     17 Cl1         3.7316    2.4346   -0.0426 Cl        1 <0>        -0.0014
     18 H4          1.2583   -1.7267    0.2784 H         1 <0>         0.1305
     19 H5          3.3413   -0.3704    0.2590 H         1 <0>         0.1568
     20 H6         -0.9547    1.8820   -0.2775 H         1 <0>         0.1733
     21 H7         -0.3364   -1.8073    1.6905 H         1 <0>         0.1022
     22 H8         -2.1225   -1.7031    1.8079 H         1 <0>         0.1235
     23 H9         -3.1240   -4.2228   -0.5251 H         1 <0>         0.1015
     24 H10        -3.5644   -2.9648    0.6743 H         1 <0>         0.1177
     25 H11        -3.1719   -2.6339   -2.2092 H         1 <0>         0.1026
     26 H12        -3.6123   -1.3759   -1.0098 H         1 <0>         0.1175
     27 H13         0.3118   -2.6745   -0.7232 H         1 <0>         0.4224
     28 H14        -0.7670   -3.6066   -1.5889 H         1 <0>         0.4327
@<TRIPOS>BOND
     1    1    6 ar
     2    1    2 ar
     3    1   18 1
     4    2    3 ar
     5    2   19 1
     6    3    4 ar
     7    3   17 1
     8    4    5 ar
     9    5    6 ar
    10    5   20 1
    11    6    7 1
    12    7    8 1
    13    7   14 1
    14    7    9 1
    15    9   10 1
    16    9   21 1
    17    9   22 1
    18   10   11 1
    19   10   16 1
    20   10   12 1
    21   12   13 1
    22   12   23 1
    23   12   24 1
    24   13   14 1
    25   13   25 1
    26   13   26 1
    27   14   15 1
    28   14   16 1
    29   16   27 1
    30   16   28 1
@<TRIPOS>MOLECULE
ZINC02565794
   28    30     0     0     0
SMALL
USER_CHARGES

@<TRIPOS>ATOM
      1 C1          1.0928   -0.4585   -0.7237 C.ar      1 <0>        -0.0620
      2 C2          2.2584    0.2913   -0.7024 C.ar      1 <0>        -0.1496
      3 C3          2.2945    1.4601    0.0370 C.ar      1 <0>         0.1879
      4 N1          1.2364    1.8615    0.7161 N.ar      1 <0>        -0.4678
      5 C4          0.1118    1.1728    0.7180 C.ar      1 <0>         0.1387
      6 C5          0.0021   -0.0041    0.0020 C.ar      1 <0>        -0.1517
      7 C6         -1.2872   -0.7844    0.0101 C.3       1 <0>        -0.0603
      8 H1         -2.1406   -0.1121    0.0984 H         1 <0>         0.1214
      9 C7         -1.4069   -1.6526   -1.2663 C.3       1 <0>        -0.1520
     10 C8         -1.4635   -3.1084   -0.7127 C.3       1 <0>         0.0416
     11 H2         -1.8985   -3.8501   -1.3825 H         1 <0>         0.1732
     12 C9         -0.0153   -3.4112   -0.2228 C.3       1 <0>        -0.1506
     13 C10         0.1242   -2.5441    1.0524 C.3       1 <0>        -0.1538
     14 C11        -1.2892   -1.8286    1.1671 C.3       1 <0>         0.0430
     15 H3         -1.5584   -1.4416    2.1499 H         1 <0>         0.1768
     16 N2         -2.1888   -2.8932    0.5901 N.4       1 <0>        -0.5340
     17 Cl1         3.7479    2.4089    0.0725 Cl        1 <0>        -0.0051
     18 H4          1.0341   -1.3727   -1.2956 H         1 <0>         0.1499
     19 H5          3.1274   -0.0328   -1.2557 H         1 <0>         0.1556
     20 H6         -0.7333    1.5325    1.2862 H         1 <0>         0.1691
     21 H7         -2.3211   -1.4127   -1.8092 H         1 <0>         0.1082
     22 H8         -0.5337   -1.5186   -1.9048 H         1 <0>         0.1199
     23 H9          0.0951   -4.4685    0.0180 H         1 <0>         0.1039
     24 H10         0.7148   -3.1093   -0.9738 H         1 <0>         0.1130
     25 H11         0.3037   -3.1717    1.9253 H         1 <0>         0.1016
     26 H12         0.9234   -1.8126    0.9335 H         1 <0>         0.1174
     27 H13        -3.1247   -2.5463    0.4419 H         1 <0>         0.4324
     28 H14        -2.1894   -3.7275    1.1576 H         1 <0>         0.4332
@<TRIPOS>BOND
     1    1    6 ar
     2    1    2 ar
     3    1   18 1
     4    2    3 ar
     5    2   19 1
     6    3    4 ar
     7    3   17 1
     8    4    5 ar
     9    5    6 ar
    10    5   20 1
    11    6    7 1
    12    7    8 1
    13    7   14 1
    14    7    9 1
    15    9   10 1
    16    9   21 1
    17    9   22 1
    18   10   11 1
    19   10   16 1
    20   10   12 1
    21   12   13 1
    22   12   23 1
    23   12   24 1
    24   13   14 1
    25   13   25 1
    26   13   26 1
    27   14   15 1
    28   14   16 1
    29   16   27 1
    30   16   28 1
@<TRIPOS>MOLECULE
ZINC06525315
   25    26     0     0     0
SMALL
USER_CHARGES
3-(azetidin-2-ylmethoxy)-2-fluoro-pyridine
@<TRIPOS>ATOM
      1 C1          1.7767   -0.5074   -3.1314 C.ar      1 <0>        -0.1390
      2 C2          1.1669    0.1527   -2.0749 C.ar      1 <0>        -0.1326
      3 C3          0.6061   -0.6074   -1.0562 C.ar      1 <0>         0.0398
      4 C4          0.6664   -1.9943   -1.1374 C.ar      1 <0>         0.2992
      5 N1          1.2519   -2.5828   -2.1630 N.ar      1 <0>        -0.4717
      6 C5          1.7982   -1.8881   -3.1430 C.ar      1 <0>         0.1183
      7 F1          0.1208   -2.7463   -0.1566 F         1 <0>        -0.1011
      8 O1          0.0021   -0.0041    0.0020 O.3       1 <0>        -0.3070
      9 C6         -0.0173    1.4248    0.0099 C.3       1 <0>         0.0437
     10 C7         -0.7334    1.9182    1.2687 C.3       1 <0>         0.0138
     11 H1         -1.6681    1.3897    1.4563 H         1 <0>         0.1745
     12 C8         -0.8689    3.4458    1.3361 C.3       1 <0>        -0.1667
     13 C9         -0.5657    3.2343    2.8261 C.3       1 <0>        -0.0227
     14 H2          2.2262    0.0524   -3.9383 H         1 <0>         0.1565
     15 H3          1.1323    1.2317   -2.0430 H         1 <0>         0.1507
     16 H4          2.2683   -2.4065   -3.9656 H         1 <0>         0.1803
     17 H5          1.0053    1.8021    0.0021 H         1 <0>         0.0891
     18 H6         -0.5445    1.7859   -0.8732 H         1 <0>         0.1145
     19 H7         -0.0927    3.9870    0.7951 H         1 <0>         0.1292
     20 H8         -1.8745    3.8141    1.1332 H         1 <0>         0.1322
     21 H9         -1.4561    3.0580    3.4296 H         1 <0>         0.1557
     22 H10         0.0864    3.9979    3.2501 H         1 <0>         0.1552
     23 N2          0.0393    2.0739    2.3977 N.4       1 <0>        -0.4741
     24 H11         1.0351    2.2017    2.1825 H         1 <0>         0.4375
     25 H12        -0.0704    1.3000    3.0635 H         1 <0>         0.4249
@<TRIPOS>BOND
     1    1    6 ar
     2    1    2 ar
     3    1   14 1
     4    2    3 ar
     5    2   15 1
     6    3    4 ar
     7    3    8 1
     8    4    5 ar
     9    4    7 1
    10    5    6 ar
    11    6   16 1
    12    8    9 1
    13    9   10 1
    14    9   17 1
    15    9   18 1
    16   10   11 1
    17   10   12 1
    18   10   23 1
    19   12   13 1
    20   12   19 1
    21   12   20 1
    22   13   21 1
    23   13   22 1
    24   13   23 1
    25   23   24 1
    26   23   25 1
@<TRIPOS>MOLECULE
ZINC26717002
   25    26     0     0     0
SMALL
USER_CHARGES
3-[[(2R)-azetidin-2-yl]methoxy]-2-fluoro-pyridine
@<TRIPOS>ATOM
      1 C1          4.9229   -1.4836    3.0991 C.ar      1 <0>        -0.1391
      2 C2          4.0622   -0.7702    2.2781 C.ar      1 <0>        -0.1323
      3 C3          3.2246    0.1734    2.8596 C.ar      1 <0>         0.0401
      4 C4          3.2717    0.3601    4.2368 C.ar      1 <0>         0.2984
      5 N1          4.1023   -0.3435    4.9826 N.ar      1 <0>        -0.4718
      6 C5          4.9133   -1.2432    4.4590 C.ar      1 <0>         0.1182
      7 F1          2.4591    1.2703    4.8168 F         1 <0>        -0.1014
      8 O1          2.3673    0.8997    2.0941 O.3       1 <0>        -0.3091
      9 C6          2.3808    0.6475    0.6876 C.3       1 <0>         0.0184
     10 C7          1.3579    1.5520   -0.0026 C.3       1 <0>         0.0047
     11 H1          1.5738    2.5095    0.4940 H         1 <0>         0.1810
     12 C8          1.3446    1.4077   -1.5308 C.3       1 <0>        -0.1584
     13 C9         -0.1751    1.5387   -1.3575 C.3       1 <0>         0.0291
     14 N2         -0.0116    1.0048    0.0076 N.4       1 <0>        -0.5439
     15 H2          5.5904   -2.2220    2.6800 H         1 <0>         0.1563
     16 H3          4.0460   -0.9416    1.2119 H         1 <0>         0.1502
     17 H4          5.5791   -1.7988    5.1027 H         1 <0>         0.1803
     18 H5          3.3839    0.8562    0.2873 H         1 <0>         0.1121
     19 H6          2.1236   -0.4057    0.5014 H         1 <0>         0.0835
     20 H7          1.9257    2.2258   -1.9814 H         1 <0>         0.1327
     21 H8          1.7913    0.4426   -1.8119 H         1 <0>         0.1239
     22 H9         -0.4693    2.5909   -1.4849 H         1 <0>         0.1637
     23 H10        -0.6848    0.9215   -2.1121 H         1 <0>         0.1470
     24 H11         0.0301   -0.0850    0.1512 H         1 <0>         0.4619
     25 H12        -0.5828    1.4613    0.8294 H         1 <0>         0.4544
@<TRIPOS>BOND
     1    1    6 ar
     2    1    2 ar
     3    1   15 1
     4    2    3 ar
     5    2   16 1
     6    3    4 ar
     7    3    8 1
     8    4    5 ar
     9    4    7 1
    10    5    6 ar
    11    6   17 1
    12    8    9 1
    13    9   10 1
    14    9   18 1
    15    9   19 1
    16   10   11 1
    17   10   14 1
    18   10   12 1
    19   12   13 1
    20   12   20 1
    21   12   21 1
    22   13   14 1
    23   13   22 1
    24   13   23 1
    25   14   24 1
    26   14   25 1
@<TRIPOS>MOLECULE
ZINC03829025
   25    26     0     0     0
SMALL
USER_CHARGES

@<TRIPOS>ATOM
      1 C1         -0.0167    1.3817    0.0096 C.ar      1 <0>        -0.0628
      2 C2          1.1983    2.0593    0.0017 C.ar      1 <0>         0.0665
      3 C3          2.3773    1.3286   -0.0135 C.ar      1 <0>         0.0441
      4 N1          2.3520    0.0104   -0.0208 N.ar      1 <0>        -0.4364
      5 C4          1.2184   -0.6625   -0.0136 C.ar      1 <0>         0.1182
      6 C5          0.0021   -0.0041    0.0020 C.ar      1 <0>        -0.1232
      7 I1         -1.7903   -1.0886    0.0140 I         1 <0>         0.0119
      8 O1          1.2297    3.4181    0.0082 O.3       1 <0>        -0.3182
      9 C6          2.5175    4.0373   -0.0007 C.3       1 <0>         0.0289
     10 C7          2.3522    5.5583    0.0085 C.3       1 <0>         0.0422
     11 H1          3.2757    6.0812    0.2570 H         1 <0>         0.1819
     12 C8          1.1409    6.0369    0.8211 C.3       1 <0>        -0.1554
     13 C9          0.9909    7.0492   -0.3231 C.3       1 <0>         0.0044
     14 N2          1.6856    6.0841   -1.1974 N.4       1 <0>        -0.5357
     15 H2         -0.9516    1.9222    0.0259 H         1 <0>         0.1528
     16 H3          3.3258    1.8449   -0.0198 H         1 <0>         0.1644
     17 H4          1.2396   -1.7423   -0.0203 H         1 <0>         0.1721
     18 H5          3.0759    3.7272    0.8825 H         1 <0>         0.1160
     19 H6          3.0593    3.7362   -0.8973 H         1 <0>         0.0960
     20 H7          0.3303    5.3107    0.8836 H         1 <0>         0.1334
     21 H8          1.3963    6.4838    1.7818 H         1 <0>         0.1324
     22 H9         -0.0449    7.2292   -0.6108 H         1 <0>         0.1403
     23 H10         1.5510    7.9707   -0.1638 H         1 <0>         0.1546
     24 H11         2.3210    6.5182   -1.8501 H         1 <0>         0.4281
     25 H12         1.0647    5.4197   -1.6346 H         1 <0>         0.4436
@<TRIPOS>BOND
     1    1    6 ar
     2    1    2 ar
     3    1   15 1
     4    2    3 ar
     5    2    8 1
     6    3    4 ar
     7    3   16 1
     8    4    5 ar
     9    5    6 ar
    10    5   17 1
    11    6    7 1
    12    8    9 1
    13    9   10 1
    14    9   18 1
    15    9   19 1
    16   10   11 1
    17   10   14 1
    18   10   12 1
    19   12   13 1
    20   12   20 1
    21   12   21 1
    22   13   14 1
    23   13   22 1
    24   13   23 1
    25   14   24 1
    26   14   25 1
@<TRIPOS>MOLECULE
ZINC04632558
   25    26     0     0     0
SMALL
USER_CHARGES
3-(azetidin-2-ylmethoxy)-5-iodo-pyridine
@<TRIPOS>ATOM
      1 C1         -4.5214    5.5070   -2.1600 C.ar      1 <0>        -0.0621
      2 C2         -4.2356    4.5335   -1.2080 C.ar      1 <0>         0.0657
      3 C3         -5.2647    4.0387   -0.4205 C.ar      1 <0>         0.0411
      4 N1         -6.4987    4.4778   -0.5716 N.ar      1 <0>        -0.4365
      5 C4         -6.8045    5.3956   -1.4673 C.ar      1 <0>         0.1173
      6 C5         -5.8325    5.9371   -2.2890 C.ar      1 <0>        -0.1223
      7 I1         -6.3352    7.3953   -3.7068 I         1 <0>         0.0120
      8 O1         -2.9652    4.0779   -1.0481 O.3       1 <0>        -0.3109
      9 C6         -2.7545    3.0823   -0.0449 C.3       1 <0>         0.0422
     10 C7         -1.2744    2.6963   -0.0123 C.3       1 <0>         0.0137
     11 H1         -0.6120    3.5619   -0.0242 H         1 <0>         0.1740
     12 C8         -0.9302    1.6791    1.0864 C.3       1 <0>        -0.1667
     13 C9         -0.0127    1.0858    0.0080 C.3       1 <0>        -0.0233
     14 H2         -3.7411    5.9152   -2.7853 H         1 <0>         0.1535
     15 H3         -5.0530    3.2855    0.3240 H         1 <0>         0.1632
     16 H4         -7.8274    5.7293   -1.5603 H         1 <0>         0.1722
     17 H5         -3.3546    2.2019   -0.2750 H         1 <0>         0.0903
     18 H6         -3.0483    3.4782    0.9273 H         1 <0>         0.1157
     19 H7         -1.7599    1.0323    1.3716 H         1 <0>         0.1298
     20 H8         -0.4002    2.1041    1.9388 H         1 <0>         0.1324
     21 H9          0.0021   -0.0041    0.0020 H         1 <0>         0.1552
     22 H10         0.9867    1.5209    0.0008 H         1 <0>         0.1554
     23 N2         -0.8780    1.6964   -0.8721 N.4       1 <0>        -0.4738
     24 H11        -0.4041    2.0570   -1.7086 H         1 <0>         0.4240
     25 H12        -1.6533    1.0854   -1.1546 H         1 <0>         0.4378
@<TRIPOS>BOND
     1    1    6 ar
     2    1    2 ar
     3    1   14 1
     4    2    3 ar
     5    2    8 1
     6    3    4 ar
     7    3   15 1
     8    4    5 ar
     9    5    6 ar
    10    5   16 1
    11    6    7 1
    12    8    9 1
    13    9   10 1
    14    9   17 1
    15    9   18 1
    16   10   11 1
    17   10   12 1
    18   10   23 1
    19   12   13 1
    20   12   19 1
    21   12   20 1
    22   13   21 1
    23   13   22 1
    24   13   23 1
    25   23   24 1
    26   23   25 1
