@<TRIPOS>MOLECULE
ZINC03079336
   26    25     0     0     0
SMALL
USER_CHARGES

@<TRIPOS>ATOM
      1 C1          0.4567    1.0915    0.2066 C.3       1 <0>        -0.1505
      2 C2          0.2519   -0.4009    0.1635 C.2       1 <0>         0.4622
      3 O1          1.2065   -1.1415    0.1480 O.2       1 <0>        -0.4897
      4 O2         -0.9909   -0.9074    0.1422 O.3       1 <0>        -0.3664
      5 C3         -1.1108   -2.3308    0.1015 C.3       1 <0>         0.0295
      6 C4         -2.5910   -2.7176    0.0823 C.3       1 <0>        -0.0006
      7 N1         -3.1974   -2.2714   -1.1791 N.4       1 <0>        -0.2721
      8 C5         -2.4263   -2.8064   -2.3093 C.3       1 <0>        -0.0542
      9 C6         -4.5812   -2.7582   -1.2563 C.3       1 <0>        -0.0453
     10 C7         -3.1910   -0.8034   -1.2332 C.3       1 <0>        -0.0471
     11 H1          1.5242    1.3115    0.2188 H         1 <0>         0.1116
     12 H2          0.0021    1.5462   -0.6735 H         1 <0>         0.1044
     13 H3         -0.0079    1.4962    1.1057 H         1 <0>         0.1080
     14 H4         -0.6243   -2.7109   -0.7968 H         1 <0>         0.0948
     15 H5         -0.6343   -2.7609    0.9824 H         1 <0>         0.1144
     16 H6         -2.6847   -3.8002    0.1675 H         1 <0>         0.1489
     17 H7         -3.1018   -2.2417    0.9193 H         1 <0>         0.1414
     18 H8         -2.4311   -3.8957   -2.2692 H         1 <0>         0.1244
     19 H9         -2.8763   -2.4753   -3.2452 H         1 <0>         0.1264
     20 H10        -1.3995   -2.4452   -2.2520 H         1 <0>         0.1197
     21 H11        -5.1533   -2.3613   -0.4177 H         1 <0>         0.1231
     22 H12        -5.0311   -2.4272   -2.1923 H         1 <0>         0.1241
     23 H13        -4.5859   -3.8475   -1.2162 H         1 <0>         0.1220
     24 H14        -2.1697   -0.4495   -1.3740 H         1 <0>         0.1297
     25 H15        -3.8098   -0.4678   -2.0653 H         1 <0>         0.1185
     26 H16        -3.5886   -0.4038   -0.3003 H         1 <0>         0.1230
@<TRIPOS>BOND
     1    1    2 1
     2    1   11 1
     3    1   12 1
     4    1   13 1
     5    2    3 2
     6    2    4 1
     7    4    5 1
     8    5    6 1
     9    5   14 1
    10    5   15 1
    11    6    7 1
    12    6   16 1
    13    6   17 1
    14    7    8 1
    15    7    9 1
    16    7   10 1
    17    8   18 1
    18    8   19 1
    19    8   20 1
    20    9   21 1
    21    9   22 1
    22    9   23 1
    23   10   24 1
    24   10   25 1
    25   10   26 1
@<TRIPOS>MOLECULE
ZINC00050682
   37    39     0     0     0
SMALL
USER_CHARGES
[(3R)-quinuclidin-3-yl] N-phenylcarbamate
@<TRIPOS>ATOM
      1 C1         -1.2361    3.1344    0.0548 C.ar      1 <0>        -0.1207
      2 C2         -1.1447    1.9023   -0.5663 C.ar      1 <0>        -0.0979
      3 C3          0.0587    1.2248   -0.5860 C.ar      1 <0>        -0.1338
      4 C4          1.1804    1.7877    0.0084 C.ar      1 <0>         0.1371
      5 C5          1.0869    3.0280    0.6258 C.ar      1 <0>        -0.1178
      6 C6         -0.1208    3.6978    0.6471 C.ar      1 <0>        -0.1010
      7 N1          2.4026    1.1062   -0.0145 N.am      1 <0>        -0.6400
      8 C7          3.5561    1.7947   -0.1236 C.2       1 <0>         0.6471
      9 O1          3.5414    3.0097   -0.1174 O.2       1 <0>        -0.5448
     10 O2          4.7248    1.1361   -0.2393 O.3       1 <0>        -0.3538
     11 C8          5.9273    1.9421   -0.3526 C.3       1 <0>         0.0992
     12 H1          5.6882    2.8886   -0.8376 H         1 <0>         0.1270
     13 C9          6.5005    2.2076    1.0424 C.3       1 <0>        -0.0202
     14 C10         7.8492    0.1984    0.9308 C.3       1 <0>        -0.0023
     15 C11         7.3141   -0.1243   -0.4672 C.3       1 <0>        -0.1361
     16 C12         6.9744    1.1892   -1.1829 C.3       1 <0>        -0.0987
     17 C13         8.2443    2.0459   -1.2621 C.3       1 <0>        -0.1340
     18 C14         8.7536    2.3077    0.1581 C.3       1 <0>        -0.0052
     19 H2         -2.1793    3.6602    0.0727 H         1 <0>         0.1301
     20 H3         -2.0163    1.4672   -1.0325 H         1 <0>         0.1335
     21 H4          0.1283    0.2603   -1.0669 H         1 <0>         0.1297
     22 H5          1.9576    3.4686    1.0886 H         1 <0>         0.1376
     23 H6         -0.1942    4.6625    1.1271 H         1 <0>         0.1306
     24 H7          2.4195    0.1384    0.0481 H         1 <0>         0.4201
     25 H8          6.5333    3.2819    1.2236 H         1 <0>         0.1439
     26 H9          5.8684    1.7313    1.7919 H         1 <0>         0.1368
     27 H10         7.2080   -0.2638    1.6813 H         1 <0>         0.1288
     28 H11         8.8632   -0.1890    1.0304 H         1 <0>         0.1321
     29 H12         6.4163   -0.7366   -0.3822 H         1 <0>         0.1068
     30 H13         8.0720   -0.6641   -1.0348 H         1 <0>         0.1055
     31 H14         6.5847    0.9829   -2.1798 H         1 <0>         0.1267
     32 H15         9.0075    1.5158   -1.8318 H         1 <0>         0.1128
     33 H16         8.0154    2.9941   -1.7485 H         1 <0>         0.1059
     34 H17         8.7709    3.3812    0.3462 H         1 <0>         0.1320
     35 H18         9.7603    1.9033    0.2637 H         1 <0>         0.1341
     36 N2          7.8699    1.6601    1.1509 N.4       1 <0>        -0.3885
     37 H19         8.2311    1.8503    2.0930 H         1 <0>         0.4373
@<TRIPOS>BOND
     1    1    6 ar
     2    1    2 ar
     3    1   19 1
     4    2    3 ar
     5    2   20 1
     6    3    4 ar
     7    3   21 1
     8    4    5 ar
     9    4    7 1
    10    5    6 ar
    11    5   22 1
    12    6   23 1
    13    7    8 am
    14    7   24 1
    15    8    9 2
    16    8   10 1
    17   10   11 1
    18   11   12 1
    19   11   16 1
    20   11   13 1
    21   13   25 1
    22   13   26 1
    23   13   36 1
    24   14   15 1
    25   14   27 1
    26   14   28 1
    27   14   36 1
    28   15   16 1
    29   15   29 1
    30   15   30 1
    31   16   17 1
    32   16   31 1
    33   17   18 1
    34   17   32 1
    35   17   33 1
    36   18   34 1
    37   18   35 1
    38   18   36 1
    39   36   37 1
@<TRIPOS>MOLECULE
ZINC64540331
   51    55     0     0     0
SMALL
USER_CHARGES

@<TRIPOS>ATOM
      1 C1         -0.0165    1.3620    0.0095 C.ar      1 <0>        -0.1335
      2 C2          1.1708    2.0817    0.0021 C.ar      1 <0>        -0.0695
      3 C3          2.3870    1.4341   -0.0131 C.ar      1 <0>        -0.1161
      4 C4          2.4312    0.0446   -0.0210 C.ar      1 <0>         0.0768
      5 C5          1.2247   -0.6799   -0.0133 C.ar      1 <0>        -0.1529
      6 C6          0.0021   -0.0041    0.0020 C.ar      1 <0>        -0.0532
      7 C7          1.6095   -2.0907   -0.0246 C.2       1 <0>        -0.0815
      8 C8          2.9674   -2.1102   -0.0377 C.2       1 <0>        -0.0575
      9 O1          3.4413   -0.8467   -0.0354 O.3       1 <0>        -0.1910
     10 C9          3.7957   -3.3242   -0.0517 C.2       1 <0>         0.6159
     11 O2          3.2684   -4.4205   -0.0522 O.2       1 <0>        -0.4965
     12 N1          5.1396   -3.2229   -0.0640 N.am      1 <0>        -0.7246
     13 C10         5.9653   -4.4330   -0.0780 C.3       1 <0>         0.1433
     14 H1          5.4707   -5.2059   -0.6663 H         1 <0>         0.1312
     15 C11         7.3303   -4.1154   -0.6928 C.3       1 <0>         0.0253
     16 H2          7.3617   -3.0644   -0.9803 H         1 <0>         0.1433
     17 N2          8.3929   -4.3856    0.2785 N.4       1 <0>        -0.3741
     18 C12         8.2371   -3.5374    1.4625 C.3       1 <0>        -0.0092
     19 C13         6.9022   -3.8357    2.1489 C.3       1 <0>        -0.1386
     20 C14         6.1703   -4.9322    1.3583 C.3       1 <0>        -0.1138
     21 C15         7.0676   -6.1761    1.3148 C.3       1 <0>        -0.1317
     22 C16         8.3997   -5.8011    0.6551 C.3       1 <0>        -0.0206
     23 C17         7.5443   -4.9872   -1.9317 C.3       1 <0>        -0.0924
     24 C18         8.8311   -4.5910   -2.6087 C.ar      1 <0>        -0.1827
     25 C19         8.8367   -3.6051   -3.5839 C.ar      1 <0>        -0.0571
     26 C20        10.0437   -3.2732   -4.1796 C.ar      1 <0>        -0.1559
     27 C21        11.1932   -3.9313   -3.7845 C.ar      1 <0>         0.1176
     28 N3         11.1502   -4.8643   -2.8539 N.ar      1 <0>        -0.4694
     29 C22        10.0211   -5.2014   -2.2615 C.ar      1 <0>         0.0819
     30 H3         -0.9609    1.8855    0.0259 H         1 <0>         0.1384
     31 H4          1.1408    3.1613    0.0078 H         1 <0>         0.1432
     32 H5          3.3039    2.0047   -0.0191 H         1 <0>         0.1368
     33 H6         -0.9244   -0.5591    0.0083 H         1 <0>         0.1360
     34 H7          0.9478   -2.9443   -0.0229 H         1 <0>         0.1731
     35 H8          5.5601   -2.3488   -0.0637 H         1 <0>         0.4101
     36 H9          9.0531   -3.7337    2.1580 H         1 <0>         0.1364
     37 H10         8.2635   -2.4897    1.1629 H         1 <0>         0.1287
     38 H11         7.0839   -4.1798    3.1671 H         1 <0>         0.1064
     39 H12         6.2924   -2.9325    2.1698 H         1 <0>         0.0995
     40 H13         5.2093   -5.1579    1.8204 H         1 <0>         0.1262
     41 H14         7.2482   -6.5319    2.3291 H         1 <0>         0.1090
     42 H15         6.5799   -6.9581    0.7327 H         1 <0>         0.1056
     43 H16         8.5450   -6.4117   -0.2361 H         1 <0>         0.1326
     44 H17         9.2150   -5.9854    1.3546 H         1 <0>         0.1382
     45 H18         7.5978   -6.0345   -1.6342 H         1 <0>         0.1071
     46 H19         6.7126   -4.8478   -2.6223 H         1 <0>         0.1255
     47 H20         7.9225   -3.1079   -3.8726 H         1 <0>         0.1430
     48 H21        10.0852   -2.5103   -4.9429 H         1 <0>         0.1481
     49 H22        12.1375   -3.6785   -4.2437 H         1 <0>         0.1682
     50 H23        10.0259   -5.9668   -1.4995 H         1 <0>         0.1512
     51 H24         9.2798   -4.1647   -0.1489 H         1 <0>         0.4234
@<TRIPOS>BOND
     1    1    6 ar
     2    1    2 ar
     3    1   30 1
     4    2    3 ar
     5    2   31 1
     6    3    4 ar
     7    3   32 1
     8    4    9 1
     9    4    5 ar
    10    5    6 ar
    11    5    7 1
    12    6   33 1
    13    7    8 2
    14    7   34 1
    15    8    9 1
    16    8   10 1
    17   10   11 2
    18   10   12 am
    19   12   13 1
    20   12   35 1
    21   13   14 1
    22   13   20 1
    23   13   15 1
    24   15   16 1
    25   15   17 1
    26   15   23 1
    27   17   22 1
    28   17   18 1
    29   17   51 1
    30   18   19 1
    31   18   36 1
    32   18   37 1
    33   19   20 1
    34   19   38 1
    35   19   39 1
    36   20   21 1
    37   20   40 1
    38   21   22 1
    39   21   41 1
    40   21   42 1
    41   22   43 1
    42   22   44 1
    43   23   24 1
    44   23   45 1
    45   23   46 1
    46   24   29 ar
    47   24   25 ar
    48   25   26 ar
    49   25   47 1
    50   26   27 ar
    51   26   48 1
    52   27   28 ar
    53   27   49 1
    54   28   29 ar
    55   29   50 1
@<TRIPOS>MOLECULE
ZINC04018167
   26    26     0     0     0
SMALL
USER_CHARGES
N,N-dimethyl-2-(3-pyridyl)ethanamine
@<TRIPOS>ATOM
      1 C1          5.1418    4.3316   -0.9080 C.3       1 <0>        -0.0478
      2 C2          4.3082    5.5892   -2.8017 C.3       1 <0>        -0.0428
      3 C3          2.7809    4.2906   -1.4439 C.3       1 <0>        -0.0034
      4 C4          2.3671    4.0041    0.0009 C.3       1 <0>        -0.0965
      5 C5          1.1060    3.1790    0.0081 C.ar      1 <0>        -0.1644
      6 C6          1.1732    1.7939    0.0005 C.ar      1 <0>        -0.0639
      7 C7         -0.0126    1.0758    0.0080 C.ar      1 <0>        -0.1661
      8 C8         -1.2139    1.7594    0.0173 C.ar      1 <0>         0.1170
      9 N1         -1.2397    3.0777    0.0299 N.ar      1 <0>        -0.4781
     10 C9         -0.1318    3.7931    0.0227 C.ar      1 <0>         0.1127
     11 H1          5.3036    3.4407   -1.5148 H         1 <0>         0.1234
     12 H2          6.0389    4.9505   -0.9247 H         1 <0>         0.1239
     13 H3          4.9225    4.0372    0.1183 H         1 <0>         0.1221
     14 H4          3.4829    6.2092   -3.1520 H         1 <0>         0.1222
     15 H5          5.2230    6.1814   -2.7783 H         1 <0>         0.1238
     16 H6          4.4398    4.7439   -3.4771 H         1 <0>         0.1228
     17 H7          2.9595    3.3496   -1.9641 H         1 <0>         0.1319
     18 H8          1.9850    4.8390   -1.9478 H         1 <0>         0.1314
     19 H9          2.1885    4.9452    0.5212 H         1 <0>         0.0989
     20 H10         3.1629    3.4557    0.5049 H         1 <0>         0.0971
     21 H11         2.1266    1.2867   -0.0113 H         1 <0>         0.1369
     22 H12         0.0021   -0.0041    0.0020 H         1 <0>         0.1443
     23 H13        -2.1422    1.2074    0.0190 H         1 <0>         0.1649
     24 H14        -0.1926    4.8713    0.0287 H         1 <0>         0.1562
     25 N2          4.0059    5.1177   -1.4339 N.4       1 <0>        -0.3986
     26 H15         3.8539    5.9314   -0.8265 H         1 <0>         0.4320
@<TRIPOS>BOND
     1    1   11 1
     2    1   12 1
     3    1   13 1
     4    1   25 1
     5    2   14 1
     6    2   15 1
     7    2   16 1
     8    2   25 1
     9    3    4 1
    10    3   17 1
    11    3   18 1
    12    3   25 1
    13    4    5 1
    14    4   19 1
    15    4   20 1
    16    5   10 ar
    17    5    6 ar
    18    6    7 ar
    19    6   21 1
    20    7    8 ar
    21    7   22 1
    22    8    9 ar
    23    8   23 1
    24    9   10 ar
    25   10   24 1
    26   25   26 1
@<TRIPOS>MOLECULE
ZINC03990028
   36    38     0     0     0
SMALL
USER_CHARGES

@<TRIPOS>ATOM
      1 C1         -0.0169    1.3919    0.0097 C.ar      1 <0>        -0.0399
      2 C2          1.1695    2.0948    0.0021 C.ar      1 <0>        -0.1145
      3 C3          2.3782    1.4186   -0.0130 C.ar      1 <0>        -0.0027
      4 C4          2.4034    0.0338   -0.0212 C.ar      1 <0>        -0.1172
      5 C5          1.2236   -0.6800   -0.0137 C.ar      1 <0>        -0.0734
      6 C6          0.0021   -0.0041    0.0020 C.ar      1 <0>        -0.1487
      7 C7         -1.2659   -0.7632    0.0100 C.2       1 <0>         0.5690
      8 O1         -2.3281   -0.1722    0.0234 O.2       1 <0>        -0.5168
      9 N1         -1.2445   -2.1108    0.0026 N.am      1 <0>        -0.7311
     10 C8         -2.5014   -2.8634    0.0106 C.3       1 <0>         0.1375
     11 H1         -3.2413   -2.3324    0.6096 H         1 <0>         0.1274
     12 C9         -3.0163   -3.0169   -1.4224 C.3       1 <0>        -0.0229
     13 N2         -3.1160   -4.4364   -1.7700 N.4       1 <0>        -0.3746
     14 C10        -1.8001   -5.0767   -1.7057 C.3       1 <0>        -0.0089
     15 C11        -1.2448   -4.9915   -0.2822 C.3       1 <0>        -0.1415
     16 C12        -2.2624   -4.2572    0.6057 C.3       1 <0>        -0.1095
     17 C13        -3.5854   -5.0334    0.5667 C.3       1 <0>        -0.1335
     18 C14        -4.0653   -5.1181   -0.8869 C.3       1 <0>        -0.0096
     19 Cl1         3.8676    2.3104   -0.0225 Cl        1 <0>        -0.0448
     20 H2         -0.9587    1.9202    0.0260 H         1 <0>         0.1488
     21 H3          1.1561    3.1747    0.0077 H         1 <0>         0.1477
     22 H4          3.3489   -0.4880   -0.0337 H         1 <0>         0.1449
     23 H5          1.2444   -1.7598   -0.0205 H         1 <0>         0.1311
     24 H6         -0.3969   -2.5824   -0.0080 H         1 <0>         0.4058
     25 H7         -3.9998   -2.5544   -1.5048 H         1 <0>         0.1406
     26 H8         -2.3279   -2.5240   -2.1088 H         1 <0>         0.1336
     27 H9         -1.8926   -6.1234   -1.9957 H         1 <0>         0.1342
     28 H10        -1.1186   -4.5723   -2.3906 H         1 <0>         0.1296
     29 H11        -1.0800   -5.9964    0.1064 H         1 <0>         0.1089
     30 H12        -0.3037   -4.4416   -0.2896 H         1 <0>         0.0953
     31 H13        -1.8871   -4.1731    1.6256 H         1 <0>         0.1262
     32 H14        -3.4314   -6.0378    0.9610 H         1 <0>         0.1082
     33 H15        -4.3318   -4.5135    1.1672 H         1 <0>         0.1052
     34 H16        -5.0430   -4.6439   -0.9719 H         1 <0>         0.1330
     35 H17        -4.1459   -6.1645   -1.1814 H         1 <0>         0.1335
     36 H18        -3.4528   -4.5100   -2.7183 H         1 <0>         0.4288
@<TRIPOS>BOND
     1    1    6 ar
     2    1    2 ar
     3    1   20 1
     4    2    3 ar
     5    2   21 1
     6    3    4 ar
     7    3   19 1
     8    4    5 ar
     9    4   22 1
    10    5    6 ar
    11    5   23 1
    12    6    7 1
    13    7    8 2
    14    7    9 am
    15    9   10 1
    16    9   24 1
    17   10   11 1
    18   10   16 1
    19   10   12 1
    20   12   13 1
    21   12   25 1
    22   12   26 1
    23   13   18 1
    24   13   14 1
    25   13   36 1
    26   14   15 1
    27   14   27 1
    28   14   28 1
    29   15   16 1
    30   15   29 1
    31   15   30 1
    32   16   17 1
    33   16   31 1
    34   17   18 1
    35   17   32 1
    36   17   33 1
    37   18   34 1
    38   18   35 1
@<TRIPOS>MOLECULE
ZINC00391812
   27    28     0     0     0
SMALL
USER_CHARGES

@<TRIPOS>ATOM
      1 C1          0.3944    1.5372   -0.0882 C.3       1 <0>        -0.0517
      2 N1          0.2218    0.0783   -0.0924 N.4       1 <0>        -0.3878
      3 C2          0.9063   -0.4989   -1.2638 C.3       1 <0>        -0.0125
      4 C3          1.9925   -1.4575   -0.7321 C.3       1 <0>        -0.1421
      5 C4          2.2411   -0.9393    0.7089 C.3       1 <0>        -0.1364
      6 C5          0.8181   -0.4968    1.1321 C.3       1 <0>         0.0811
      7 H1          0.2382   -1.3559    1.4692 H         1 <0>         0.1507
      8 C6          0.8940    0.5453    2.2181 C.ar      1 <0>        -0.2036
      9 C7          1.8431    1.5545    2.1577 C.ar      1 <0>        -0.0573
     10 C8          1.8760    2.4913    3.1790 C.ar      1 <0>        -0.1660
     11 C9          0.9680    2.3891    4.2162 C.ar      1 <0>         0.1377
     12 N2          0.0793    1.4154    4.2410 N.ar      1 <0>        -0.4739
     13 C10         0.0150    0.5105    3.2837 C.ar      1 <0>         0.1353
     14 H2          1.4576    1.7772   -0.0812 H         1 <0>         0.1215
     15 H3         -0.0678    1.9603   -0.9800 H         1 <0>         0.1243
     16 H4         -0.0786    1.9564    0.7999 H         1 <0>         0.1209
     17 H5          0.1926   -1.0502   -1.8760 H         1 <0>         0.1353
     18 H6          1.3676    0.2945   -1.8519 H         1 <0>         0.1319
     19 H7          1.6257   -2.4838   -0.7146 H         1 <0>         0.1029
     20 H8          2.9001   -1.3816   -1.3309 H         1 <0>         0.1144
     21 H9          2.6094   -1.7378    1.3529 H         1 <0>         0.1203
     22 H10         2.9285   -0.0933    0.7065 H         1 <0>         0.0978
     23 H11         2.5404    1.6091    1.3347 H         1 <0>         0.1428
     24 H12         2.6020    3.2907    3.1646 H         1 <0>         0.1512
     25 H13         0.9870    3.1149    5.0157 H         1 <0>         0.1712
     26 H14        -0.7302   -0.2695    3.3356 H         1 <0>         0.1637
     27 H15        -0.7608   -0.1480   -0.1301 H         1 <0>         0.4285
@<TRIPOS>BOND
     1    1    2 1
     2    1   14 1
     3    1   15 1
     4    1   16 1
     5    2    6 1
     6    2    3 1
     7    2   27 1
     8    3    4 1
     9    3   17 1
    10    3   18 1
    11    4    5 1
    12    4   19 1
    13    4   20 1
    14    5    6 1
    15    5   21 1
    16    5   22 1
    17    6    7 1
    18    6    8 1
    19    8   13 ar
    20    8    9 ar
    21    9   10 ar
    22    9   23 1
    23   10   11 ar
    24   10   24 1
    25   11   12 ar
    26   11   25 1
    27   12   13 ar
    28   13   26 1
@<TRIPOS>MOLECULE
ZINC06068314
   56    60     0     0     0
SMALL
USER_CHARGES

@<TRIPOS>ATOM
      1 C1          5.1604   -4.2760    0.2466 C.3       1 <0>        -0.0403
      2 N1          3.7227   -3.9751    0.2237 N.4       1 <0>        -0.2769
      3 C2          3.1017   -4.2858    1.5388 C.3       1 <0>         0.0376
      4 H1          3.7007   -3.9227    2.3739 H         1 <0>         0.1476
      5 C3          2.9680   -5.8261    1.5414 C.3       1 <0>        -0.1433
      6 C4          2.9093   -6.2202    0.0509 C.3       1 <0>        -0.1433
      7 C5          3.0128   -4.8822   -0.7169 C.3       1 <0>         0.0393
      8 H2          3.5415   -4.9903   -1.6639 H         1 <0>         0.1507
      9 C6          1.5890   -4.3307   -0.8944 C.3       1 <0>        -0.1530
     10 C7          0.8585   -4.4021    0.4496 C.3       1 <0>         0.0801
     11 C8          1.6901   -3.6774    1.5312 C.3       1 <0>        -0.1653
     12 O1         -0.4163   -3.7673    0.3320 O.3       1 <0>        -0.3566
     13 C9         -1.4919   -4.5126    0.9062 C.3       1 <0>         0.1720
     14 C10        -1.2931   -4.4647    2.3703 C.ar      1 <0>        -0.0967
     15 C11        -1.3296   -3.1481    2.8761 C.ar      1 <0>        -0.1050
     16 C12        -1.2265   -2.8914    4.2203 C.ar      1 <0>        -0.1202
     17 C13        -1.0946   -3.9576    5.0916 C.ar      1 <0>        -0.1073
     18 C14        -1.0377   -5.2296    4.5856 C.ar      1 <0>        -0.1344
     19 C15        -1.1036   -5.4876    3.1955 C.ar      1 <0>        -0.0589
     20 C16        -0.8519   -6.9587    2.9470 C.3       1 <0>        -0.0740
     21 C17        -1.7549   -7.5889    1.9337 C.3       1 <0>        -0.0839
     22 C18        -1.6541   -7.0065    0.5391 C.ar      1 <0>        -0.0537
     23 C19        -1.6113   -5.7486    0.1070 C.ar      1 <0>        -0.1023
     24 C20        -1.6586   -5.4866   -1.2792 C.ar      1 <0>        -0.1048
     25 C21        -1.6743   -6.4984   -2.2051 C.ar      1 <0>        -0.1235
     26 C22        -1.6345   -7.8078   -1.7606 C.ar      1 <0>        -0.1063
     27 C23        -1.6306   -8.0519   -0.4122 C.ar      1 <0>        -0.1347
     28 C24         3.4944   -2.5705   -0.1407 C.3       1 <0>        -0.0567
     29 H3          5.5753   -4.1434   -0.7525 H         1 <0>         0.1200
     30 H4          5.6617   -3.6015    0.9407 H         1 <0>         0.1198
     31 H5          5.3108   -5.3064    0.5687 H         1 <0>         0.1196
     32 H6          3.8349   -6.2813    2.0202 H         1 <0>         0.0999
     33 H7          2.0516   -6.1265    2.0495 H         1 <0>         0.1092
     34 H8          3.7474   -6.8691   -0.2032 H         1 <0>         0.0999
     35 H9          1.9641   -6.7144   -0.1739 H         1 <0>         0.1106
     36 H10         1.6380   -3.2944   -1.2287 H         1 <0>         0.1006
     37 H11         1.0550   -4.9293   -1.6324 H         1 <0>         0.1142
     38 H12         0.7184   -5.4458    0.7311 H         1 <0>         0.0895
     39 H13         1.2245   -3.8232    2.5058 H         1 <0>         0.1130
     40 H14         1.7531   -2.6118    1.3104 H         1 <0>         0.1003
     41 H15        -2.3896   -3.9291    0.7018 H         1 <0>         0.1114
     42 H16        -1.4409   -2.3224    2.1889 H         1 <0>         0.1267
     43 H17        -1.2476   -1.8770    4.5904 H         1 <0>         0.1285
     44 H18        -1.0369   -3.7896    6.1568 H         1 <0>         0.1269
     45 H19        -0.9392   -6.0607    5.2682 H         1 <0>         0.1229
     46 H20         0.1784   -7.0798    2.6124 H         1 <0>         0.0678
     47 H21        -0.9680   -7.4919    3.8905 H         1 <0>         0.0859
     48 H22        -1.5223   -8.6525    1.8800 H         1 <0>         0.0848
     49 H23        -2.7840   -7.4831    2.2771 H         1 <0>         0.0809
     50 H24        -1.6833   -4.4621   -1.6199 H         1 <0>         0.1275
     51 H25        -1.7173   -6.2770   -3.2613 H         1 <0>         0.1280
     52 H26        -1.6073   -8.6255   -2.4657 H         1 <0>         0.1268
     53 H27        -1.6089   -9.0745   -0.0655 H         1 <0>         0.1230
     54 H28         3.9221   -2.3762   -1.1243 H         1 <0>         0.1210
     55 H29         2.4231   -2.3708   -0.1644 H         1 <0>         0.1344
     56 H30         3.9685   -1.9222    0.5962 H         1 <0>         0.1204
@<TRIPOS>BOND
     1    1    2 1
     2    1   29 1
     3    1   30 1
     4    1   31 1
     5    2    7 1
     6    2    3 1
     7    2   28 1
     8    3    4 1
     9    3   11 1
    10    3    5 1
    11    5    6 1
    12    5   32 1
    13    5   33 1
    14    6    7 1
    15    6   34 1
    16    6   35 1
    17    7    8 1
    18    7    9 1
    19    9   10 1
    20    9   36 1
    21    9   37 1
    22   10   11 1
    23   10   12 1
    24   10   38 1
    25   11   39 1
    26   11   40 1
    27   12   13 1
    28   13   23 1
    29   13   14 1
    30   13   41 1
    31   14   19 ar
    32   14   15 ar
    33   15   16 ar
    34   15   42 1
    35   16   17 ar
    36   16   43 1
    37   17   18 ar
    38   17   44 1
    39   18   19 ar
    40   18   45 1
    41   19   20 1
    42   20   21 1
    43   20   46 1
    44   20   47 1
    45   21   22 1
    46   21   48 1
    47   21   49 1
    48   22   27 ar
    49   22   23 ar
    50   23   24 ar
    51   24   25 ar
    52   24   50 1
    53   25   26 ar
    54   25   51 1
    55   26   27 ar
    56   26   52 1
    57   27   53 1
    58   28   54 1
    59   28   55 1
    60   28   56 1
@<TRIPOS>MOLECULE
ZINC01482030
   53    57     0     0     0
SMALL
USER_CHARGES
8-methyl-3-BLAHyloxy-8-azabicyclo[3.2.1]octane
@<TRIPOS>ATOM
      1 C1          3.8624    6.0535   -2.0618 C.3       1 <0>        -0.0377
      2 C2          1.9418    4.5548   -2.0835 C.3       1 <0>         0.0359
      3 H1          1.8355    4.8144   -3.1368 H         1 <0>         0.1569
      4 C3          1.0689    5.4465   -1.1706 C.3       1 <0>        -0.1457
      5 C4          1.8799    5.5900    0.1340 C.3       1 <0>        -0.1447
      6 C5          3.1692    4.7721   -0.1091 C.3       1 <0>         0.0338
      7 H2          4.0304    5.1973    0.4062 H         1 <0>         0.1574
      8 C6          2.8945    3.3224    0.3216 C.3       1 <0>        -0.1555
      9 C7          1.5611    2.8705   -0.2807 C.3       1 <0>         0.0793
     10 C8          1.5791    3.0891   -1.7963 C.3       1 <0>        -0.1588
     11 O1          1.3599    1.4833   -0.0030 O.3       1 <0>        -0.3554
     12 C9          0.1333    1.1976    0.6722 C.3       1 <0>         0.1720
     13 C10         0.2709    1.7558    2.0323 C.ar      1 <0>        -0.1014
     14 C11         1.4735    1.3601    2.6559 C.ar      1 <0>        -0.1039
     15 C12         1.8414    1.8434    3.8858 C.ar      1 <0>        -0.1242
     16 C13         1.0094    2.7479    4.5210 C.ar      1 <0>        -0.1066
     17 C14        -0.1723    3.0934    3.9257 C.ar      1 <0>        -0.1347
     18 C15        -0.5669    2.5632    2.6758 C.ar      1 <0>        -0.0538
     19 C16        -1.9615    3.0454    2.3359 C.3       1 <0>        -0.0839
     20 C17        -2.1446    3.5011    0.9221 C.3       1 <0>        -0.0744
     21 C18        -1.9123    2.4342   -0.1259 C.ar      1 <0>        -0.0588
     22 C19        -0.9482    1.5322   -0.2767 C.ar      1 <0>        -0.0983
     23 C20        -0.8922    0.7551   -1.4532 C.ar      1 <0>        -0.1060
     24 C21        -1.8507    0.8574   -2.4296 C.ar      1 <0>        -0.1199
     25 C22        -2.9006    1.7379   -2.2404 C.ar      1 <0>        -0.1066
     26 C23        -2.9291    2.5074   -1.1069 C.ar      1 <0>        -0.1338
     27 H3          4.8366    6.2313   -1.6064 H         1 <0>         0.1232
     28 H4          3.9681    6.0248   -3.1463 H         1 <0>         0.1243
     29 H5          3.1796    6.8566   -1.7844 H         1 <0>         0.1174
     30 H6          0.1122    4.9636   -0.9713 H         1 <0>         0.1087
     31 H7          0.9119    6.4228   -1.6291 H         1 <0>         0.1000
     32 H8          1.3221    5.1777    0.9748 H         1 <0>         0.1091
     33 H9          2.1235    6.6364    0.3180 H         1 <0>         0.0999
     34 H10         2.8409    3.2685    1.4089 H         1 <0>         0.1147
     35 H11         3.6954    2.6766   -0.0386 H         1 <0>         0.0963
     36 H12         0.7495    3.4498    0.1595 H         1 <0>         0.0884
     37 H13         2.3212    2.4329   -2.2510 H         1 <0>         0.0962
     38 H14         0.5941    2.8701   -2.2085 H         1 <0>         0.1139
     39 H15         0.1128    0.1140    0.7881 H         1 <0>         0.1114
     40 H16         2.1210    0.6580    2.1517 H         1 <0>         0.1275
     41 H17         2.7632    1.5242    4.3492 H         1 <0>         0.1279
     42 H18         1.2893    3.1749    5.4727 H         1 <0>         0.1267
     43 H19        -0.8250    3.7926    4.4272 H         1 <0>         0.1226
     44 H20        -2.2101    3.8738    2.9992 H         1 <0>         0.0849
     45 H21        -2.6626    2.2334    2.5290 H         1 <0>         0.0807
     46 H22        -1.4552    4.3242    0.7339 H         1 <0>         0.0677
     47 H23        -3.1615    3.8772    0.8108 H         1 <0>         0.0859
     48 H24        -0.0745    0.0626   -1.5885 H         1 <0>         0.1268
     49 H25        -1.7865    0.2622   -3.3285 H         1 <0>         0.1287
     50 H26        -3.6875    1.8175   -2.9759 H         1 <0>         0.1273
     51 H27        -3.7522    3.1906   -0.9582 H         1 <0>         0.1232
     52 N1          3.2963    4.7585   -1.5622 N.4       1 <0>        -0.3925
     53 H28         3.9078    3.9876   -1.8555 H         1 <0>         0.4280
@<TRIPOS>BOND
     1    1   27 1
     2    1   28 1
     3    1   29 1
     4    1   52 1
     5    2    3 1
     6    2   10 1
     7    2    4 1
     8    2   52 1
     9    4    5 1
    10    4   30 1
    11    4   31 1
    12    5    6 1
    13    5   32 1
    14    5   33 1
    15    6    7 1
    16    6    8 1
    17    6   52 1
    18    8    9 1
    19    8   34 1
    20    8   35 1
    21    9   10 1
    22    9   11 1
    23    9   36 1
    24   10   37 1
    25   10   38 1
    26   11   12 1
    27   12   22 1
    28   12   13 1
    29   12   39 1
    30   13   18 ar
    31   13   14 ar
    32   14   15 ar
    33   14   40 1
    34   15   16 ar
    35   15   41 1
    36   16   17 ar
    37   16   42 1
    38   17   18 ar
    39   17   43 1
    40   18   19 1
    41   19   20 1
    42   19   44 1
    43   19   45 1
    44   20   21 1
    45   20   46 1
    46   20   47 1
    47   21   26 ar
    48   21   22 ar
    49   22   23 ar
    50   23   24 ar
    51   23   48 1
    52   24   25 ar
    53   24   49 1
    54   25   26 ar
    55   25   50 1
    56   26   51 1
    57   52   53 1
@<TRIPOS>MOLECULE
ZINC01482083
   49    52     0     0     0
SMALL
USER_CHARGES
1-methyl-4-BLAHyloxy-piperidine
@<TRIPOS>ATOM
      1 C1         -2.4951    1.1185   -6.6878 C.3       1 <0>        -0.0427
      2 C2         -1.1196    0.5160   -4.7890 C.3       1 <0>         0.0023
      3 C3         -1.1355   -0.1722   -3.4222 C.3       1 <0>        -0.1568
      4 C4         -2.0300    0.6222   -2.4666 C.3       1 <0>         0.0809
      5 C5         -3.4364    0.7250   -3.0632 C.3       1 <0>        -0.1653
      6 C6         -3.3539    1.3872   -4.4404 C.3       1 <0>         0.0019
      7 O1         -2.0940   -0.0466   -1.2054 O.3       1 <0>        -0.3540
      8 C7         -1.8293    0.7995   -0.0846 C.3       1 <0>         0.1716
      9 C8         -0.4231    1.2409   -0.2198 C.ar      1 <0>        -0.1016
     10 C9          0.4522    0.1636   -0.4725 C.ar      1 <0>        -0.1055
     11 C10         1.7829    0.3660   -0.7401 C.ar      1 <0>        -0.1239
     12 C11         2.2670    1.6616   -0.7536 C.ar      1 <0>        -0.1076
     13 C12         1.4128    2.6961   -0.4763 C.ar      1 <0>        -0.1351
     14 C13         0.0458    2.4821   -0.1760 C.ar      1 <0>        -0.0539
     15 C14        -0.5946    3.8008    0.1973 C.3       1 <0>        -0.0829
     16 C15        -1.9394    4.0393   -0.4293 C.3       1 <0>        -0.0738
     17 C16        -3.0034    3.0351   -0.0390 C.ar      1 <0>        -0.0578
     18 C17        -2.9901    1.7083    0.0332 C.ar      1 <0>        -0.0984
     19 C18        -4.1947    1.0070    0.2561 C.ar      1 <0>        -0.1054
     20 C19        -5.3837    1.6614    0.4560 C.ar      1 <0>        -0.1208
     21 C20        -5.3904    3.0446    0.4481 C.ar      1 <0>        -0.1068
     22 C21        -4.2195    3.7145    0.2078 C.ar      1 <0>        -0.1349
     23 H1         -1.9058    0.4664   -7.3324 H         1 <0>         0.1225
     24 H2         -3.5205    1.1621   -7.0549 H         1 <0>         0.1224
     25 H3         -2.0645    2.1199   -6.6928 H         1 <0>         0.1223
     26 H4         -0.7166    1.5233   -4.6838 H         1 <0>         0.1290
     27 H5         -0.4949   -0.0549   -5.4759 H         1 <0>         0.1330
     28 H6         -0.1219   -0.2123   -3.0232 H         1 <0>         0.1163
     29 H7         -1.5255   -1.1844   -3.5290 H         1 <0>         0.0962
     30 H8         -1.6180    1.6218   -2.3282 H         1 <0>         0.0814
     31 H9         -3.8627   -0.2731   -3.1643 H         1 <0>         0.0955
     32 H10        -4.0668    1.3258   -2.4077 H         1 <0>         0.1148
     33 H11        -2.9404    2.3904   -4.3368 H         1 <0>         0.1283
     34 H12        -4.3520    1.4489   -4.8741 H         1 <0>         0.1317
     35 H13        -1.8628    0.1466    0.7875 H         1 <0>         0.1120
     36 H14         0.0647   -0.8444   -0.4593 H         1 <0>         0.1287
     37 H15         2.4388   -0.4694   -0.9358 H         1 <0>         0.1283
     38 H16         3.3052    1.8552   -0.9795 H         1 <0>         0.1265
     39 H17         1.7940    3.7066   -0.4875 H         1 <0>         0.1227
     40 H18        -0.6981    3.8389    1.2818 H         1 <0>         0.0817
     41 H19         0.0719    4.6068   -0.1098 H         1 <0>         0.0844
     42 H20        -1.8283    4.0197   -1.5135 H         1 <0>         0.0690
     43 H21        -2.2795    5.0328   -0.1371 H         1 <0>         0.0850
     44 H22        -4.1799   -0.0728    0.2699 H         1 <0>         0.1268
     45 H23        -6.2968    1.1074    0.6162 H         1 <0>         0.1286
     46 H24        -6.3057    3.5889    0.6283 H         1 <0>         0.1272
     47 H25        -4.2251    4.7945    0.2073 H         1 <0>         0.1229
     48 N1         -2.4987    0.5613   -5.3194 N.4       1 <0>        -0.3969
     49 H26        -2.8756   -0.3933   -5.3492 H         1 <0>         0.4301
@<TRIPOS>BOND
     1    1   23 1
     2    1   24 1
     3    1   25 1
     4    1   48 1
     5    2    3 1
     6    2   26 1
     7    2   27 1
     8    2   48 1
     9    3    4 1
    10    3   28 1
    11    3   29 1
    12    4    5 1
    13    4    7 1
    14    4   30 1
    15    5    6 1
    16    5   31 1
    17    5   32 1
    18    6   33 1
    19    6   34 1
    20    6   48 1
    21    7    8 1
    22    8   18 1
    23    8    9 1
    24    8   35 1
    25    9   14 ar
    26    9   10 ar
    27   10   11 ar
    28   10   36 1
    29   11   12 ar
    30   11   37 1
    31   12   13 ar
    32   12   38 1
    33   13   14 ar
    34   13   39 1
    35   14   15 1
    36   15   16 1
    37   15   40 1
    38   15   41 1
    39   16   17 1
    40   16   42 1
    41   16   43 1
    42   17   22 ar
    43   17   18 ar
    44   18   19 ar
    45   19   20 ar
    46   19   44 1
    47   20   21 ar
    48   20   45 1
    49   21   22 ar
    50   21   46 1
    51   22   47 1
    52   48   49 1
