@<TRIPOS>MOLECULE
ZINC01656422
   19    18     0     0     0
SMALL
USER_CHARGES

@<TRIPOS>ATOM
      1 C1         -0.0184    1.5028    0.0103 C.3       1 <0>        -0.1833
      2 C2          0.0021   -0.0041    0.0020 C.2       1 <0>         0.4904
      3 O1          1.0661   -0.5992   -0.0113 O.co2     1 <0>        -0.6478
      4 O2         -1.0454   -0.6280    0.0087 O.co2     1 <0>        -0.7565
      5 C3          1.4170    2.0324   -0.0006 C.3       1 <0>         0.0726
      6 C4          1.3963    3.5622    0.0079 C.3       1 <0>         0.0284
      7 H1          0.9660    3.9146    0.9453 H         1 <0>         0.0554
      8 C5          2.8035    4.0844   -0.1266 C.2       1 <0>         0.4883
      9 O3          3.1265    4.7182   -1.1168 O.co2     1 <0>        -0.7106
     10 O4          3.6190    3.8731    0.7548 O.co2     1 <0>        -0.6992
     11 O5          0.6066    4.0339   -1.0858 O.3       1 <0>        -0.5778
     12 C6          2.1224    1.5464   -1.2404 C.2       1 <0>         0.5500
     13 O6          1.6913    1.8411   -2.3422 O.co2     1 <0>        -0.7281
     14 O7          3.1241    0.8584   -1.1418 O.co2     1 <0>        -0.6732
     15 O8          2.1082    1.5590    1.1571 O.3       1 <0>        -0.4984
     16 H2         -0.5455    1.8639   -0.8728 H         1 <0>         0.0624
     17 H3         -0.5286    1.8543    0.9071 H         1 <0>         0.0268
     18 H4          0.9317    3.7577   -1.9536 H         1 <0>         0.3853
     19 H5          1.7088    1.8343    1.9937 H         1 <0>         0.3154
@<TRIPOS>BOND
     1    1    2 1
     2    1    5 1
     3    1   16 1
     4    1   17 1
     5    2    3 2
     6    2    4 1
     7    5    6 1
     8    5   12 1
     9    5   15 1
    10    6    7 1
    11    6    8 1
    12    6   11 1
    13    8    9 2
    14    8   10 1
    15   11   18 1
    16   12   13 2
    17   12   14 1
    18   15   19 1
