@<TRIPOS>MOLECULE
ZINC53166256
   43    46     0     0     0
SMALL
USER_CHARGES

@<TRIPOS>ATOM
      1 C1         -0.0645    1.4412   -0.3732 C.3       1 <0>         0.0245
      2 N1         -0.0216   -0.0161   -0.1927 N.3       1 <0>        -0.5427
      3 C2          0.3881   -0.6883   -1.4329 C.3       1 <0>         0.0399
      4 C3          0.2462   -2.2042   -1.2592 C.3       1 <0>         0.1270
      5 N2          0.9912   -2.6085   -0.0572 N.pl3     1 <0>        -0.5934
      6 C4          0.7333   -1.8856    1.1973 C.3       1 <0>         0.1156
      7 C5          0.8560   -0.3822    0.9269 C.3       1 <0>         0.0395
      8 C6          1.9059   -3.6360   -0.1053 C.2       1 <0>         0.5356
      9 N3          2.1874   -4.1476   -1.2567 N.2       1 <0>        -0.6206
     10 C7          2.9530   -5.2310   -1.5577 C.ar      1 <0>         0.1701
     11 C8          2.4830   -6.1190   -2.5335 C.ar      1 <0>        -0.1161
     12 C9          3.2327   -7.2189   -2.8990 C.ar      1 <0>        -0.1046
     13 C10         4.4585   -7.4578   -2.3086 C.ar      1 <0>        -0.1308
     14 C11         4.9338   -6.5952   -1.3330 C.ar      1 <0>        -0.1099
     15 C12         4.1849   -5.4996   -0.9492 C.ar      1 <0>         0.0928
     16 N4          4.6603   -4.6750    0.0974 N.pl3     1 <0>        -0.6675
     17 C13         3.8314   -4.5378    1.1992 C.2       1 <0>         0.0941
     18 C14         2.5165   -4.0886    1.1665 C.2       1 <0>        -0.2204
     19 C15         1.8382   -4.1107    2.4492 C.2       1 <0>        -0.0854
     20 C16         2.5687   -4.5058    3.5084 C.2       1 <0>        -0.1956
     21 S1          4.1544   -4.8614    2.8004 S.3       1 <0>         0.1912
     22 C17         2.1405   -4.6249    4.9484 C.3       1 <0>         0.1641
     23 O1          1.6299   -5.9381    5.1865 O.3       1 <0>        -0.5666
     24 H1          0.9395    1.8113   -0.5807 H         1 <0>         0.0253
     25 H2         -0.7212    1.6847   -1.2084 H         1 <0>         0.0709
     26 H3         -0.4436    1.9089    0.5355 H         1 <0>         0.0707
     27 H4         -0.2467   -0.3553   -2.2540 H         1 <0>         0.0875
     28 H5          1.4271   -0.4432   -1.6533 H         1 <0>         0.0376
     29 H6         -0.8063   -2.4623   -1.1417 H         1 <0>         0.0713
     30 H7          0.6556   -2.7127   -2.1321 H         1 <0>         0.1047
     31 H8         -0.2724   -2.1131    1.5509 H         1 <0>         0.0773
     32 H9          1.4647   -2.1834    1.9486 H         1 <0>         0.0976
     33 H10         1.8885   -0.1414    0.6736 H         1 <0>         0.0377
     34 H11         0.5606    0.1728    1.8173 H         1 <0>         0.0886
     35 H12         1.5267   -5.9420   -3.0033 H         1 <0>         0.1272
     36 H13         2.8583   -7.8974   -3.6513 H         1 <0>         0.1261
     37 H14         5.0449   -8.3146   -2.6060 H         1 <0>         0.1266
     38 H15         5.8924   -6.7804   -0.8713 H         1 <0>         0.1236
     39 H16         5.5203   -4.2292    0.0463 H         1 <0>         0.4183
     40 H17         0.8015   -3.8247    2.5488 H         1 <0>         0.1460
     41 H18         2.9969   -4.4447    5.5982 H         1 <0>         0.0639
     42 H19         1.3639   -3.8895    5.1585 H         1 <0>         0.0718
     43 H20         1.3347   -6.0866    6.0953 H         1 <0>         0.3866
@<TRIPOS>BOND
     1    1    2 1
     2    1   24 1
     3    1   25 1
     4    1   26 1
     5    2    7 1
     6    2    3 1
     7    3    4 1
     8    3   27 1
     9    3   28 1
    10    4    5 1
    11    4   29 1
    12    4   30 1
    13    5    6 1
    14    5    8 1
    15    6    7 1
    16    6   31 1
    17    6   32 1
    18    7   33 1
    19    7   34 1
    20    8   18 1
    21    8    9 2
    22    9   10 1
    23   10   15 ar
    24   10   11 ar
    25   11   12 ar
    26   11   35 1
    27   12   13 ar
    28   12   36 1
    29   13   14 ar
    30   13   37 1
    31   14   15 ar
    32   14   38 1
    33   15   16 1
    34   16   17 1
    35   16   39 1
    36   17   21 1
    37   17   18 2
    38   18   19 1
    39   19   20 2
    40   19   40 1
    41   20   21 1
    42   20   22 1
    43   22   23 1
    44   22   41 1
    45   22   42 1
    46   23   43 1
@<TRIPOS>MOLECULE
ZINC53166256
   44    47     0     0     0
SMALL
USER_CHARGES

@<TRIPOS>ATOM
      1 C1         -0.0503    1.4404   -0.3738 C.3       1 <0>        -0.0468
      2 N1         -0.0137   -0.0159   -0.1846 N.4       1 <0>        -0.3851
      3 C2          0.4926   -0.6538   -1.4064 C.3       1 <0>        -0.0215
      4 C3          0.4236   -2.1768   -1.2526 C.3       1 <0>         0.1009
      5 N2          1.1441   -2.5548   -0.0269 N.pl3     1 <0>        -0.6150
      6 C4          0.8123   -1.8460    1.2187 C.3       1 <0>         0.0891
      7 C5          0.8630   -0.3387    0.9482 C.3       1 <0>        -0.0221
      8 C6          2.1011   -3.5439   -0.0451 C.2       1 <0>         0.5271
      9 N3          2.4417   -4.0411   -1.1867 N.2       1 <0>        -0.5934
     10 C7          3.2607   -5.0916   -1.4627 C.ar      1 <0>         0.1438
     11 C8          2.8603   -5.9960   -2.4544 C.ar      1 <0>        -0.1034
     12 C9          3.6662   -7.0636   -2.7954 C.ar      1 <0>        -0.1053
     13 C10         4.8803   -7.2535   -2.1643 C.ar      1 <0>        -0.1121
     14 C11         5.2869   -6.3742   -1.1727 C.ar      1 <0>        -0.1118
     15 C12         4.4814   -5.3110   -0.8134 C.ar      1 <0>         0.1053
     16 N4          4.8874   -4.4699    0.2491 N.pl3     1 <0>        -0.6685
     17 C13         4.0171   -4.3690    1.3226 C.2       1 <0>         0.0970
     18 C14         2.6868   -3.9739    1.2462 C.2       1 <0>        -0.2330
     19 C15         1.9674   -4.0264    2.5054 C.2       1 <0>        -0.1010
     20 C16         2.6776   -4.3936    3.5882 C.2       1 <0>        -0.1858
     21 S1          4.2994   -4.6826    2.9336 S.3       1 <0>         0.2189
     22 C17         2.2067   -4.5331    5.0129 C.3       1 <0>         0.1600
     23 O1          1.7425   -5.8666    5.2328 O.3       1 <0>        -0.5661
     24 H1          0.9563    1.8058   -0.5769 H         1 <0>         0.1210
     25 H2         -0.7009    1.6813   -1.2145 H         1 <0>         0.1255
     26 H3         -0.4336    1.9146    0.5297 H         1 <0>         0.1251
     27 H4         -0.1168   -0.3464   -2.2563 H         1 <0>         0.1423
     28 H5          1.5267   -0.3518   -1.5724 H         1 <0>         0.1313
     29 H6         -0.6176   -2.4904   -1.1769 H         1 <0>         0.0891
     30 H7          0.8911   -2.6535   -2.1141 H         1 <0>         0.1420
     31 H8         -0.1896   -2.1263    1.5440 H         1 <0>         0.0942
     32 H9          1.5369   -2.1040    1.9911 H         1 <0>         0.1380
     33 H10         1.8859   -0.0462    0.7110 H         1 <0>         0.1319
     34 H11         0.5265    0.2010    1.8334 H         1 <0>         0.1434
     35 H12         1.9139   -5.8573   -2.9558 H         1 <0>         0.1292
     36 H13         3.3452   -7.7553   -3.5603 H         1 <0>         0.1323
     37 H14         5.5108   -8.0849   -2.4425 H         1 <0>         0.1334
     38 H15         6.2363   -6.5211   -0.6793 H         1 <0>         0.1295
     39 H16         5.7296   -3.9892    0.2272 H         1 <0>         0.4219
     40 H17         0.9172   -3.7832    2.5704 H         1 <0>         0.1434
     41 H18         3.0327   -4.3194    5.6912 H         1 <0>         0.0672
     42 H19         1.3940   -3.8304    5.1974 H         1 <0>         0.0714
     43 H20         1.4234   -6.0289    6.1311 H         1 <0>         0.3916
     44 H21        -0.9456   -0.3526    0.0063 H         1 <0>         0.4248
@<TRIPOS>BOND
     1    1    2 1
     2    1   24 1
     3    1   25 1
     4    1   26 1
     5    2    7 1
     6    2    3 1
     7    2   44 1
     8    3    4 1
     9    3   27 1
    10    3   28 1
    11    4    5 1
    12    4   29 1
    13    4   30 1
    14    5    6 1
    15    5    8 1
    16    6    7 1
    17    6   31 1
    18    6   32 1
    19    7   33 1
    20    7   34 1
    21    8   18 1
    22    8    9 2
    23    9   10 1
    24   10   15 ar
    25   10   11 ar
    26   11   12 ar
    27   11   35 1
    28   12   13 ar
    29   12   36 1
    30   13   14 ar
    31   13   37 1
    32   14   15 ar
    33   14   38 1
    34   15   16 1
    35   16   17 1
    36   16   39 1
    37   17   21 1
    38   17   18 2
    39   18   19 1
    40   19   20 2
    41   19   40 1
    42   20   21 1
    43   20   22 1
    44   22   23 1
    45   22   41 1
    46   22   42 1
    47   23   43 1
@<TRIPOS>MOLECULE
ZINC21986186
   54    57     0     0     0
SMALL
USER_CHARGES

@<TRIPOS>ATOM
      1 C1          0.0365    1.4099   -0.0220 C.ar      1 <0>        -0.0835
      2 C2          1.2297    2.1079   -0.0263 C.ar      1 <0>        -0.1123
      3 C3          2.4307    1.4236   -0.0349 C.ar      1 <0>        -0.0937
      4 C4          2.4386    0.0413   -0.0389 C.ar      1 <0>        -0.1622
      5 C5          1.2455   -0.6567   -0.0337 C.ar      1 <0>        -0.0977
      6 C6          0.0444    0.0276   -0.0265 C.ar      1 <0>        -0.1132
      7 C7          3.7480   -0.7047   -0.0493 C.3       1 <0>         0.0437
      8 N1          4.1823   -0.9510    1.3322 N.4       1 <0>        -0.3840
      9 C8          3.2226   -1.8433    1.9935 C.3       1 <0>        -0.0126
     10 C9          3.6261   -2.0384    3.4566 C.3       1 <0>        -0.1712
     11 C10         5.0257   -2.6572    3.5162 C.3       1 <0>        -0.0875
     12 C11         6.0047   -1.7549    2.7594 C.3       1 <0>        -0.1806
     13 C12         5.5130   -1.5703    1.3222 C.3       1 <0>        -0.0054
     14 C13         5.4683   -2.7818    4.9755 C.3       1 <0>        -0.0244
     15 C14         4.4264   -3.5867    5.7596 C.3       1 <0>        -0.1224
     16 C15         4.3871   -5.0120    5.1981 C.3       1 <0>        -0.1451
     17 C16         5.7714   -5.6023    5.2508 C.2       1 <0>         0.5169
     18 O1          5.9020   -6.8014    5.3723 O.2       1 <0>        -0.4843
     19 N2          6.8629   -4.8272    5.1655 N.am      1 <0>        -0.6745
     20 C17         6.7938   -3.4934    5.0403 C.2       1 <0>         0.5281
     21 O2          7.8183   -2.8484    4.9782 O.2       1 <0>        -0.4755
     22 C18         5.6041   -1.4079    5.5796 C.ar      1 <0>        -0.0672
     23 C19         5.2278   -0.2933    4.8536 C.ar      1 <0>        -0.1484
     24 C20         5.3525    0.9670    5.4078 C.ar      1 <0>        -0.1164
     25 C21         5.8530    1.1126    6.6881 C.ar      1 <0>        -0.1064
     26 C22         6.2285   -0.0020    7.4144 C.ar      1 <0>        -0.1006
     27 C23         6.0998   -1.2626    6.8618 C.ar      1 <0>        -0.0968
     28 H1         -0.9018    1.9445   -0.0107 H         1 <0>         0.1359
     29 H2          1.2235    3.1879   -0.0232 H         1 <0>         0.1363
     30 H3          3.3629    1.9690   -0.0390 H         1 <0>         0.1313
     31 H4          1.2516   -1.7367   -0.0371 H         1 <0>         0.1310
     32 H5         -0.8878   -0.5178   -0.0228 H         1 <0>         0.1362
     33 H6          3.6198   -1.6564   -0.5650 H         1 <0>         0.1364
     34 H7          4.5010   -0.1098   -0.5663 H         1 <0>         0.1380
     35 H8          2.2265   -1.4031    1.9474 H         1 <0>         0.1371
     36 H9          3.2160   -2.8085    1.4871 H         1 <0>         0.1309
     37 H10         3.6327   -1.0737    3.9640 H         1 <0>         0.1187
     38 H11         2.9134   -2.7026    3.9453 H         1 <0>         0.1227
     39 H12         5.0079   -3.6441    3.0540 H         1 <0>         0.1004
     40 H13         6.0607   -0.7843    3.2524 H         1 <0>         0.1244
     41 H14         6.9921   -2.2165    2.7499 H         1 <0>         0.1180
     42 H15         5.4576   -2.5413    0.8301 H         1 <0>         0.1305
     43 H16         6.2078   -0.9286    0.7805 H         1 <0>         0.1357
     44 H17         4.7037   -3.6160    6.8134 H         1 <0>         0.0916
     45 H18         3.4463   -3.1226    5.6491 H         1 <0>         0.1049
     46 H19         3.7086   -5.6205    5.7959 H         1 <0>         0.1250
     47 H20         4.0409   -4.9870    4.1648 H         1 <0>         0.1114
     48 H21         7.7365   -5.2477    5.1956 H         1 <0>         0.4189
     49 H22         4.8368   -0.4071    3.8534 H         1 <0>         0.1335
     50 H23         5.0592    1.8378    4.8403 H         1 <0>         0.1269
     51 H24         5.9511    2.0973    7.1208 H         1 <0>         0.1299
     52 H25         6.6198    0.1118    8.4145 H         1 <0>         0.1310
     53 H26         6.3896   -2.1337    7.4307 H         1 <0>         0.1207
     54 H27         4.2237   -0.0754    1.8319 H         1 <0>         0.4201
@<TRIPOS>BOND
     1    1    6 ar
     2    1    2 ar
     3    1   28 1
     4    2    3 ar
     5    2   29 1
     6    3    4 ar
     7    3   30 1
     8    4    5 ar
     9    4    7 1
    10    5    6 ar
    11    5   31 1
    12    6   32 1
    13    7    8 1
    14    7   33 1
    15    7   34 1
    16    8   13 1
    17    8    9 1
    18    8   54 1
    19    9   10 1
    20    9   35 1
    21    9   36 1
    22   10   11 1
    23   10   37 1
    24   10   38 1
    25   11   12 1
    26   11   14 1
    27   11   39 1
    28   12   13 1
    29   12   40 1
    30   12   41 1
    31   13   42 1
    32   13   43 1
    33   14   20 1
    34   14   15 1
    35   14   22 1
    36   15   16 1
    37   15   44 1
    38   15   45 1
    39   16   17 1
    40   16   46 1
    41   16   47 1
    42   17   18 2
    43   17   19 am
    44   19   20 am
    45   19   48 1
    46   20   21 2
    47   22   27 ar
    48   22   23 ar
    49   23   24 ar
    50   23   49 1
    51   24   25 ar
    52   24   50 1
    53   25   26 ar
    54   25   51 1
    55   26   27 ar
    56   26   52 1
    57   27   53 1
@<TRIPOS>MOLECULE
ZINC21986188
   54    57     0     0     0
SMALL
USER_CHARGES

@<TRIPOS>ATOM
      1 C1         -0.1779    1.5294    0.3297 C.ar      1 <0>        -0.0832
      2 C2          1.0347    2.1846    0.2246 C.ar      1 <0>        -0.1126
      3 C3          2.2076    1.4582    0.1374 C.ar      1 <0>        -0.0937
      4 C4          2.1678    0.0766    0.1558 C.ar      1 <0>        -0.1631
      5 C5          0.9553   -0.5787    0.2618 C.ar      1 <0>        -0.0975
      6 C6         -0.2177    0.1477    0.3475 C.ar      1 <0>        -0.1131
      7 C7          3.4464   -0.7154    0.0598 C.3       1 <0>         0.0444
      8 N1          3.9748   -0.9576    1.4089 N.4       1 <0>        -0.3844
      9 C8          3.0377   -1.8061    2.1547 C.3       1 <0>        -0.0110
     10 C9          3.5435   -1.9949    3.5865 C.3       1 <0>        -0.1764
     11 C10         4.9215   -2.6619    3.5515 C.3       1 <0>        -0.0883
     12 C11         5.8710   -1.8055    2.7088 C.3       1 <0>        -0.1753
     13 C12         5.2790   -1.6237    1.3096 C.3       1 <0>        -0.0066
     14 C13         5.4683   -2.7818    4.9755 C.3       1 <0>        -0.0246
     15 C14         6.8362   -3.4716    4.9424 C.3       1 <0>        -0.1217
     16 C15         6.6482   -4.9039    4.4311 C.3       1 <0>        -0.1452
     17 C16         5.6369   -5.6088    5.2960 C.2       1 <0>         0.5168
     18 O1          5.7105   -6.8105    5.4375 O.2       1 <0>        -0.4843
     19 N2          4.6565   -4.9326    5.9133 N.am      1 <0>        -0.6746
     20 C17         4.5211   -3.6020    5.8108 C.2       1 <0>         0.5282
     21 O2          3.6187   -3.0491    6.4021 O.2       1 <0>        -0.4758
     22 C18         5.6101   -1.4077    5.5778 C.ar      1 <0>        -0.0668
     23 C19         5.2382   -0.2925    4.8505 C.ar      1 <0>        -0.1478
     24 C20         5.3684    0.9680    5.4030 C.ar      1 <0>        -0.1161
     25 C21         5.8700    1.1132    6.6829 C.ar      1 <0>        -0.1062
     26 C22         6.2410   -0.0021    7.4105 C.ar      1 <0>        -0.1007
     27 C23         6.1068   -1.2628    6.8597 C.ar      1 <0>        -0.0991
     28 H1         -1.0939    2.0969    0.4023 H         1 <0>         0.1361
     29 H2          1.0657    3.2641    0.2103 H         1 <0>         0.1364
     30 H3          3.1549    1.9701    0.0546 H         1 <0>         0.1314
     31 H4          0.9242   -1.6581    0.2758 H         1 <0>         0.1306
     32 H5         -1.1651   -0.3642    0.4299 H         1 <0>         0.1362
     33 H6          3.2472   -1.6690   -0.4291 H         1 <0>         0.1363
     34 H7          4.1782   -0.1548   -0.5218 H         1 <0>         0.1385
     35 H8          2.0566   -1.3316    2.1760 H         1 <0>         0.1358
     36 H9          2.9600   -2.7774    1.6663 H         1 <0>         0.1297
     37 H10         3.6213   -1.0241    4.0761 H         1 <0>         0.1215
     38 H11         2.8472   -2.6267    4.1382 H         1 <0>         0.1158
     39 H12         4.8352   -3.6540    3.1083 H         1 <0>         0.1014
     40 H13         5.9972   -0.8307    3.1801 H         1 <0>         0.1220
     41 H14         6.8385   -2.3018    2.6331 H         1 <0>         0.1230
     42 H15         5.1536   -2.5989    0.8391 H         1 <0>         0.1318
     43 H16         5.9527   -1.0145    0.7069 H         1 <0>         0.1370
     44 H17         7.5038   -2.9287    4.2733 H         1 <0>         0.1047
     45 H18         7.2592   -3.4941    5.9468 H         1 <0>         0.0916
     46 H19         6.2925   -4.8792    3.4011 H         1 <0>         0.1118
     47 H20         7.5992   -5.4346    4.4764 H         1 <0>         0.1250
     48 H21         4.0205   -5.4253    6.4552 H         1 <0>         0.4187
     49 H22         4.8464   -0.4059    3.8505 H         1 <0>         0.1338
     50 H23         5.0785    1.8393    4.8345 H         1 <0>         0.1268
     51 H24         5.9723    2.0980    7.1143 H         1 <0>         0.1299
     52 H25         6.6332    0.1114    8.4104 H         1 <0>         0.1311
     53 H26         6.3932   -2.1344    7.4295 H         1 <0>         0.1217
     54 H27         4.0837   -0.0771    1.8894 H         1 <0>         0.4202
@<TRIPOS>BOND
     1    1    6 ar
     2    1    2 ar
     3    1   28 1
     4    2    3 ar
     5    2   29 1
     6    3    4 ar
     7    3   30 1
     8    4    5 ar
     9    4    7 1
    10    5    6 ar
    11    5   31 1
    12    6   32 1
    13    7    8 1
    14    7   33 1
    15    7   34 1
    16    8   13 1
    17    8    9 1
    18    8   54 1
    19    9   10 1
    20    9   35 1
    21    9   36 1
    22   10   11 1
    23   10   37 1
    24   10   38 1
    25   11   12 1
    26   11   14 1
    27   11   39 1
    28   12   13 1
    29   12   40 1
    30   12   41 1
    31   13   42 1
    32   13   43 1
    33   14   20 1
    34   14   15 1
    35   14   22 1
    36   15   16 1
    37   15   44 1
    38   15   45 1
    39   16   17 1
    40   16   46 1
    41   16   47 1
    42   17   18 2
    43   17   19 am
    44   19   20 am
    45   19   48 1
    46   20   21 2
    47   22   27 ar
    48   22   23 ar
    49   23   24 ar
    50   23   49 1
    51   24   25 ar
    52   24   50 1
    53   25   26 ar
    54   25   51 1
    55   26   27 ar
    56   26   52 1
    57   27   53 1
@<TRIPOS>MOLECULE
ZINC05160057
   40    41     0     0     0
SMALL
USER_CHARGES
1-[2-(3-pyrrolidin-1-ylprop-1-ynyl)-1-piperidyl]ethanone
@<TRIPOS>ATOM
      1 C1          7.8536    1.1026    2.1619 C.3       1 <0>        -0.1818
      2 C2          7.1213    2.1564    1.3718 C.2       1 <0>         0.5181
      3 O1          7.3539    2.2993    0.1901 O.2       1 <0>        -0.5360
      4 N1          6.2079    2.9401    1.9784 N.am      1 <0>        -0.6121
      5 C3          5.8368    2.7092    3.3812 C.3       1 <0>         0.0993
      6 C4          6.0130    4.0169    4.1594 C.3       1 <0>        -0.1407
      7 C5          5.2137    5.1265    3.4723 C.3       1 <0>        -0.1226
      8 C6          5.7438    5.3346    2.0518 C.3       1 <0>        -0.1261
      9 C7          5.5646    4.0418    1.2497 C.3       1 <0>         0.2329
     10 H1          6.0271    4.1532    0.2689 H         1 <0>         0.1337
     11 C8          4.1297    3.7558    1.0889 C.1       1 <0>        -0.0464
     12 C9          2.9852    3.5276    0.9607 C.1       1 <0>        -0.2749
     13 C10         1.5503    3.2415    0.7999 C.3       1 <0>         0.1452
     14 C11        -0.0278    1.5530    0.0507 C.3       1 <0>        -0.0091
     15 C12        -0.0119    0.0132    0.0482 C.3       1 <0>        -0.1466
     16 C13         1.4845   -0.3751    0.0574 C.3       1 <0>        -0.1468
     17 C14         2.1679    0.8926    0.6287 C.3       1 <0>        -0.0049
     18 H2          7.4475    1.0584    3.1725 H         1 <0>         0.0859
     19 H3          7.7296    0.1339    1.6778 H         1 <0>         0.0993
     20 H4          8.9135    1.3532    2.2069 H         1 <0>         0.1040
     21 H5          6.4811    1.9405    3.8078 H         1 <0>         0.1023
     22 H6          4.7965    2.3887    3.4360 H         1 <0>         0.0663
     23 H7          7.0684    4.2885    4.1804 H         1 <0>         0.0765
     24 H8          5.6507    3.8857    5.1791 H         1 <0>         0.0833
     25 H9          5.3175    6.0524    4.0379 H         1 <0>         0.0779
     26 H10         4.1621    4.8430    3.4295 H         1 <0>         0.0614
     27 H11         6.8018    5.5937    2.0926 H         1 <0>         0.0893
     28 H12         5.1897    6.1408    1.5711 H         1 <0>         0.0848
     29 H13         1.0726    4.0657    0.2702 H         1 <0>         0.1504
     30 H14         1.0907    3.1255    1.7814 H         1 <0>         0.1444
     31 H15        -0.5472    1.9204   -0.8343 H         1 <0>         0.1365
     32 H16        -0.5207    1.9178    0.9519 H         1 <0>         0.1335
     33 H17        -0.5080   -0.3717    0.9391 H         1 <0>         0.1040
     34 H18        -0.4979   -0.3687   -0.8496 H         1 <0>         0.1061
     35 H19         1.6566   -1.2325    0.7080 H         1 <0>         0.1158
     36 H20         1.8359   -0.5802   -0.9538 H         1 <0>         0.0982
     37 H21         2.0949    0.9121    1.7160 H         1 <0>         0.1315
     38 H22         3.2101    0.9431    0.3134 H         1 <0>         0.1315
     39 N2          1.3778    1.9738    0.0285 N.4       1 <0>        -0.3970
     40 H23         1.6796    2.1261   -0.9410 H         1 <0>         0.4329
@<TRIPOS>BOND
     1    1    2 1
     2    1   18 1
     3    1   19 1
     4    1   20 1
     5    2    3 2
     6    2    4 am
     7    4    9 1
     8    4    5 1
     9    5    6 1
    10    5   21 1
    11    5   22 1
    12    6    7 1
    13    6   23 1
    14    6   24 1
    15    7    8 1
    16    7   25 1
    17    7   26 1
    18    8    9 1
    19    8   27 1
    20    8   28 1
    21    9   10 1
    22    9   11 1
    23   11   12 3
    24   12   13 1
    25   13   29 1
    26   13   30 1
    27   13   39 1
    28   14   15 1
    29   14   31 1
    30   14   32 1
    31   14   39 1
    32   15   16 1
    33   15   33 1
    34   15   34 1
    35   16   17 1
    36   16   35 1
    37   16   36 1
    38   17   37 1
    39   17   38 1
    40   17   39 1
    41   39   40 1
@<TRIPOS>MOLECULE
ZINC05160067
   40    41     0     0     0
SMALL
USER_CHARGES
1-[2-(3-pyrrolidin-1-ylprop-1-ynyl)-1-piperidyl]ethanone
@<TRIPOS>ATOM
      1 C1         -4.6353    2.4818   -1.2400 C.3       1 <0>        -0.1852
      2 C2         -4.0129    2.0178    0.0517 C.2       1 <0>         0.5251
      3 O1         -4.5822    2.2149    1.1043 O.2       1 <0>        -0.5553
      4 N1         -2.8236    1.3839    0.0372 N.am      1 <0>        -0.6089
      5 C3         -2.1802    1.0285   -1.2350 C.3       1 <0>         0.0978
      6 C4         -0.7561    1.5929   -1.2419 C.3       1 <0>        -0.1410
      7 C5         -0.0098    1.0987   -0.0005 C.3       1 <0>        -0.1231
      8 C6         -0.7222    1.5998    1.2579 C.3       1 <0>        -0.1268
      9 C7         -2.1457    1.0355    1.2932 C.3       1 <0>         0.2445
     10 H1         -2.1065   -0.0487    1.3988 H         1 <0>         0.1072
     11 C8         -2.8815    1.6156    2.4285 C.1       1 <0>        -0.0380
     12 C9         -3.4684    2.0782    3.3340 C.1       1 <0>        -0.2555
     13 C10        -4.2042    2.6583    4.4692 C.3       1 <0>         0.1520
     14 C11        -2.0858    2.6746    5.6694 C.3       1 <0>         0.0005
     15 C12        -1.6801    2.7397    7.1632 C.3       1 <0>        -0.1474
     16 C13        -2.9315    3.3501    7.8351 C.3       1 <0>        -0.1456
     17 C14        -4.0902    3.0644    6.8619 C.3       1 <0>        -0.0105
     18 H2         -4.0304    2.1377   -2.0789 H         1 <0>         0.0882
     19 H3         -5.6419    2.0726   -1.3259 H         1 <0>         0.0988
     20 H4         -4.6837    3.5707   -1.2495 H         1 <0>         0.0999
     21 H5         -2.7465    1.4556   -2.0627 H         1 <0>         0.1025
     22 H6         -2.1440   -0.0560   -1.3382 H         1 <0>         0.0809
     23 H7         -0.7964    2.6821   -1.2326 H         1 <0>         0.0716
     24 H8         -0.2353    1.2553   -2.1379 H         1 <0>         0.0875
     25 H9          0.0086    0.0089    0.0022 H         1 <0>         0.0724
     26 H10         1.0115    1.4791   -0.0154 H         1 <0>         0.0796
     27 H11        -0.1773    1.2671    2.1413 H         1 <0>         0.0856
     28 H12        -0.7628    2.6890    1.2436 H         1 <0>         0.0747
     29 H13        -4.2379    3.7427    4.3644 H         1 <0>         0.1381
     30 H14        -5.2199    2.2629    4.4840 H         1 <0>         0.1433
     31 H15        -1.5130    1.9076    5.1482 H         1 <0>         0.1332
     32 H16        -1.9538    3.6457    5.1922 H         1 <0>         0.1288
     33 H17        -0.8142    3.3876    7.2999 H         1 <0>         0.1139
     34 H18        -1.4814    1.7413    7.5528 H         1 <0>         0.0965
     35 H19        -2.8041    4.4246    7.9666 H         1 <0>         0.1029
     36 H20        -3.1172    2.8700    8.7959 H         1 <0>         0.1042
     37 H21        -4.5183    4.0025    6.5086 H         1 <0>         0.1316
     38 H22        -4.8550    2.4684    7.3599 H         1 <0>         0.1336
     39 N2         -3.5103    2.3145    5.7468 N.4       1 <0>        -0.3937
     40 H23        -3.6045    1.3069    5.9204 H         1 <0>         0.4358
@<TRIPOS>BOND
     1    1    2 1
     2    1   18 1
     3    1   19 1
     4    1   20 1
     5    2    3 2
     6    2    4 am
     7    4    9 1
     8    4    5 1
     9    5    6 1
    10    5   21 1
    11    5   22 1
    12    6    7 1
    13    6   23 1
    14    6   24 1
    15    7    8 1
    16    7   25 1
    17    7   26 1
    18    8    9 1
    19    8   27 1
    20    8   28 1
    21    9   10 1
    22    9   11 1
    23   11   12 3
    24   12   13 1
    25   13   29 1
    26   13   30 1
    27   13   39 1
    28   14   15 1
    29   14   31 1
    30   14   32 1
    31   14   39 1
    32   15   16 1
    33   15   33 1
    34   15   34 1
    35   16   17 1
    36   16   35 1
    37   16   36 1
    38   17   37 1
    39   17   38 1
    40   17   39 1
    41   39   40 1
@<TRIPOS>MOLECULE
ZINC00968273
   54    56     0     0     0
SMALL
USER_CHARGES

@<TRIPOS>ATOM
      1 C1          0.0762    1.3452   -0.3150 C.ar      1 <0>        -0.1098
      2 C2          1.2713    2.0393   -0.3470 C.ar      1 <0>        -0.1122
      3 C3          2.4688    1.3595   -0.2265 C.ar      1 <0>        -0.1247
      4 C4          2.4714   -0.0144   -0.0737 C.ar      1 <0>        -0.1244
      5 C5          1.2763   -0.7084   -0.0408 C.ar      1 <0>        -0.1067
      6 C6          0.0788   -0.0287   -0.1627 C.ar      1 <0>        -0.1104
      7 C7          3.7770   -0.7557    0.0566 C.3       1 <0>         0.1934
      8 C8          4.1663   -0.8472    1.5335 C.3       1 <0>        -0.1754
      9 C9          4.2922    0.5619    2.1160 C.3       1 <0>        -0.0183
     10 N1          4.8004    0.4794    3.4918 N.4       1 <0>        -0.3797
     11 C10         3.8171   -0.2117    4.3344 C.3       1 <0>        -0.0117
     12 C11         4.3758   -0.3722    5.7499 C.3       1 <0>        -0.1455
     13 C12         4.6703    1.0114    6.3365 C.3       1 <0>        -0.1395
     14 C13         5.6396    1.7518    5.4105 C.3       1 <0>        -0.1459
     15 C14         5.0341    1.8336    4.0076 C.3       1 <0>        -0.0078
     16 C15         3.6229   -2.1650   -0.5185 C.3       1 <0>        -0.0695
     17 C16         4.9235   -2.9444   -0.3139 C.3       1 <0>        -0.1134
     18 C17         4.7694   -4.3538   -0.8890 C.3       1 <0>        -0.1214
     19 C18         4.4590   -4.2632   -2.3844 C.3       1 <0>        -0.1230
     20 C19         3.1584   -3.4839   -2.5891 C.3       1 <0>        -0.1222
     21 C20         3.3125   -2.0745   -2.0139 C.3       1 <0>        -0.1104
     22 O1          4.7953   -0.0567   -0.6620 O.3       1 <0>        -0.5340
     23 H1         -0.8596    1.8768   -0.4046 H         1 <0>         0.1279
     24 H2          1.2693    3.1127   -0.4664 H         1 <0>         0.1271
     25 H3          3.4025    1.9017   -0.2522 H         1 <0>         0.1173
     26 H4          1.2783   -1.7818    0.0782 H         1 <0>         0.1281
     27 H5         -0.8549   -0.5710   -0.1374 H         1 <0>         0.1286
     28 H6          3.3994   -1.3982    2.0779 H         1 <0>         0.1002
     29 H7          5.1207   -1.3654    1.6262 H         1 <0>         0.1036
     30 H8          4.9830    1.1460    1.5079 H         1 <0>         0.1276
     31 H9          3.3141    1.0430    2.1182 H         1 <0>         0.1348
     32 H10         2.8971    0.3717    4.3714 H         1 <0>         0.1281
     33 H11         3.6061   -1.1949    3.9139 H         1 <0>         0.1302
     34 H12         3.6435   -0.8840    6.3743 H         1 <0>         0.1121
     35 H13         5.2958   -0.9557    5.7140 H         1 <0>         0.0878
     36 H14         3.7423    1.5769    6.4201 H         1 <0>         0.0817
     37 H15         5.1212    0.9007    7.3227 H         1 <0>         0.0947
     38 H16         5.8107    2.7583    5.7923 H         1 <0>         0.1126
     39 H17         6.5858    1.2124    5.3676 H         1 <0>         0.0879
     40 H18         5.7215    2.3604    3.3457 H         1 <0>         0.1299
     41 H19         4.0881    2.3734    4.0515 H         1 <0>         0.1281
     42 H20         2.8077   -2.6784   -0.0086 H         1 <0>         0.0861
     43 H21         5.7387   -2.4310   -0.8237 H         1 <0>         0.0745
     44 H22         5.1447   -3.0089    0.7515 H         1 <0>         0.0559
     45 H23         5.6960   -4.9090   -0.7432 H         1 <0>         0.0650
     46 H24         3.9542   -4.8671   -0.3791 H         1 <0>         0.0613
     47 H25         5.2742   -3.7499   -2.8943 H         1 <0>         0.0637
     48 H26         4.3492   -5.2673   -2.7942 H         1 <0>         0.0643
     49 H27         2.9372   -3.4194   -3.6544 H         1 <0>         0.0658
     50 H28         2.3431   -3.9973   -2.0792 H         1 <0>         0.0605
     51 H29         2.3859   -1.5193   -2.1597 H         1 <0>         0.0639
     52 H30         4.1277   -1.5612   -2.5238 H         1 <0>         0.0738
     53 H31         4.9474    0.8461   -0.3505 H         1 <0>         0.3677
     54 H32         5.6677   -0.0362    3.4986 H         1 <0>         0.4220
@<TRIPOS>BOND
     1    1    6 ar
     2    1    2 ar
     3    1   23 1
     4    2    3 ar
     5    2   24 1
     6    3    4 ar
     7    3   25 1
     8    4    5 ar
     9    4    7 1
    10    5    6 ar
    11    5   26 1
    12    6   27 1
    13    7    8 1
    14    7   16 1
    15    7   22 1
    16    8    9 1
    17    8   28 1
    18    8   29 1
    19    9   10 1
    20    9   30 1
    21    9   31 1
    22   10   15 1
    23   10   11 1
    24   10   54 1
    25   11   12 1
    26   11   32 1
    27   11   33 1
    28   12   13 1
    29   12   34 1
    30   12   35 1
    31   13   14 1
    32   13   36 1
    33   13   37 1
    34   14   15 1
    35   14   38 1
    36   14   39 1
    37   15   40 1
    38   15   41 1
    39   16   21 1
    40   16   17 1
    41   16   42 1
    42   17   18 1
    43   17   43 1
    44   17   44 1
    45   18   19 1
    46   18   45 1
    47   18   46 1
    48   19   20 1
    49   19   47 1
    50   19   48 1
    51   20   21 1
    52   20   49 1
    53   20   50 1
    54   21   51 1
    55   21   52 1
    56   22   53 1
@<TRIPOS>MOLECULE
ZINC00968274
   54    56     0     0     0
SMALL
USER_CHARGES

@<TRIPOS>ATOM
      1 C1         -0.1352    1.1091   -0.4300 C.ar      1 <0>        -0.1083
      2 C2          0.7513    1.5676    0.5264 C.ar      1 <0>        -0.1143
      3 C3          1.9959    0.9797    0.6535 C.ar      1 <0>        -0.0998
      4 C4          2.3539   -0.0669   -0.1755 C.ar      1 <0>        -0.1232
      5 C5          1.4671   -0.5260   -1.1313 C.ar      1 <0>        -0.1161
      6 C6          0.2229    0.0628   -1.2594 C.ar      1 <0>        -0.1180
      7 C7          3.7112   -0.7071   -0.0376 C.3       1 <0>         0.1941
      8 C8          4.2610   -1.0411   -1.4258 C.3       1 <0>        -0.1780
      9 C9          5.5803   -1.8024   -1.2822 C.3       1 <0>        -0.0120
     10 N1          6.1082   -2.1230   -2.6150 N.4       1 <0>        -0.3820
     11 C10         5.1901   -3.0450   -3.2945 C.3       1 <0>        -0.0137
     12 C11         5.6935   -3.3187   -4.7133 C.3       1 <0>        -0.1453
     13 C12         7.0889   -3.9455   -4.6421 C.3       1 <0>        -0.1393
     14 C13         8.0196   -3.0086   -3.8667 C.3       1 <0>        -0.1461
     15 C14         7.4301   -2.7465   -2.4792 C.3       1 <0>        -0.0068
     16 C15         3.5881   -1.9915    0.7847 C.3       1 <0>        -0.0706
     17 C16         2.6851   -2.9836    0.0490 C.3       1 <0>        -0.1231
     18 C17         2.5620   -4.2679    0.8713 C.3       1 <0>        -0.1182
     19 C18         1.9553   -3.9425    2.2376 C.3       1 <0>        -0.1243
     20 C19         2.8582   -2.9504    2.9734 C.3       1 <0>        -0.1220
     21 C20         2.9813   -1.6660    2.1511 C.3       1 <0>        -0.1116
     22 O1          4.5997    0.1973    0.6217 O.3       1 <0>        -0.5458
     23 H1         -1.1093    1.5654   -0.5263 H         1 <0>         0.1267
     24 H2          0.4716    2.3853    1.1741 H         1 <0>         0.1275
     25 H3          2.6888    1.3384    1.4003 H         1 <0>         0.1310
     26 H4          1.7469   -1.3435   -1.7792 H         1 <0>         0.1182
     27 H5         -0.4698   -0.2957   -2.0064 H         1 <0>         0.1254
     28 H6          3.5413   -1.6593   -1.9625 H         1 <0>         0.1009
     29 H7          4.4323   -0.1185   -1.9803 H         1 <0>         0.0931
     30 H8          6.3000   -1.1842   -0.7455 H         1 <0>         0.1386
     31 H9          5.4090   -2.7250   -0.7277 H         1 <0>         0.1331
     32 H10         5.1407   -3.9821   -2.7399 H         1 <0>         0.1289
     33 H11         4.1968   -2.5988   -3.3416 H         1 <0>         0.1284
     34 H12         5.0115   -4.0048   -5.2155 H         1 <0>         0.1118
     35 H13         5.7431   -2.3822   -5.2689 H         1 <0>         0.0873
     36 H14         7.0311   -4.9066   -4.1312 H         1 <0>         0.0818
     37 H15         7.4754   -4.0903   -5.6509 H         1 <0>         0.0943
     38 H16         9.0003   -3.4732   -3.7636 H         1 <0>         0.1124
     39 H17         8.1175   -2.0657   -4.4046 H         1 <0>         0.0873
     40 H18         8.0904   -2.0799   -1.9244 H         1 <0>         0.1304
     41 H19         7.3329   -3.6899   -1.9420 H         1 <0>         0.1280
     42 H20         4.5759   -2.4315    0.9214 H         1 <0>         0.0782
     43 H21         1.6973   -2.5435   -0.0877 H         1 <0>         0.0801
     44 H22         3.1174   -3.2154   -0.9244 H         1 <0>         0.0528
     45 H23         1.9188   -4.9747    0.3471 H         1 <0>         0.0666
     46 H24         3.5499   -4.7079    1.0079 H         1 <0>         0.0602
     47 H25         0.9674   -3.5024    2.1010 H         1 <0>         0.0638
     48 H26         1.8676   -4.8575    2.8234 H         1 <0>         0.0656
     49 H27         2.4259   -2.7186    3.9468 H         1 <0>         0.0668
     50 H28         3.8460   -3.3904    3.1100 H         1 <0>         0.0608
     51 H29         3.6246   -0.9593    2.6753 H         1 <0>         0.0722
     52 H30         1.9935   -1.2260    2.0144 H         1 <0>         0.0681
     53 H31         4.7254    1.0351    0.1555 H         1 <0>         0.3829
     54 H32         6.1913   -1.2751   -3.1557 H         1 <0>         0.4210
@<TRIPOS>BOND
     1    1    6 ar
     2    1    2 ar
     3    1   23 1
     4    2    3 ar
     5    2   24 1
     6    3    4 ar
     7    3   25 1
     8    4    5 ar
     9    4    7 1
    10    5    6 ar
    11    5   26 1
    12    6   27 1
    13    7    8 1
    14    7   16 1
    15    7   22 1
    16    8    9 1
    17    8   28 1
    18    8   29 1
    19    9   10 1
    20    9   30 1
    21    9   31 1
    22   10   15 1
    23   10   11 1
    24   10   54 1
    25   11   12 1
    26   11   32 1
    27   11   33 1
    28   12   13 1
    29   12   34 1
    30   12   35 1
    31   13   14 1
    32   13   36 1
    33   13   37 1
    34   14   15 1
    35   14   38 1
    36   14   39 1
    37   15   40 1
    38   15   41 1
    39   16   21 1
    40   16   17 1
    41   16   42 1
    42   17   18 1
    43   17   43 1
    44   17   44 1
    45   18   19 1
    46   18   45 1
    47   18   46 1
    48   19   20 1
    49   19   47 1
    50   19   48 1
    51   20   21 1
    52   20   49 1
    53   20   50 1
    54   21   51 1
    55   21   52 1
    56   22   53 1
@<TRIPOS>MOLECULE
ZINC22055590
   40    43     0     0     0
SMALL
USER_CHARGES
2-methyl-4-piperazin-1-yl-10H-thieno[2,3-b][1,5]benzodiazepine
@<TRIPOS>ATOM
      1 C1          2.9000    6.4909    5.1733 C.3       1 <0>        -0.0794
      2 C2          2.5815    5.9866    3.7894 C.2       1 <0>        -0.1487
      3 C3          1.6183    6.4056    2.9486 C.2       1 <0>        -0.1359
      4 C4          1.5178    5.7559    1.6564 C.2       1 <0>        -0.2219
      5 C5          2.4395    4.7328    1.4394 C.2       1 <0>         0.1326
      6 S1          3.3891    4.6898    2.8707 S.3       1 <0>         0.1175
      7 N1          2.5084    3.9288    0.3158 N.pl3     1 <0>        -0.6794
      8 C6          1.3322    3.2144   -0.0160 C.ar      1 <0>         0.1140
      9 C7          1.3818    1.8365   -0.0931 C.ar      1 <0>        -0.1132
     10 C8          0.2296    1.1109   -0.3542 C.ar      1 <0>        -0.1125
     11 C9         -0.9694    1.7704   -0.5428 C.ar      1 <0>        -0.1069
     12 C10        -1.0287    3.1477   -0.4744 C.ar      1 <0>        -0.1040
     13 C11         0.1275    3.8975   -0.2233 C.ar      1 <0>         0.1419
     14 N2          0.0194    5.2532   -0.2098 N.2       1 <0>        -0.5947
     15 C12         0.5397    6.1123    0.6013 C.2       1 <0>         0.5251
     16 N3          0.1661    7.4315    0.4793 N.pl3     1 <0>        -0.6143
     17 C13        -0.9003    7.8310   -0.4516 C.3       1 <0>         0.0945
     18 C14        -0.3858    8.9721   -1.3278 C.3       1 <0>        -0.0147
     19 N4          0.1296   10.0500   -0.4732 N.4       1 <0>        -0.5347
     20 C15         1.2772    9.5959    0.3235 C.3       1 <0>        -0.0188
     21 C16         0.8267    8.4796    1.2719 C.3       1 <0>         0.0827
     22 H1          2.2045    7.3011    5.4374 H         1 <0>         0.0840
     23 H2          3.9319    6.8713    5.1964 H         1 <0>         0.0821
     24 H3          2.7962    5.6683    5.8962 H         1 <0>         0.0829
     25 H4          0.9422    7.2004    3.2271 H         1 <0>         0.1391
     26 H5          3.4417    3.8721   -0.2636 H         1 <0>         0.4455
     27 H6          2.3208    1.3226    0.0501 H         1 <0>         0.1291
     28 H7          0.2702    0.0334   -0.4145 H         1 <0>         0.1328
     29 H8         -1.8675    1.2043   -0.7411 H         1 <0>         0.1317
     30 H9         -1.9729    3.6514   -0.6202 H         1 <0>         0.1285
     31 H10        -1.1776    6.9729   -1.0815 H         1 <0>         0.1410
     32 H11        -1.7789    8.1660    0.1193 H         1 <0>         0.0882
     33 H12         0.4208    8.6008   -1.9770 H         1 <0>         0.1293
     34 H13        -1.2082    9.3572   -1.9486 H         1 <0>         0.1436
     35 H14         0.4513   10.8938   -1.1013 H         1 <0>         0.4556
     36 H15         2.0613    9.2147   -0.3472 H         1 <0>         0.1293
     37 H16         1.6735   10.4385    0.9091 H         1 <0>         0.1449
     38 H17         0.1191    8.8797    2.0130 H         1 <0>         0.0936
     39 H18         1.6982    8.0530    1.7901 H         1 <0>         0.1398
     40 H19        -0.6625   10.3846    0.2128 H         1 <0>         0.4497
@<TRIPOS>BOND
     1    1    2 1
     2    1   22 1
     3    1   23 1
     4    1   24 1
     5    2    6 1
     6    2    3 2
     7    3    4 1
     8    3   25 1
     9    4   15 1
    10    4    5 2
    11    5    6 1
    12    5    7 1
    13    7    8 1
    14    7   26 1
    15    8   13 ar
    16    8    9 ar
    17    9   10 ar
    18    9   27 1
    19   10   11 ar
    20   10   28 1
    21   11   12 ar
    22   11   29 1
    23   12   13 ar
    24   12   30 1
    25   13   14 1
    26   14   15 2
    27   15   16 1
    28   16   21 1
    29   16   17 1
    30   17   18 1
    31   17   31 1
    32   17   32 1
    33   18   19 1
    34   18   33 1
    35   18   34 1
    36   19   20 1
    37   19   35 1
    38   19   40 1
    39   20   21 1
    40   20   36 1
    41   20   37 1
    42   21   38 1
    43   21   39 1
@<TRIPOS>MOLECULE
ZINC22055590
   39    42     0     0     0
SMALL
USER_CHARGES
2-methyl-4-piperazin-1-yl-10H-thieno[2,3-b][1,5]benzodiazepine
@<TRIPOS>ATOM
      1 C1          2.9000    6.4909    5.1733 C.3       1 <0>        -0.0731
      2 C2          2.5815    5.9866    3.7894 C.2       1 <0>        -0.1595
      3 C3          1.6183    6.4056    2.9486 C.2       1 <0>        -0.1197
      4 C4          1.5178    5.7559    1.6564 C.2       1 <0>        -0.2090
      5 C5          2.4395    4.7328    1.4394 C.2       1 <0>         0.1289
      6 S1          3.3891    4.6898    2.8707 S.3       1 <0>         0.0909
      7 N1          2.5084    3.9288    0.3158 N.pl3     1 <0>        -0.6777
      8 C6          1.3322    3.2144   -0.0160 C.ar      1 <0>         0.1017
      9 C7          1.3818    1.8365   -0.0931 C.ar      1 <0>        -0.1111
     10 C8          0.2296    1.1109   -0.3542 C.ar      1 <0>        -0.1312
     11 C9         -0.9694    1.7704   -0.5428 C.ar      1 <0>        -0.1060
     12 C10        -1.0287    3.1477   -0.4744 C.ar      1 <0>        -0.1167
     13 C11         0.1275    3.8975   -0.2233 C.ar      1 <0>         0.1681
     14 N2          0.0194    5.2532   -0.2098 N.2       1 <0>        -0.6216
     15 C12         0.5397    6.1123    0.6013 C.2       1 <0>         0.5340
     16 N3          0.1661    7.4315    0.4793 N.pl3     1 <0>        -0.5933
     17 C13        -0.9003    7.8310   -0.4516 C.3       1 <0>         0.1226
     18 C14        -0.3858    8.9721   -1.3278 C.3       1 <0>         0.0334
     19 N4          0.1296   10.0500   -0.4732 N.3       1 <0>        -0.6705
     20 C15         1.2772    9.5959    0.3235 C.3       1 <0>         0.0314
     21 C16         0.8267    8.4796    1.2719 C.3       1 <0>         0.1111
     22 H1          2.2045    7.3011    5.4374 H         1 <0>         0.0832
     23 H2          3.9319    6.8713    5.1964 H         1 <0>         0.0780
     24 H3          2.7962    5.6683    5.8962 H         1 <0>         0.0776
     25 H4          0.9422    7.2004    3.2271 H         1 <0>         0.1418
     26 H5          3.4417    3.8721   -0.2636 H         1 <0>         0.4407
     27 H6          2.3208    1.3226    0.0501 H         1 <0>         0.1233
     28 H7          0.2702    0.0334   -0.4145 H         1 <0>         0.1260
     29 H8         -1.8675    1.2043   -0.7411 H         1 <0>         0.1256
     30 H9         -1.9729    3.6514   -0.6202 H         1 <0>         0.1265
     31 H10        -1.1776    6.9729   -1.0815 H         1 <0>         0.1044
     32 H11        -1.7789    8.1660    0.1193 H         1 <0>         0.0695
     33 H12         0.4208    8.6008   -1.9770 H         1 <0>         0.0349
     34 H13        -1.2082    9.3572   -1.9486 H         1 <0>         0.0894
     35 H14         2.0613    9.2147   -0.3472 H         1 <0>         0.0352
     36 H15         1.6735   10.4385    0.9091 H         1 <0>         0.0904
     37 H16         0.1191    8.8797    2.0130 H         1 <0>         0.0755
     38 H17         1.6982    8.0530    1.7901 H         1 <0>         0.0999
     39 H18         0.4513   10.8938   -1.1013 H         1 <0>         0.3455
@<TRIPOS>BOND
     1    1    2 1
     2    1   22 1
     3    1   23 1
     4    1   24 1
     5    2    6 1
     6    2    3 2
     7    3    4 1
     8    3   25 1
     9    4   15 1
    10    4    5 2
    11    5    6 1
    12    5    7 1
    13    7    8 1
    14    7   26 1
    15    8   13 ar
    16    8    9 ar
    17    9   10 ar
    18    9   27 1
    19   10   11 ar
    20   10   28 1
    21   11   12 ar
    22   11   29 1
    23   12   13 ar
    24   12   30 1
    25   13   14 1
    26   14   15 2
    27   15   16 1
    28   16   21 1
    29   16   17 1
    30   17   18 1
    31   17   31 1
    32   17   32 1
    33   18   19 1
    34   18   33 1
    35   18   34 1
    36   19   20 1
    37   19   39 1
    38   20   21 1
    39   20   35 1
    40   20   36 1
    41   21   37 1
    42   21   38 1
@<TRIPOS>MOLECULE
ZINC03936683
   54    58     0     0     0
SMALL
USER_CHARGES

@<TRIPOS>ATOM
      1 C1         -0.0161    1.3791    0.0139 C.ar      1 <0>        -0.1072
      2 C2          0.0881    0.1354    0.6081 C.ar      1 <0>        -0.1195
      3 C3          1.2942   -0.5398    0.5913 C.ar      1 <0>        -0.1025
      4 C4          2.3960    0.0285   -0.0201 C.ar      1 <0>        -0.1067
      5 C5          2.2916    1.2719   -0.6151 C.ar      1 <0>        -0.0987
      6 C6          1.0859    1.9477   -0.5971 C.ar      1 <0>        -0.1176
      7 C7          3.7112   -0.7071   -0.0376 C.3       1 <0>         0.2465
      8 H1          4.4779   -0.0690   -0.4769 H         1 <0>         0.1178
      9 C8          4.1045   -1.0655    1.3735 C.ar      1 <0>        -0.0920
     10 C9          4.5143   -0.0380    2.2125 C.ar      1 <0>        -0.1011
     11 C10         4.8763   -0.3016    3.5174 C.ar      1 <0>        -0.1131
     12 C11         4.8295   -1.5990    3.9930 C.ar      1 <0>        -0.1088
     13 C12         4.4268   -2.6211    3.1592 C.ar      1 <0>        -0.1180
     14 C13         4.0668   -2.3593    1.8427 C.ar      1 <0>        -0.0760
     15 C14         3.6633   -3.5285    0.9836 C.3       1 <0>        -0.0959
     16 C15         2.8595   -3.0609   -0.2287 C.3       1 <0>         0.0988
     17 N1          3.5762   -1.9293   -0.8374 N.am      1 <0>        -0.5753
     18 C16         4.0877   -2.0127   -2.0815 C.2       1 <0>         0.6539
     19 O1          4.6747   -1.0635   -2.5620 O.2       1 <0>        -0.5591
     20 O2          3.9482   -3.1478   -2.7920 O.3       1 <0>        -0.3491
     21 C17         4.5151   -3.1660   -4.1036 C.3       1 <0>         0.0967
     22 H2          4.5010   -2.1594   -4.5216 H         1 <0>         0.1228
     23 C18         5.9577   -3.6714   -4.0318 C.3       1 <0>        -0.0270
     24 N2          6.1041   -4.8865   -4.8366 N.4       1 <0>        -0.3731
     25 C19         5.8050   -4.6120   -6.2441 C.3       1 <0>        -0.0108
     26 C20         4.3573   -4.1377   -6.3893 C.3       1 <0>        -0.1360
     27 C21         3.7020   -4.1071   -5.0022 C.3       1 <0>        -0.0973
     28 C22         3.7681   -5.5203   -4.4080 C.3       1 <0>        -0.1345
     29 C23         5.2396   -5.9520   -4.3237 C.3       1 <0>        -0.0080
     30 H3         -0.9595    1.9047    0.0231 H         1 <0>         0.1263
     31 H4         -0.7727   -0.3087    1.0858 H         1 <0>         0.1258
     32 H5          1.3758   -1.5113    1.0562 H         1 <0>         0.1232
     33 H6          3.1526    1.7161   -1.0925 H         1 <0>         0.1247
     34 H7          1.0044    2.9193   -1.0616 H         1 <0>         0.1271
     35 H8          4.5496    0.9754    1.8408 H         1 <0>         0.1252
     36 H9          5.1952    0.5021    4.1646 H         1 <0>         0.1288
     37 H10         5.1079   -1.8116    5.0146 H         1 <0>         0.1274
     38 H11         4.3905   -3.6338    3.5328 H         1 <0>         0.1247
     39 H12         4.5586   -4.0478    0.6415 H         1 <0>         0.0793
     40 H13         3.0556   -4.2143    1.5739 H         1 <0>         0.0939
     41 H14         2.7730   -3.8739   -0.9496 H         1 <0>         0.0977
     42 H15         1.8668   -2.7410    0.0882 H         1 <0>         0.0907
     43 H16         6.6298   -2.9023   -4.4126 H         1 <0>         0.1437
     44 H17         6.2128   -3.8912   -2.9952 H         1 <0>         0.1372
     45 H18         6.4779   -3.8377   -6.6124 H         1 <0>         0.1331
     46 H19         5.9481   -5.5210   -6.8282 H         1 <0>         0.1353
     47 H20         4.3424   -3.1366   -6.8203 H         1 <0>         0.1049
     48 H21         3.8112   -4.8242   -7.0363 H         1 <0>         0.1117
     49 H22         2.6711   -3.7610   -5.0768 H         1 <0>         0.1268
     50 H23         3.3318   -5.5173   -3.4091 H         1 <0>         0.1060
     51 H24         3.2181   -6.2112   -5.0469 H         1 <0>         0.1046
     52 H25         5.3858   -6.8540   -4.9180 H         1 <0>         0.1332
     53 H26         5.4982   -6.1592   -3.2853 H         1 <0>         0.1301
     54 H27         7.0625   -5.1961   -4.7760 H         1 <0>         0.4295
@<TRIPOS>BOND
     1    1    6 ar
     2    1    2 ar
     3    1   30 1
     4    2    3 ar
     5    2   31 1
     6    3    4 ar
     7    3   32 1
     8    4    5 ar
     9    4    7 1
    10    5    6 ar
    11    5   33 1
    12    6   34 1
    13    7    8 1
    14    7   17 1
    15    7    9 1
    16    9   14 ar
    17    9   10 ar
    18   10   11 ar
    19   10   35 1
    20   11   12 ar
    21   11   36 1
    22   12   13 ar
    23   12   37 1
    24   13   14 ar
    25   13   38 1
    26   14   15 1
    27   15   16 1
    28   15   39 1
    29   15   40 1
    30   16   17 1
    31   16   41 1
    32   16   42 1
    33   17   18 am
    34   18   19 2
    35   18   20 1
    36   20   21 1
    37   21   22 1
    38   21   27 1
    39   21   23 1
    40   23   24 1
    41   23   43 1
    42   23   44 1
    43   24   29 1
    44   24   25 1
    45   24   54 1
    46   25   26 1
    47   25   45 1
    48   25   46 1
    49   26   27 1
    50   26   47 1
    51   26   48 1
    52   27   28 1
    53   27   49 1
    54   28   29 1
    55   28   50 1
    56   28   51 1
    57   29   52 1
    58   29   53 1
@<TRIPOS>MOLECULE
ZINC00000346
   51    53     0     0     0
SMALL
USER_CHARGES

@<TRIPOS>ATOM
      1 C1          1.4244    1.6886   -1.5887 C.3       1 <0>        -0.0469
      2 N1          1.1814    0.2517   -1.4042 N.4       1 <0>        -0.2721
      3 C2          2.0272   -0.5181   -2.3348 C.3       1 <0>        -0.0094
      4 C3          2.9556   -1.4066   -1.4804 C.3       1 <0>        -0.1635
      5 C4          2.9783   -0.6746   -0.1127 C.3       1 <0>         0.0653
      6 H1          3.6979    0.1441   -0.1199 H         1 <0>         0.1168
      7 C5          1.5281   -0.1381   -0.0208 C.3       1 <0>        -0.0050
      8 O1          3.2558   -1.5870    0.9516 O.3       1 <0>        -0.3195
      9 C6          4.5430   -1.7481    1.2962 C.2       1 <0>         0.4516
     10 O2          5.4057   -1.1348    0.7134 O.2       1 <0>        -0.4737
     11 C7          4.9123   -2.6938    2.4098 C.3       1 <0>         0.2145
     12 C8          6.2290   -2.2732    3.0102 C.ar      1 <0>        -0.1385
     13 C9          7.3344   -2.0990    2.1987 C.ar      1 <0>        -0.0834
     14 C10         8.5422   -1.7132    2.7495 C.ar      1 <0>        -0.1241
     15 C11         8.6444   -1.5011    4.1116 C.ar      1 <0>        -0.1009
     16 C12         7.5387   -1.6744    4.9230 C.ar      1 <0>        -0.1214
     17 C13         6.3299   -2.0561    4.3717 C.ar      1 <0>        -0.0984
     18 C14         5.0360   -4.1136    1.8532 C.3       1 <0>        -0.0775
     19 C15         5.9787   -4.1413    0.6245 C.3       1 <0>        -0.1295
     20 C16         5.5417   -5.3961   -0.1594 C.3       1 <0>        -0.1255
     21 C17         4.0846   -5.6813    0.2445 C.3       1 <0>        -0.1278
     22 C18         3.6869   -4.5900    1.2597 C.3       1 <0>        -0.1172
     23 O3          3.8984   -2.6635    3.4164 O.3       1 <0>        -0.5241
     24 C19        -0.2332   -0.0487   -1.6626 C.3       1 <0>        -0.0440
     25 H2          2.4767    1.9057   -1.4048 H         1 <0>         0.1210
     26 H3          1.1678    1.9725   -2.6093 H         1 <0>         0.1263
     27 H4          0.8091    2.2540   -0.8887 H         1 <0>         0.1248
     28 H5          1.4025   -1.1417   -2.9743 H         1 <0>         0.1389
     29 H6          2.6224    0.1621   -2.9440 H         1 <0>         0.1359
     30 H7          2.5397   -2.4086   -1.3744 H         1 <0>         0.1117
     31 H8          3.9554   -1.4469   -1.9126 H         1 <0>         0.1192
     32 H9          1.4851    0.7281    0.6395 H         1 <0>         0.1438
     33 H10         0.8559   -0.9198    0.3330 H         1 <0>         0.1472
     34 H11         7.2546   -2.2647    1.1345 H         1 <0>         0.1341
     35 H12         9.4060   -1.5778    2.1156 H         1 <0>         0.1275
     36 H13         9.5882   -1.2003    4.5420 H         1 <0>         0.1279
     37 H14         7.6186   -1.5090    5.9873 H         1 <0>         0.1294
     38 H15         5.4651   -2.1879    5.0051 H         1 <0>         0.1316
     39 H16         5.3825   -4.8007    2.6251 H         1 <0>         0.1095
     40 H17         5.8418   -3.2459    0.0183 H         1 <0>         0.0667
     41 H18         7.0173   -4.2327    0.9426 H         1 <0>         0.0806
     42 H19         5.6019   -5.2065   -1.2311 H         1 <0>         0.0664
     43 H20         6.1754   -6.2421    0.1067 H         1 <0>         0.0718
     44 H21         3.4375   -5.6302   -0.6313 H         1 <0>         0.0637
     45 H22         4.0111   -6.6658    0.7066 H         1 <0>         0.0706
     46 H23         3.0530   -5.0088    2.0413 H         1 <0>         0.0786
     47 H24         3.1799   -3.7670    0.7561 H         1 <0>         0.0683
     48 H25         3.7652   -1.7923    3.8143 H         1 <0>         0.3851
     49 H26        -0.4867    0.2446   -2.6814 H         1 <0>         0.1254
     50 H27        -0.4061   -1.1178   -1.5386 H         1 <0>         0.1237
     51 H28        -0.8563    0.5041   -0.9597 H         1 <0>         0.1242
@<TRIPOS>BOND
     1    1    2 1
     2    1   25 1
     3    1   26 1
     4    1   27 1
     5    2    7 1
     6    2    3 1
     7    2   24 1
     8    3    4 1
     9    3   28 1
    10    3   29 1
    11    4    5 1
    12    4   30 1
    13    4   31 1
    14    5    6 1
    15    5    7 1
    16    5    8 1
    17    7   32 1
    18    7   33 1
    19    8    9 1
    20    9   10 2
    21    9   11 1
    22   11   12 1
    23   11   18 1
    24   11   23 1
    25   12   17 ar
    26   12   13 ar
    27   13   14 ar
    28   13   34 1
    29   14   15 ar
    30   14   35 1
    31   15   16 ar
    32   15   36 1
    33   16   17 ar
    34   16   37 1
    35   17   38 1
    36   18   22 1
    37   18   19 1
    38   18   39 1
    39   19   20 1
    40   19   40 1
    41   19   41 1
    42   20   21 1
    43   20   42 1
    44   20   43 1
    45   21   22 1
    46   21   44 1
    47   21   45 1
    48   22   46 1
    49   22   47 1
    50   23   48 1
    51   24   49 1
    52   24   50 1
    53   24   51 1
@<TRIPOS>MOLECULE
ZINC00896958
   51    53     0     0     0
SMALL
USER_CHARGES

@<TRIPOS>ATOM
      1 C1         -0.0178    1.4648    0.0101 C.3       1 <0>        -0.0469
      2 N1          0.0021   -0.0041    0.0020 N.4       1 <0>        -0.2722
      3 C2          0.7097   -0.4841   -1.1991 C.3       1 <0>        -0.0092
      4 C3          1.9322   -1.2931   -0.7168 C.3       1 <0>        -0.1633
      5 C4          2.1672   -0.7497    0.7171 C.3       1 <0>         0.0661
      6 H1          2.7372    0.1791    0.6942 H         1 <0>         0.1162
      7 C5          0.7163   -0.4986    1.1983 C.3       1 <0>        -0.0050
      8 O1          2.8167   -1.7256    1.5343 O.3       1 <0>        -0.3200
      9 C6          4.1581   -1.6955    1.5698 C.2       1 <0>         0.4461
     10 O2          4.7610   -0.8679    0.9283 O.2       1 <0>        -0.4727
     11 C7          4.9123   -2.6938    2.4098 C.3       1 <0>         0.2139
     12 C8          6.2985   -2.8778    1.8479 C.ar      1 <0>        -0.1181
     13 C9          7.3354   -2.0780    2.2905 C.ar      1 <0>        -0.0885
     14 C10         8.6069   -2.2467    1.7751 C.ar      1 <0>        -0.1148
     15 C11         8.8416   -3.2155    0.8174 C.ar      1 <0>        -0.1025
     16 C12         7.8048   -4.0159    0.3754 C.ar      1 <0>        -0.1146
     17 C13         6.5342   -3.8501    0.8940 C.ar      1 <0>        -0.1055
     18 C14         5.0089   -2.1807    3.8480 C.3       1 <0>        -0.0849
     19 C15         5.6305   -3.2557    4.7737 C.3       1 <0>        -0.1090
     20 C16         5.1174   -2.8858    6.1807 C.3       1 <0>        -0.1272
     21 C17         3.8252   -2.0753    5.9783 C.3       1 <0>        -0.1247
     22 C18         3.5982   -1.9809    4.4554 C.3       1 <0>        -0.1159
     23 O3          4.2228   -3.9454    2.3959 O.3       1 <0>        -0.5200
     24 C19        -1.3740   -0.5182    0.0002 C.3       1 <0>        -0.0439
     25 H2          1.0047    1.8421    0.0024 H         1 <0>         0.1210
     26 H3         -0.5450    1.8259   -0.8730 H         1 <0>         0.1263
     27 H4         -0.5280    1.8163    0.9069 H         1 <0>         0.1249
     28 H5          0.0508   -1.1230   -1.7872 H         1 <0>         0.1389
     29 H6          1.0396    0.3641   -1.7990 H         1 <0>         0.1358
     30 H7          1.7040   -2.3586   -0.6926 H         1 <0>         0.1112
     31 H8          2.7978   -1.0975   -1.3498 H         1 <0>         0.1186
     32 H9          0.7029    0.2542    1.9865 H         1 <0>         0.1439
     33 H10         0.2676   -1.4270    1.5514 H         1 <0>         0.1473
     34 H11         7.1521   -1.3210    3.0388 H         1 <0>         0.1260
     35 H12         9.4170   -1.6213    2.1204 H         1 <0>         0.1300
     36 H13         9.8349   -3.3468    0.4142 H         1 <0>         0.1293
     37 H14         7.9881   -4.7726   -0.3731 H         1 <0>         0.1292
     38 H15         5.7249   -4.4779    0.5514 H         1 <0>         0.1197
     39 H16         5.5816   -1.2542    3.8883 H         1 <0>         0.0972
     40 H17         5.2841   -4.2496    4.4904 H         1 <0>         0.0842
     41 H18         6.7188   -3.2058    4.7392 H         1 <0>         0.0698
     42 H19         4.9053   -3.7905    6.7506 H         1 <0>         0.0696
     43 H20         5.8597   -2.2812    6.7019 H         1 <0>         0.0661
     44 H21         2.9860   -2.5865    6.4500 H         1 <0>         0.0680
     45 H22         3.9404   -1.0773    6.4012 H         1 <0>         0.0640
     46 H23         3.2033   -1.0006    4.1886 H         1 <0>         0.0564
     47 H24         2.9236   -2.7689    4.1207 H         1 <0>         0.0840
     48 H25         4.1245   -4.3306    1.5144 H         1 <0>         0.3820
     49 H26        -1.8992   -0.1476   -0.8802 H         1 <0>         0.1253
     50 H27        -1.3547   -1.6079   -0.0202 H         1 <0>         0.1237
     51 H28        -1.8892   -0.1807    0.8995 H         1 <0>         0.1242
@<TRIPOS>BOND
     1    1    2 1
     2    1   25 1
     3    1   26 1
     4    1   27 1
     5    2    7 1
     6    2    3 1
     7    2   24 1
     8    3    4 1
     9    3   28 1
    10    3   29 1
    11    4    5 1
    12    4   30 1
    13    4   31 1
    14    5    6 1
    15    5    7 1
    16    5    8 1
    17    7   32 1
    18    7   33 1
    19    8    9 1
    20    9   10 2
    21    9   11 1
    22   11   12 1
    23   11   18 1
    24   11   23 1
    25   12   17 ar
    26   12   13 ar
    27   13   14 ar
    28   13   34 1
    29   14   15 ar
    30   14   35 1
    31   15   16 ar
    32   15   36 1
    33   16   17 ar
    34   16   37 1
    35   17   38 1
    36   18   22 1
    37   18   19 1
    38   18   39 1
    39   19   20 1
    40   19   40 1
    41   19   41 1
    42   20   21 1
    43   20   42 1
    44   20   43 1
    45   21   22 1
    46   21   44 1
    47   21   45 1
    48   22   46 1
    49   22   47 1
    50   23   48 1
    51   24   49 1
    52   24   50 1
    53   24   51 1
@<TRIPOS>MOLECULE
ZINC00896968
   51    53     0     0     0
SMALL
USER_CHARGES

@<TRIPOS>ATOM
      1 C1         -0.7683    2.3255    1.8090 C.3       1 <0>        -0.0456
      2 N1         -0.7454    0.9107    1.4143 N.4       1 <0>        -0.2722
      3 C2         -2.1018    0.3365    1.5421 C.3       1 <0>        -0.0066
      4 C3         -1.8721   -1.1166    2.0273 C.3       1 <0>        -0.1639
      5 C4         -0.6662   -0.9395    2.9872 C.3       1 <0>         0.0664
      6 H1         -1.0018   -0.6122    3.9713 H         1 <0>         0.1195
      7 C5          0.1662    0.1632    2.2999 C.3       1 <0>        -0.0100
      8 O1          0.0816   -2.1530    3.0882 O.3       1 <0>        -0.3234
      9 C6         -0.2621   -3.0007    4.0705 C.2       1 <0>         0.4517
     10 O2         -1.1680   -2.7217    4.8199 O.2       1 <0>        -0.4731
     11 C7          0.4817   -4.3005    4.2388 C.3       1 <0>         0.2144
     12 C8         -0.4068   -5.3019    4.9308 C.ar      1 <0>        -0.1383
     13 C9         -1.0042   -4.9798    6.1351 C.ar      1 <0>        -0.0834
     14 C10        -1.8193   -5.8983    6.7698 C.ar      1 <0>        -0.1239
     15 C11        -2.0373   -7.1388    6.2000 C.ar      1 <0>        -0.1010
     16 C12        -1.4406   -7.4605    4.9953 C.ar      1 <0>        -0.1216
     17 C13        -0.6290   -6.5404    4.3585 C.ar      1 <0>        -0.0987
     18 C14         1.7368   -4.0644    5.0814 C.3       1 <0>        -0.0777
     19 C15         1.3833   -3.3318    6.3995 C.3       1 <0>        -0.1297
     20 C16         2.6995   -2.6419    6.8136 C.3       1 <0>        -0.1258
     21 C17         3.5297   -2.4721    5.5293 C.3       1 <0>        -0.1281
     22 C18         2.6891   -3.0647    4.3795 C.3       1 <0>        -0.1166
     23 O3          0.8574   -4.8040    2.9553 O.3       1 <0>        -0.5241
     24 C19        -0.2904    0.7919    0.0226 C.3       1 <0>        -0.0449
     25 H2          0.2360    2.7415    1.7284 H         1 <0>         0.1246
     26 H3         -1.4430    2.8749    1.1525 H         1 <0>         0.1256
     27 H4         -1.1149    2.4098    2.8390 H         1 <0>         0.1225
     28 H5         -2.6824    0.8945    2.2766 H         1 <0>         0.1371
     29 H6         -2.6073    0.3386    0.5764 H         1 <0>         0.1412
     30 H7         -2.7446   -1.4923    2.5617 H         1 <0>         0.1234
     31 H8         -1.6151   -1.7705    1.1940 H         1 <0>         0.1092
     32 H9          0.9664   -0.2877    1.7130 H         1 <0>         0.1467
     33 H10         0.5861    0.8330    3.0504 H         1 <0>         0.1434
     34 H11        -0.8339   -4.0106    6.5802 H         1 <0>         0.1343
     35 H12        -2.2854   -5.6469    7.7110 H         1 <0>         0.1276
     36 H13        -2.6735   -7.8566    6.6963 H         1 <0>         0.1278
     37 H14        -1.6107   -8.4298    4.5503 H         1 <0>         0.1293
     38 H15        -0.1658   -6.7904    3.4154 H         1 <0>         0.1313
     39 H16         2.2468   -5.0062    5.2844 H         1 <0>         0.1096
     40 H17         0.6024   -2.5913    6.2267 H         1 <0>         0.0667
     41 H18         1.0710   -4.0463    7.1611 H         1 <0>         0.0808
     42 H19         2.4879   -1.6671    7.2531 H         1 <0>         0.0667
     43 H20         3.2389   -3.2646    7.5273 H         1 <0>         0.0719
     44 H21         3.7211   -1.4149    5.3454 H         1 <0>         0.0641
     45 H22         4.4721   -3.0123    5.6197 H         1 <0>         0.0707
     46 H23         3.3299   -3.5842    3.6670 H         1 <0>         0.0786
     47 H24         2.1191   -2.2810    3.8805 H         1 <0>         0.0673
     48 H25         0.1101   -4.9771    2.3666 H         1 <0>         0.3845
     49 H26         0.7182    1.1956   -0.0656 H         1 <0>         0.1243
     50 H27        -0.2885   -0.2579   -0.2706 H         1 <0>         0.1227
     51 H28        -0.9634    1.3498   -0.6285 H         1 <0>         0.1246
@<TRIPOS>BOND
     1    1    2 1
     2    1   25 1
     3    1   26 1
     4    1   27 1
     5    2    7 1
     6    2    3 1
     7    2   24 1
     8    3    4 1
     9    3   28 1
    10    3   29 1
    11    4    5 1
    12    4   30 1
    13    4   31 1
    14    5    6 1
    15    5    7 1
    16    5    8 1
    17    7   32 1
    18    7   33 1
    19    8    9 1
    20    9   10 2
    21    9   11 1
    22   11   12 1
    23   11   18 1
    24   11   23 1
    25   12   17 ar
    26   12   13 ar
    27   13   14 ar
    28   13   34 1
    29   14   15 ar
    30   14   35 1
    31   15   16 ar
    32   15   36 1
    33   16   17 ar
    34   16   37 1
    35   17   38 1
    36   18   22 1
    37   18   19 1
    38   18   39 1
    39   19   20 1
    40   19   40 1
    41   19   41 1
    42   20   21 1
    43   20   42 1
    44   20   43 1
    45   21   22 1
    46   21   44 1
    47   21   45 1
    48   22   46 1
    49   22   47 1
    50   23   48 1
    51   24   49 1
    52   24   50 1
    53   24   51 1
@<TRIPOS>MOLECULE
ZINC00968301
   51    53     0     0     0
SMALL
USER_CHARGES

@<TRIPOS>ATOM
      1 C1         -0.0178    1.4648    0.0101 C.3       1 <0>        -0.0447
      2 N1          0.0021   -0.0041    0.0020 N.4       1 <0>        -0.2723
      3 C2          0.7116   -0.4854   -1.2024 C.3       1 <0>        -0.0067
      4 C3          2.1644   -0.7417   -0.7297 C.3       1 <0>        -0.1645
      5 C4          1.9349   -1.3008    0.6992 C.3       1 <0>         0.0670
      6 H1          1.7066   -2.3661    0.6641 H         1 <0>         0.1186
      7 C5          0.7144   -0.4972    1.1951 C.3       1 <0>        -0.0092
      8 O1          3.0746   -1.0571    1.5261 O.3       1 <0>        -0.3240
      9 C6          4.0140   -2.0151    1.5669 C.2       1 <0>         0.4458
     10 O2          3.8733   -3.0270    0.9218 O.2       1 <0>        -0.4720
     11 C7          5.2441   -1.8285    2.4172 C.3       1 <0>         0.2138
     12 C8          5.8060   -3.1761    2.7903 C.ar      1 <0>        -0.1185
     13 C9          6.7475   -3.7811    1.9789 C.ar      1 <0>        -0.0885
     14 C10         7.2630   -5.0172    2.3211 C.ar      1 <0>        -0.1149
     15 C11         6.8372   -5.6482    3.4750 C.ar      1 <0>        -0.1025
     16 C12         5.8964   -5.0428    4.2869 C.ar      1 <0>        -0.1145
     17 C13         5.3841   -3.8047    3.9469 C.ar      1 <0>        -0.1055
     18 C14         6.2925   -1.0387    1.6311 C.3       1 <0>        -0.0843
     19 C15         7.5022   -0.6850    2.5314 C.3       1 <0>        -0.1092
     20 C16         8.1269    0.5535    1.8564 C.3       1 <0>        -0.1272
     21 C17         7.0095    1.2142    1.0301 C.3       1 <0>        -0.1247
     22 C18         5.7449    0.3541    1.2318 C.3       1 <0>        -0.1151
     23 O3          4.8985   -1.1113    3.6039 O.3       1 <0>        -0.5207
     24 C19        -1.3740   -0.5182    0.0002 C.3       1 <0>        -0.0456
     25 H2          1.0047    1.8421    0.0024 H         1 <0>         0.1228
     26 H3         -0.5450    1.8259   -0.8730 H         1 <0>         0.1245
     27 H4         -0.5280    1.8163    0.9069 H         1 <0>         0.1243
     28 H5          0.2615   -1.4100   -1.5639 H         1 <0>         0.1371
     29 H6          0.6951    0.2760   -1.9822 H         1 <0>         0.1411
     30 H7          2.6567   -1.4795   -1.3633 H         1 <0>         0.1235
     31 H8          2.7345    0.1867   -0.6988 H         1 <0>         0.1097
     32 H9          1.0466    0.3444    1.8028 H         1 <0>         0.1468
     33 H10         0.0578   -1.1425    1.7786 H         1 <0>         0.1430
     34 H11         7.0801   -3.2881    1.0773 H         1 <0>         0.1259
     35 H12         7.9980   -5.4902    1.6868 H         1 <0>         0.1300
     36 H13         7.2394   -6.6143    3.7421 H         1 <0>         0.1294
     37 H14         5.5635   -5.5359    5.1883 H         1 <0>         0.1293
     38 H15         4.6518   -3.3300    4.5832 H         1 <0>         0.1199
     39 H16         6.6125   -1.5950    0.7501 H         1 <0>         0.0971
     40 H17         7.1688   -0.4422    3.5403 H         1 <0>         0.0841
     41 H18         8.2158   -1.5087    2.5523 H         1 <0>         0.0699
     42 H19         8.4913    1.2475    2.6138 H         1 <0>         0.0696
     43 H20         8.9448    0.2500    1.2029 H         1 <0>         0.0661
     44 H21         6.8317    2.2289    1.3865 H         1 <0>         0.0676
     45 H22         7.2852    1.2313   -0.0243 H         1 <0>         0.0638
     46 H23         5.1760    0.2888    0.3043 H         1 <0>         0.0558
     47 H24         5.1277    0.7648    2.0309 H         1 <0>         0.0835
     48 H25         4.2369   -1.5544    4.1526 H         1 <0>         0.3823
     49 H26        -1.8992   -0.1476   -0.8802 H         1 <0>         0.1255
     50 H27        -1.3547   -1.6079   -0.0202 H         1 <0>         0.1223
     51 H28        -1.8892   -0.1807    0.8995 H         1 <0>         0.1244
@<TRIPOS>BOND
     1    1    2 1
     2    1   25 1
     3    1   26 1
     4    1   27 1
     5    2    7 1
     6    2    3 1
     7    2   24 1
     8    3    4 1
     9    3   28 1
    10    3   29 1
    11    4    5 1
    12    4   30 1
    13    4   31 1
    14    5    6 1
    15    5    7 1
    16    5    8 1
    17    7   32 1
    18    7   33 1
    19    8    9 1
    20    9   10 2
    21    9   11 1
    22   11   12 1
    23   11   18 1
    24   11   23 1
    25   12   17 ar
    26   12   13 ar
    27   13   14 ar
    28   13   34 1
    29   14   15 ar
    30   14   35 1
    31   15   16 ar
    32   15   36 1
    33   16   17 ar
    34   16   37 1
    35   17   38 1
    36   18   22 1
    37   18   19 1
    38   18   39 1
    39   19   20 1
    40   19   40 1
    41   19   41 1
    42   20   21 1
    43   20   42 1
    44   20   43 1
    45   21   22 1
    46   21   44 1
    47   21   45 1
    48   22   46 1
    49   22   47 1
    50   23   48 1
    51   24   49 1
    52   24   50 1
    53   24   51 1
@<TRIPOS>MOLECULE
ZINC01530751
   58    59     0     0     0
SMALL
USER_CHARGES

@<TRIPOS>ATOM
      1 C1          0.2991    1.0752   -0.2917 C.3       1 <0>        -0.1878
      2 C2          0.2487   -0.4286   -0.0143 C.3       1 <0>        -0.0180
      3 N1          0.7545   -0.6942    1.3391 N.4       1 <0>        -0.3873
      4 C3         -0.1471   -0.0863    2.3268 C.3       1 <0>        -0.0176
      5 C4         -1.5739   -0.5857    2.0902 C.3       1 <0>        -0.1896
      6 C5          0.8186   -2.1448    1.5620 C.3       1 <0>         0.1283
      7 C6          1.4440   -2.4134    2.8672 C.1       1 <0>        -0.2437
      8 C7          1.9427   -2.6277    3.9081 C.1       1 <0>        -0.0537
      9 C8          2.5681   -2.8964    5.2133 C.3       1 <0>         0.1556
     10 O1          2.6305   -4.3075    5.4302 O.3       1 <0>        -0.3355
     11 C9          3.1776   -4.7232    6.5833 C.2       1 <0>         0.4488
     12 O2          3.5898   -3.9158    7.3820 O.2       1 <0>        -0.4789
     13 C10         3.2776   -6.1970    6.8816 C.3       1 <0>         0.2093
     14 C11         4.5302   -6.7526    6.2545 C.ar      1 <0>        -0.0984
     15 C12         5.7129   -6.7686    6.9701 C.ar      1 <0>        -0.0971
     16 C13         6.8619   -7.2782    6.3949 C.ar      1 <0>        -0.1209
     17 C14         6.8282   -7.7722    5.1043 C.ar      1 <0>        -0.1021
     18 C15         5.6454   -7.7571    4.3890 C.ar      1 <0>        -0.1258
     19 C16         4.4953   -7.2514    4.9658 C.ar      1 <0>        -0.0793
     20 C17         3.3284   -6.4085    8.3961 C.3       1 <0>        -0.1010
     21 C18         3.4299   -7.9047    8.6989 C.3       1 <0>        -0.1097
     22 C19         3.4807   -8.1162   10.2134 C.3       1 <0>        -0.1205
     23 C20         2.2089   -7.5522   10.8501 C.3       1 <0>        -0.1228
     24 C21         2.1074   -6.0559   10.5472 C.3       1 <0>        -0.1149
     25 C22         2.0566   -5.8444    9.0327 C.3       1 <0>        -0.1247
     26 O3          2.1371   -6.8701    6.3446 O.3       1 <0>        -0.5261
     27 H1          1.3286    1.4247   -0.2135 H         1 <0>         0.0810
     28 H2         -0.0762    1.2722   -1.2959 H         1 <0>         0.1084
     29 H3         -0.3191    1.5999    0.4367 H         1 <0>         0.0808
     30 H4         -0.7808   -0.7782   -0.0925 H         1 <0>         0.1359
     31 H5          0.8669   -0.9534   -0.7427 H         1 <0>         0.1340
     32 H6          0.1734   -0.3644    3.3308 H         1 <0>         0.1267
     33 H7         -0.1201    0.9985    2.2242 H         1 <0>         0.1343
     34 H8         -1.5833   -1.6756    2.0977 H         1 <0>         0.0801
     35 H9         -2.2254   -0.2113    2.8798 H         1 <0>         0.1065
     36 H10        -1.9293   -0.2258    1.1247 H         1 <0>         0.0853
     37 H11        -0.1895   -2.5591    1.5500 H         1 <0>         0.1522
     38 H12         1.4112   -2.6078    0.7730 H         1 <0>         0.1531
     39 H13         3.5762   -2.4820    5.2254 H         1 <0>         0.1078
     40 H14         1.9755   -2.4334    6.0023 H         1 <0>         0.1076
     41 H15         5.7392   -6.3826    7.9784 H         1 <0>         0.1298
     42 H16         7.7860   -7.2900    6.9537 H         1 <0>         0.1301
     43 H17         7.7261   -8.1698    4.6546 H         1 <0>         0.1278
     44 H18         5.6191   -8.1428    3.3806 H         1 <0>         0.1272
     45 H19         3.5704   -7.2430    4.4083 H         1 <0>         0.1315
     46 H20         4.1982   -5.8950    8.8056 H         1 <0>         0.0970
     47 H21         2.5600   -8.4182    8.2894 H         1 <0>         0.0730
     48 H22         4.3359   -8.3066    8.2454 H         1 <0>         0.0711
     49 H23         3.5530   -9.1822   10.4292 H         1 <0>         0.0680
     50 H24         4.3506   -7.6028   10.6230 H         1 <0>         0.0632
     51 H25         1.3390   -8.0656   10.4405 H         1 <0>         0.0633
     52 H26         2.2451   -7.7028   11.9290 H         1 <0>         0.0655
     53 H27         1.2014   -5.6540   11.0007 H         1 <0>         0.0657
     54 H28         2.9773   -5.5424   10.9568 H         1 <0>         0.0657
     55 H29         1.9843   -4.7784    8.8169 H         1 <0>         0.0646
     56 H30         1.1867   -6.3579    8.6231 H         1 <0>         0.0644
     57 H31         1.2937   -6.5628    6.7041 H         1 <0>         0.3842
     58 H32         1.6771   -0.2977    1.4371 H         1 <0>         0.4275
@<TRIPOS>BOND
     1    1    2 1
     2    1   27 1
     3    1   28 1
     4    1   29 1
     5    2    3 1
     6    2   30 1
     7    2   31 1
     8    3    4 1
     9    3    6 1
    10    3   58 1
    11    4    5 1
    12    4   32 1
    13    4   33 1
    14    5   34 1
    15    5   35 1
    16    5   36 1
    17    6    7 1
    18    6   37 1
    19    6   38 1
    20    7    8 3
    21    8    9 1
    22    9   10 1
    23    9   39 1
    24    9   40 1
    25   10   11 1
    26   11   12 2
    27   11   13 1
    28   13   14 1
    29   13   20 1
    30   13   26 1
    31   14   19 ar
    32   14   15 ar
    33   15   16 ar
    34   15   41 1
    35   16   17 ar
    36   16   42 1
    37   17   18 ar
    38   17   43 1
    39   18   19 ar
    40   18   44 1
    41   19   45 1
    42   20   25 1
    43   20   21 1
    44   20   46 1
    45   21   22 1
    46   21   47 1
    47   21   48 1
    48   22   23 1
    49   22   49 1
    50   22   50 1
    51   23   24 1
    52   23   51 1
    53   23   52 1
    54   24   25 1
    55   24   53 1
    56   24   54 1
    57   25   55 1
    58   25   56 1
    59   26   57 1
@<TRIPOS>MOLECULE
ZINC01530751
   57    58     0     0     0
SMALL
USER_CHARGES

@<TRIPOS>ATOM
      1 C1         -1.3393   -0.9465    0.0937 C.3       1 <0>        -0.1938
      2 C2         -0.0615   -0.1096    0.0057 C.3       1 <0>         0.0454
      3 N1          0.7423   -0.5619   -1.1377 N.3       1 <0>        -0.5361
      4 C3          1.0055   -2.0050   -1.0581 C.3       1 <0>         0.0450
      5 C4          1.8971   -2.2949    0.1510 C.3       1 <0>        -0.1498
      6 C5          0.0922   -0.2147   -2.4084 C.3       1 <0>         0.1567
      7 C6          0.2750    1.2211   -2.6767 C.1       1 <0>        -0.1196
      8 C7          0.4208    2.3662   -2.8907 C.1       1 <0>        -0.1918
      9 C8          0.6035    3.8019   -3.1591 C.3       1 <0>         0.1841
     10 O1         -0.0288    4.1398   -4.3952 O.3       1 <0>        -0.3348
     11 C9          0.0461    5.4212   -4.7878 C.2       1 <0>         0.4444
     12 O2          0.6293    6.2292   -4.1046 O.2       1 <0>        -0.4887
     13 C10        -0.5971    5.8519   -6.0808 C.3       1 <0>         0.2057
     14 C11        -2.0520    6.1618   -5.8393 C.ar      1 <0>        -0.0924
     15 C12        -2.4377    7.4438   -5.4950 C.ar      1 <0>        -0.0985
     16 C13        -3.7722    7.7281   -5.2735 C.ar      1 <0>        -0.1236
     17 C14        -4.7211    6.7304   -5.3966 C.ar      1 <0>        -0.1058
     18 C15        -4.3355    5.4486   -5.7417 C.ar      1 <0>        -0.1251
     19 C16        -3.0014    5.1653   -5.9675 C.ar      1 <0>        -0.0771
     20 C17         0.1094    7.1015   -6.6103 C.3       1 <0>        -0.0996
     21 C18        -0.5436    7.5388   -7.9230 C.3       1 <0>        -0.1098
     22 C19         0.1629    8.7884   -8.4526 C.3       1 <0>        -0.1192
     23 C20         1.6400    8.4738   -8.6978 C.3       1 <0>        -0.1218
     24 C21         2.2930    8.0364   -7.3851 C.3       1 <0>        -0.1141
     25 C22         1.5865    6.7869   -6.8555 C.3       1 <0>        -0.1261
     26 O3         -0.4873    4.7996   -7.0412 O.3       1 <0>        -0.5275
     27 H1         -1.8650   -0.9086   -0.8604 H         1 <0>         0.0562
     28 H2         -1.0816   -1.9799    0.3257 H         1 <0>         0.0612
     29 H3         -1.9818   -0.5474    0.8786 H         1 <0>         0.0646
     30 H4         -0.3232    0.9402   -0.1267 H         1 <0>         0.0755
     31 H5          0.5140   -0.2276    0.9238 H         1 <0>         0.0815
     32 H6          0.0625   -2.5410   -0.9510 H         1 <0>         0.0441
     33 H7          1.5087   -2.3332   -1.9676 H         1 <0>         0.0758
     34 H8          1.3939   -1.9667    1.0605 H         1 <0>         0.0556
     35 H9          2.0924   -3.3656    0.2100 H         1 <0>         0.0609
     36 H10         2.8401   -1.7589    0.0439 H         1 <0>         0.0634
     37 H11         0.5392   -0.7949   -3.2156 H         1 <0>         0.1002
     38 H12        -0.9724   -0.4399   -2.3454 H         1 <0>         0.0714
     39 H13         0.1566    4.3822   -2.3518 H         1 <0>         0.0936
     40 H14         1.6681    4.0271   -3.2221 H         1 <0>         0.0926
     41 H15        -1.6964    8.2233   -5.3988 H         1 <0>         0.1285
     42 H16        -4.0735    8.7296   -5.0039 H         1 <0>         0.1274
     43 H17        -5.7637    6.9523   -5.2228 H         1 <0>         0.1253
     44 H18        -5.0768    4.6690   -5.8376 H         1 <0>         0.1263
     45 H19        -2.7006    4.1647   -6.2407 H         1 <0>         0.1330
     46 H20         0.0256    7.9042   -5.8777 H         1 <0>         0.0957
     47 H21        -0.4599    6.7361   -8.6556 H         1 <0>         0.0723
     48 H22        -1.5959    7.7630   -7.7484 H         1 <0>         0.0703
     49 H23        -0.3024    9.1000   -9.3878 H         1 <0>         0.0653
     50 H24         0.0791    9.5911   -7.7200 H         1 <0>         0.0621
     51 H25         1.7237    7.6710   -9.4304 H         1 <0>         0.0626
     52 H26         2.1433    9.3640   -9.0751 H         1 <0>         0.0629
     53 H27         3.3453    7.8123   -7.5598 H         1 <0>         0.0646
     54 H28         2.2092    8.8391   -6.6525 H         1 <0>         0.0648
     55 H29         2.0517    6.4753   -5.9204 H         1 <0>         0.0680
     56 H30         1.6703    5.9842   -7.5882 H         1 <0>         0.0641
     57 H31         0.4235    4.5473   -7.2458 H         1 <0>         0.3843
@<TRIPOS>BOND
     1    1    2 1
     2    1   27 1
     3    1   28 1
     4    1   29 1
     5    2    3 1
     6    2   30 1
     7    2   31 1
     8    3    4 1
     9    3    6 1
    10    4    5 1
    11    4   32 1
    12    4   33 1
    13    5   34 1
    14    5   35 1
    15    5   36 1
    16    6    7 1
    17    6   37 1
    18    6   38 1
    19    7    8 3
    20    8    9 1
    21    9   10 1
    22    9   39 1
    23    9   40 1
    24   10   11 1
    25   11   12 2
    26   11   13 1
    27   13   14 1
    28   13   20 1
    29   13   26 1
    30   14   19 ar
    31   14   15 ar
    32   15   16 ar
    33   15   41 1
    34   16   17 ar
    35   16   42 1
    36   17   18 ar
    37   17   43 1
    38   18   19 ar
    39   18   44 1
    40   19   45 1
    41   20   25 1
    42   20   21 1
    43   20   46 1
    44   21   22 1
    45   21   47 1
    46   21   48 1
    47   22   23 1
    48   22   49 1
    49   22   50 1
    50   23   24 1
    51   23   51 1
    52   23   52 1
    53   24   25 1
    54   24   53 1
    55   24   54 1
    56   25   55 1
    57   25   56 1
    58   26   57 1
@<TRIPOS>MOLECULE
ZINC01530752
   58    59     0     0     0
SMALL
USER_CHARGES

@<TRIPOS>ATOM
      1 C1          0.2991    1.0752   -0.2917 C.3       1 <0>        -0.1878
      2 C2          0.2487   -0.4286   -0.0143 C.3       1 <0>        -0.0180
      3 N1          0.7545   -0.6942    1.3391 N.4       1 <0>        -0.3872
      4 C3         -0.1471   -0.0863    2.3268 C.3       1 <0>        -0.0177
      5 C4         -1.5739   -0.5857    2.0902 C.3       1 <0>        -0.1897
      6 C5          0.8186   -2.1448    1.5620 C.3       1 <0>         0.1283
      7 C6          1.4440   -2.4134    2.8672 C.1       1 <0>        -0.2437
      8 C7          1.9427   -2.6277    3.9081 C.1       1 <0>        -0.0537
      9 C8          2.5681   -2.8964    5.2133 C.3       1 <0>         0.1556
     10 O1          2.6305   -4.3075    5.4302 O.3       1 <0>        -0.3355
     11 C9          3.1776   -4.7232    6.5833 C.2       1 <0>         0.4488
     12 O2          3.5898   -3.9158    7.3820 O.2       1 <0>        -0.4789
     13 C10         3.2776   -6.1970    6.8816 C.3       1 <0>         0.2092
     14 C11         1.9845   -6.6752    7.4902 C.ar      1 <0>        -0.0978
     15 C12         1.8111   -6.6395    8.8612 C.ar      1 <0>        -0.0973
     16 C13         0.6250   -7.0782    9.4194 C.ar      1 <0>        -0.1208
     17 C14        -0.3878   -7.5520    8.6067 C.ar      1 <0>        -0.1023
     18 C15        -0.2147   -7.5869    7.2357 C.ar      1 <0>        -0.1256
     19 C16         0.9697   -7.1442    6.6771 C.ar      1 <0>        -0.0796
     20 C17         4.4248   -6.4418    7.8638 C.3       1 <0>        -0.1009
     21 C18         4.5263   -7.9381    8.1667 C.3       1 <0>        -0.1096
     22 C19         5.6736   -8.1829    9.1490 C.3       1 <0>        -0.1204
     23 C20         6.9864   -7.6974    8.5311 C.3       1 <0>        -0.1229
     24 C21         6.8848   -6.2011    8.2282 C.3       1 <0>        -0.1149
     25 C22         5.7376   -5.9563    7.2459 C.3       1 <0>        -0.1248
     26 O3          3.5270   -6.9124    5.6700 O.3       1 <0>        -0.5262
     27 H1          1.3286    1.4247   -0.2135 H         1 <0>         0.0810
     28 H2         -0.0762    1.2722   -1.2959 H         1 <0>         0.1083
     29 H3         -0.3191    1.5999    0.4367 H         1 <0>         0.0808
     30 H4         -0.7808   -0.7782   -0.0925 H         1 <0>         0.1359
     31 H5          0.8669   -0.9534   -0.7427 H         1 <0>         0.1340
     32 H6          0.1734   -0.3644    3.3308 H         1 <0>         0.1267
     33 H7         -0.1201    0.9985    2.2242 H         1 <0>         0.1344
     34 H8         -1.5833   -1.6756    2.0977 H         1 <0>         0.0801
     35 H9         -2.2254   -0.2113    2.8798 H         1 <0>         0.1066
     36 H10        -1.9293   -0.2258    1.1247 H         1 <0>         0.0853
     37 H11        -0.1895   -2.5591    1.5500 H         1 <0>         0.1521
     38 H12         1.4112   -2.6078    0.7730 H         1 <0>         0.1532
     39 H13         3.5762   -2.4820    5.2254 H         1 <0>         0.1081
     40 H14         1.9755   -2.4334    6.0023 H         1 <0>         0.1074
     41 H15         2.6024   -6.2693    9.4961 H         1 <0>         0.1297
     42 H16         0.4898   -7.0510   10.4906 H         1 <0>         0.1300
     43 H17        -1.3142   -7.8954    9.0429 H         1 <0>         0.1277
     44 H18        -1.0059   -7.9574    6.6007 H         1 <0>         0.1271
     45 H19         1.1036   -7.1679    5.6057 H         1 <0>         0.1315
     46 H20         4.2345   -5.8961    8.7880 H         1 <0>         0.0969
     47 H21         3.5911   -8.2840    8.6069 H         1 <0>         0.0710
     48 H22         4.7166   -8.4838    7.2425 H         1 <0>         0.0730
     49 H23         5.4833   -7.6372   10.0731 H         1 <0>         0.0631
     50 H24         5.7459   -9.2489    9.3647 H         1 <0>         0.0680
     51 H25         7.8037   -7.8718    9.2308 H         1 <0>         0.0655
     52 H26         7.1766   -8.2431    7.6069 H         1 <0>         0.0633
     53 H27         6.6946   -5.6554    9.1524 H         1 <0>         0.0657
     54 H28         7.8201   -5.8552    7.7880 H         1 <0>         0.0658
     55 H29         5.9279   -6.5020    6.3218 H         1 <0>         0.0644
     56 H30         5.6653   -4.8903    7.0302 H         1 <0>         0.0647
     57 H31         4.3451   -6.6556    5.2229 H         1 <0>         0.3845
     58 H32         1.6771   -0.2977    1.4371 H         1 <0>         0.4274
@<TRIPOS>BOND
     1    1    2 1
     2    1   27 1
     3    1   28 1
     4    1   29 1
     5    2    3 1
     6    2   30 1
     7    2   31 1
     8    3    4 1
     9    3    6 1
    10    3   58 1
    11    4    5 1
    12    4   32 1
    13    4   33 1
    14    5   34 1
    15    5   35 1
    16    5   36 1
    17    6    7 1
    18    6   37 1
    19    6   38 1
    20    7    8 3
    21    8    9 1
    22    9   10 1
    23    9   39 1
    24    9   40 1
    25   10   11 1
    26   11   12 2
    27   11   13 1
    28   13   14 1
    29   13   20 1
    30   13   26 1
    31   14   19 ar
    32   14   15 ar
    33   15   16 ar
    34   15   41 1
    35   16   17 ar
    36   16   42 1
    37   17   18 ar
    38   17   43 1
    39   18   19 ar
    40   18   44 1
    41   19   45 1
    42   20   25 1
    43   20   21 1
    44   20   46 1
    45   21   22 1
    46   21   47 1
    47   21   48 1
    48   22   23 1
    49   22   49 1
    50   22   50 1
    51   23   24 1
    52   23   51 1
    53   23   52 1
    54   24   25 1
    55   24   53 1
    56   24   54 1
    57   25   55 1
    58   25   56 1
    59   26   57 1
@<TRIPOS>MOLECULE
ZINC01530752
   57    58     0     0     0
SMALL
USER_CHARGES

@<TRIPOS>ATOM
      1 C1         -1.3393   -0.9465    0.0937 C.3       1 <0>        -0.1940
      2 C2         -0.0615   -0.1096    0.0057 C.3       1 <0>         0.0454
      3 N1          0.7423   -0.5619   -1.1377 N.3       1 <0>        -0.5360
      4 C3          1.0055   -2.0050   -1.0581 C.3       1 <0>         0.0448
      5 C4          1.8971   -2.2949    0.1510 C.3       1 <0>        -0.1497
      6 C5          0.0922   -0.2147   -2.4084 C.3       1 <0>         0.1566
      7 C6          0.2750    1.2211   -2.6767 C.1       1 <0>        -0.1195
      8 C7          0.4208    2.3662   -2.8907 C.1       1 <0>        -0.1918
      9 C8          0.6035    3.8019   -3.1591 C.3       1 <0>         0.1841
     10 O1         -0.0288    4.1398   -4.3952 O.3       1 <0>        -0.3348
     11 C9          0.0461    5.4212   -4.7878 C.2       1 <0>         0.4444
     12 O2          0.6293    6.2292   -4.1046 O.2       1 <0>        -0.4887
     13 C10        -0.5971    5.8519   -6.0808 C.3       1 <0>         0.2057
     14 C11         0.3520    5.5971   -7.2233 C.ar      1 <0>        -0.0920
     15 C12         1.2505    6.5752   -7.6067 C.ar      1 <0>        -0.0986
     16 C13         2.1211    6.3415   -8.6547 C.ar      1 <0>        -0.1235
     17 C14         2.0935    5.1295   -9.3191 C.ar      1 <0>        -0.1061
     18 C15         1.1956    4.1511   -8.9351 C.ar      1 <0>        -0.1253
     19 C16         0.3279    4.3833   -7.8843 C.ar      1 <0>        -0.0776
     20 C17        -0.9260    7.3447   -6.0142 C.3       1 <0>        -0.0995
     21 C18        -1.5790    7.7820   -7.3269 C.3       1 <0>        -0.1096
     22 C19        -1.9079    9.2748   -7.2604 C.3       1 <0>        -0.1192
     23 C20        -2.8715    9.5335   -6.1004 C.3       1 <0>        -0.1218
     24 C21        -2.2185    9.0961   -4.7877 C.3       1 <0>        -0.1141
     25 C22        -1.8896    7.6034   -4.8543 C.3       1 <0>        -0.1262
     26 O3         -1.7997    5.1079   -6.2856 O.3       1 <0>        -0.5275
     27 H1         -1.8650   -0.9086   -0.8604 H         1 <0>         0.0562
     28 H2         -1.0816   -1.9799    0.3257 H         1 <0>         0.0612
     29 H3         -1.9818   -0.5474    0.8786 H         1 <0>         0.0647
     30 H4         -0.3232    0.9402   -0.1267 H         1 <0>         0.0756
     31 H5          0.5140   -0.2276    0.9238 H         1 <0>         0.0815
     32 H6          0.0625   -2.5410   -0.9510 H         1 <0>         0.0441
     33 H7          1.5087   -2.3332   -1.9676 H         1 <0>         0.0758
     34 H8          1.3939   -1.9667    1.0605 H         1 <0>         0.0557
     35 H9          2.0924   -3.3656    0.2100 H         1 <0>         0.0609
     36 H10         2.8401   -1.7589    0.0439 H         1 <0>         0.0634
     37 H11         0.5392   -0.7949   -3.2156 H         1 <0>         0.1003
     38 H12        -0.9724   -0.4399   -2.3454 H         1 <0>         0.0714
     39 H13         0.1566    4.3822   -2.3518 H         1 <0>         0.0939
     40 H14         1.6681    4.0271   -3.2221 H         1 <0>         0.0922
     41 H15         1.2721    7.5220   -7.0877 H         1 <0>         0.1286
     42 H16         2.8226    7.1058   -8.9547 H         1 <0>         0.1274
     43 H17         2.7732    4.9472  -10.1383 H         1 <0>         0.1253
     44 H18         1.1737    3.2044   -9.4543 H         1 <0>         0.1263
     45 H19        -0.3711    3.6175   -7.5819 H         1 <0>         0.1332
     46 H20        -0.0086    7.9123   -5.8580 H         1 <0>         0.0956
     47 H21        -0.8926    7.5977   -8.1533 H         1 <0>         0.0701
     48 H22        -2.4964    7.2145   -7.4831 H         1 <0>         0.0723
     49 H23        -0.9906    9.8424   -7.1042 H         1 <0>         0.0621
     50 H24        -2.3732    9.5864   -8.1956 H         1 <0>         0.0653
     51 H25        -3.1058   10.5969   -6.0530 H         1 <0>         0.0629
     52 H26        -3.7889    8.9659   -6.2566 H         1 <0>         0.0627
     53 H27        -1.3011    9.6637   -4.6315 H         1 <0>         0.0647
     54 H28        -2.9049    9.2804   -3.9613 H         1 <0>         0.0647
     55 H29        -2.8069    7.0358   -5.0105 H         1 <0>         0.0642
     56 H30        -1.4243    7.2918   -3.9191 H         1 <0>         0.0681
     57 H31        -2.4580    5.2241   -5.5868 H         1 <0>         0.3845
@<TRIPOS>BOND
     1    1    2 1
     2    1   27 1
     3    1   28 1
     4    1   29 1
     5    2    3 1
     6    2   30 1
     7    2   31 1
     8    3    4 1
     9    3    6 1
    10    4    5 1
    11    4   32 1
    12    4   33 1
    13    5   34 1
    14    5   35 1
    15    5   36 1
    16    6    7 1
    17    6   37 1
    18    6   38 1
    19    7    8 3
    20    8    9 1
    21    9   10 1
    22    9   39 1
    23    9   40 1
    24   10   11 1
    25   11   12 2
    26   11   13 1
    27   13   14 1
    28   13   20 1
    29   13   26 1
    30   14   19 ar
    31   14   15 ar
    32   15   16 ar
    33   15   41 1
    34   16   17 ar
    35   16   42 1
    36   17   18 ar
    37   17   43 1
    38   18   19 ar
    39   18   44 1
    40   19   45 1
    41   20   25 1
    42   20   21 1
    43   20   46 1
    44   21   22 1
    45   21   47 1
    46   21   48 1
    47   22   23 1
    48   22   49 1
    49   22   50 1
    50   23   24 1
    51   23   51 1
    52   23   52 1
    53   24   25 1
    54   24   53 1
    55   24   54 1
    56   25   55 1
    57   25   56 1
    58   26   57 1
@<TRIPOS>MOLECULE
ZINC13782937
   54    56     0     0     0
SMALL
USER_CHARGES

@<TRIPOS>ATOM
      1 C1          0.0233    1.5257   -0.0147 C.3       1 <0>        -0.1817
      2 C2          0.0021   -0.0041    0.0020 C.3       1 <0>         0.0110
      3 C3          0.6900   -0.5374   -1.2563 C.3       1 <0>        -0.1813
      4 N1          0.7126   -0.4907    1.1921 N.4       1 <0>        -0.2720
      5 C4          0.0234   -0.0448    2.4322 C.3       1 <0>         0.0359
      6 H1          0.2382    0.9966    2.6719 H         1 <0>         0.1468
      7 C5          0.5377   -1.0135    3.5219 C.3       1 <0>        -0.1443
      8 C6          0.9480   -2.2883    2.7558 C.3       1 <0>        -0.1370
      9 C7          0.6442   -1.9741    1.2728 C.3       1 <0>         0.0353
     10 H2          1.3495   -2.4569    0.5963 H         1 <0>         0.1501
     11 C8         -0.8125   -2.3787    0.9952 C.3       1 <0>        -0.1429
     12 C9         -1.7032   -1.8183    2.1077 C.3       1 <0>         0.0751
     13 C10        -1.4801   -0.2947    2.2329 C.3       1 <0>        -0.1652
     14 O1         -1.3780   -2.4566    3.3441 O.3       1 <0>        -0.3361
     15 C11        -2.3678   -2.5877    4.2411 C.2       1 <0>         0.4590
     16 O2         -3.4738   -2.1741    3.9851 O.2       1 <0>        -0.4682
     17 C12        -2.0997   -3.2507    5.5676 C.3       1 <0>        -0.0382
     18 H3         -1.7586   -4.2724    5.4008 H         1 <0>         0.1279
     19 C13        -1.0206   -2.4691    6.3196 C.3       1 <0>         0.0874
     20 O3         -0.6831   -3.1609    7.5235 O.3       1 <0>        -0.5566
     21 C14        -3.3662   -3.2709    6.3842 C.ar      1 <0>        -0.0822
     22 C15        -3.9918   -2.0846    6.7189 C.ar      1 <0>        -0.0907
     23 C16        -5.1535   -2.1031    7.4679 C.ar      1 <0>        -0.1193
     24 C17        -5.6898   -3.3081    7.8818 C.ar      1 <0>        -0.1075
     25 C18        -5.0647   -4.4945    7.5463 C.ar      1 <0>        -0.1178
     26 C19        -3.9053   -4.4761    6.7937 C.ar      1 <0>        -0.0977
     27 C20         2.1097   -0.0371    1.1815 C.3       1 <0>        -0.0473
     28 H4          1.0557    1.8745   -0.0399 H         1 <0>         0.0820
     29 H5         -0.5039    1.8868   -0.8977 H         1 <0>         0.1038
     30 H6         -0.4668    1.9057    0.8818 H         1 <0>         0.0783
     31 H7         -1.0303   -0.3529    0.0272 H         1 <0>         0.1406
     32 H8          1.7224   -0.1886   -1.2815 H         1 <0>         0.0819
     33 H9          0.6749   -1.6272   -1.2444 H         1 <0>         0.0792
     34 H10         0.1628   -0.1763   -2.1393 H         1 <0>         0.1036
     35 H11         1.3991   -0.5852    4.0343 H         1 <0>         0.0923
     36 H12        -0.2556   -1.2382    4.2348 H         1 <0>         0.1190
     37 H13         2.0111   -2.4868    2.8914 H         1 <0>         0.0938
     38 H14         0.3564   -3.1399    3.0919 H         1 <0>         0.1302
     39 H15        -1.1279   -1.9712    0.0348 H         1 <0>         0.1103
     40 H16        -0.8922   -3.4657    0.9765 H         1 <0>         0.1225
     41 H17        -2.7488   -2.0094    1.8659 H         1 <0>         0.1134
     42 H18        -2.0304    0.0835    3.0944 H         1 <0>         0.1150
     43 H19        -1.8180    0.2135    1.3297 H         1 <0>         0.1099
     44 H20        -0.1340   -2.3782    5.6920 H         1 <0>         0.0592
     45 H21        -1.3957   -1.4754    6.5645 H         1 <0>         0.0540
     46 H22        -0.0030   -2.7214    8.0523 H         1 <0>         0.3903
     47 H23        -3.5728   -1.1432    6.3956 H         1 <0>         0.1125
     48 H24        -5.6419   -1.1762    7.7300 H         1 <0>         0.1246
     49 H25        -6.5970   -3.3226    8.4676 H         1 <0>         0.1263
     50 H26        -5.4835   -5.4359    7.8700 H         1 <0>         0.1274
     51 H27        -3.4190   -5.4032    6.5284 H         1 <0>         0.1231
     52 H28         2.1379    1.0523    1.1599 H         1 <0>         0.1211
     53 H29         2.6151   -0.3959    2.0781 H         1 <0>         0.1211
     54 H30         2.6129   -0.4311    0.2985 H         1 <0>         0.1219
@<TRIPOS>BOND
     1    1    2 1
     2    1   28 1
     3    1   29 1
     4    1   30 1
     5    2    3 1
     6    2    4 1
     7    2   31 1
     8    3   32 1
     9    3   33 1
    10    3   34 1
    11    4    9 1
    12    4    5 1
    13    4   27 1
    14    5    6 1
    15    5   13 1
    16    5    7 1
    17    7    8 1
    18    7   35 1
    19    7   36 1
    20    8    9 1
    21    8   37 1
    22    8   38 1
    23    9   10 1
    24    9   11 1
    25   11   12 1
    26   11   39 1
    27   11   40 1
    28   12   13 1
    29   12   14 1
    30   12   41 1
    31   13   42 1
    32   13   43 1
    33   14   15 1
    34   15   16 2
    35   15   17 1
    36   17   18 1
    37   17   19 1
    38   17   21 1
    39   19   20 1
    40   19   44 1
    41   19   45 1
    42   20   46 1
    43   21   26 ar
    44   21   22 ar
    45   22   23 ar
    46   22   47 1
    47   23   24 ar
    48   23   48 1
    49   24   25 ar
    50   24   49 1
    51   25   26 ar
    52   25   50 1
    53   26   51 1
    54   27   52 1
    55   27   53 1
    56   27   54 1
@<TRIPOS>MOLECULE
ZINC02022527
   54    55     0     0     0
SMALL
USER_CHARGES

@<TRIPOS>ATOM
      1 C1         -3.0730    2.2881   -4.2693 C.3       1 <0>        -0.1569
      2 C2         -2.3049    1.5870   -3.1471 C.3       1 <0>        -0.1270
      3 C3         -2.8110    2.0874   -1.7927 C.3       1 <0>        -0.1231
      4 C4         -2.0429    1.3862   -0.6705 C.3       1 <0>        -0.1174
      5 C5         -2.5490    1.8867    0.6839 C.3       1 <0>        -0.1006
      6 C6         -2.2117    3.3722    0.8391 C.3       1 <0>        -0.1451
      7 C7         -2.6658    3.8518    2.2196 C.3       1 <0>        -0.0114
      8 C8         -2.3347    1.6429    3.1595 C.3       1 <0>        -0.0001
      9 C9         -1.8707    1.0973    1.8070 C.3       1 <0>        -0.1442
     10 C10        -2.2939    3.5901    4.5974 C.3       1 <0>        -0.0052
     11 C11        -2.1583    5.1140    4.5919 C.3       1 <0>        -0.1459
     12 C12        -2.4764    5.6593    5.9856 C.3       1 <0>        -0.1543
     13 C13        -2.3428    7.1604    5.9803 C.2       1 <0>         0.3987
     14 O1         -2.0245    7.7371    4.9623 O.2       1 <0>        -0.4456
     15 C14        -2.5986    7.9263    7.2106 C.ar      1 <0>        -0.1885
     16 C15        -3.0878    7.2813    8.3513 C.ar      1 <0>        -0.0705
     17 C16        -3.3195    8.0047    9.5018 C.ar      1 <0>        -0.1389
     18 C17        -3.0801    9.3679    9.5265 C.ar      1 <0>        -0.0729
     19 C18        -2.6016   10.0143    8.4004 C.ar      1 <0>        -0.1345
     20 C19        -2.3594    9.3036    7.2436 C.ar      1 <0>        -0.0178
     21 C20        -1.8387   10.0095    6.0182 C.3       1 <0>        -0.1264
     22 H1         -4.1363    2.0676   -4.1746 H         1 <0>         0.0549
     23 H2         -2.9175    3.3647   -4.1985 H         1 <0>         0.0540
     24 H3         -2.7125    1.9316   -5.2342 H         1 <0>         0.0581
     25 H4         -1.2417    1.8075   -3.2417 H         1 <0>         0.0621
     26 H5         -2.4605    0.5104   -3.2179 H         1 <0>         0.0631
     27 H6         -3.8743    1.8669   -1.6981 H         1 <0>         0.0644
     28 H7         -2.6555    3.1639   -1.7219 H         1 <0>         0.0632
     29 H8         -2.1984    0.3097   -0.7413 H         1 <0>         0.0733
     30 H9         -0.9796    1.6067   -0.7651 H         1 <0>         0.0688
     31 H10        -3.6287    1.7492    0.7427 H         1 <0>         0.0884
     32 H11        -1.1354    3.5132    0.7407 H         1 <0>         0.0881
     33 H12        -2.7264    3.9447    0.0675 H         1 <0>         0.1133
     34 H13        -3.7442    3.7233    2.3122 H         1 <0>         0.1295
     35 H14        -2.4142    4.9057    2.3388 H         1 <0>         0.1342
     36 H15        -3.4146    1.5248    3.2476 H         1 <0>         0.1293
     37 H16        -1.8426    1.0924    3.9613 H         1 <0>         0.1282
     38 H17        -2.1418    0.0446    1.7270 H         1 <0>         0.1118
     39 H18        -0.7890    1.2025    1.7239 H         1 <0>         0.0880
     40 H19        -3.3133    3.3170    4.8704 H         1 <0>         0.1315
     41 H20        -1.5979    3.1659    5.3211 H         1 <0>         0.1302
     42 H21        -1.1389    5.3871    4.3190 H         1 <0>         0.0944
     43 H22        -2.8542    5.5382    3.8682 H         1 <0>         0.0968
     44 H23        -3.4115    5.4088    6.2361 H         1 <0>         0.0981
     45 H24        -1.7805    5.2352    6.7093 H         1 <0>         0.1100
     46 H25        -3.2793    6.2186    8.3321 H         1 <0>         0.1290
     47 H26        -3.6933    7.5074   10.3846 H         1 <0>         0.1322
     48 H27        -3.2682    9.9300   10.4293 H         1 <0>         0.1326
     49 H28        -2.4176   11.0782    8.4274 H         1 <0>         0.1332
     50 H29        -2.6709   10.2515    5.3572 H         1 <0>         0.0784
     51 H30        -1.3321   10.9277    6.3156 H         1 <0>         0.0652
     52 H31        -1.1365    9.3600    5.4956 H         1 <0>         0.0893
     53 N1         -1.9588    3.0696    3.2558 N.4       1 <0>        -0.3931
     54 H32        -0.9467    3.1581    3.1071 H         1 <0>         0.4272
@<TRIPOS>BOND
     1    1    2 1
     2    1   22 1
     3    1   23 1
     4    1   24 1
     5    2    3 1
     6    2   25 1
     7    2   26 1
     8    3    4 1
     9    3   27 1
    10    3   28 1
    11    4    5 1
    12    4   29 1
    13    4   30 1
    14    5    9 1
    15    5    6 1
    16    5   31 1
    17    6    7 1
    18    6   32 1
    19    6   33 1
    20    7   34 1
    21    7   35 1
    22    7   53 1
    23    8    9 1
    24    8   36 1
    25    8   37 1
    26    8   53 1
    27    9   38 1
    28    9   39 1
    29   10   11 1
    30   10   40 1
    31   10   41 1
    32   10   53 1
    33   11   12 1
    34   11   42 1
    35   11   43 1
    36   12   13 1
    37   12   44 1
    38   12   45 1
    39   13   14 2
    40   13   15 1
    41   15   20 ar
    42   15   16 ar
    43   16   17 ar
    44   16   46 1
    45   17   18 ar
    46   17   47 1
    47   18   19 ar
    48   18   48 1
    49   19   20 ar
    50   19   49 1
    51   20   21 1
    52   21   50 1
    53   21   51 1
    54   21   52 1
    55   53   54 1
@<TRIPOS>MOLECULE
ZINC02516022
   32    32     0     0     0
SMALL
USER_CHARGES

@<TRIPOS>ATOM
      1 C1          0.3388    1.5532   -0.3086 C.3       1 <0>        -0.1547
      2 C2          0.2600    0.0293   -0.1965 C.3       1 <0>         0.0410
      3 H1         -0.7802   -0.2950   -0.1665 H         1 <0>         0.0876
      4 C3          0.9967   -0.6357   -1.3804 C.3       1 <0>         0.0764
      5 H2          1.7493    0.0385   -1.7892 H         1 <0>         0.0826
      6 C4          1.6669   -1.8794   -0.7546 C.3       1 <0>        -0.1422
      7 C5          1.2558   -1.8186    0.7333 C.3       1 <0>         0.0485
      8 H3          0.3688   -2.4278    0.9070 H         1 <0>         0.0956
      9 O1          0.9626   -0.4252    0.9806 O.3       1 <0>        -0.3661
     10 C6          2.4072   -2.2900    1.6237 C.3       1 <0>        -0.0004
     11 N1          1.9433   -2.3862    3.0141 N.4       1 <0>        -0.2703
     12 C7          0.8951   -3.4108    3.1108 C.3       1 <0>        -0.0519
     13 C8          3.0698   -2.7548    3.8819 C.3       1 <0>        -0.0450
     14 C9          1.4009   -1.0892    3.4403 C.3       1 <0>        -0.0444
     15 O2          0.0676   -1.0216   -2.3952 O.3       1 <0>        -0.5551
     16 H4          1.3838    1.8628   -0.3250 H         1 <0>         0.0696
     17 H5         -0.1501    1.8756   -1.2279 H         1 <0>         0.0797
     18 H6         -0.1612    2.0067    0.5472 H         1 <0>         0.0718
     19 H7          1.2892   -2.7907   -1.2183 H         1 <0>         0.1053
     20 H8          2.7507   -1.8200   -0.8541 H         1 <0>         0.0963
     21 H9          2.7503   -3.2681    1.2866 H         1 <0>         0.1420
     22 H10         3.2288   -1.5762    1.5634 H         1 <0>         0.1379
     23 H11         1.2975   -4.3732    2.7946 H         1 <0>         0.1227
     24 H12         0.5508   -3.4823    4.1425 H         1 <0>         0.1247
     25 H13         0.0592   -3.1373    2.4669 H         1 <0>         0.1205
     26 H14         3.8476   -1.9945    3.8102 H         1 <0>         0.1217
     27 H15         2.7256   -2.8262    4.9136 H         1 <0>         0.1236
     28 H16         3.4723   -3.7172    3.5657 H         1 <0>         0.1213
     29 H17         0.4767   -0.8864    2.8992 H         1 <0>         0.1324
     30 H18         1.1972   -1.1146    4.5107 H         1 <0>         0.1162
     31 H19         2.1265   -0.3042    3.2270 H         1 <0>         0.1220
     32 H20        -0.4239   -0.2829   -2.7799 H         1 <0>         0.3910
@<TRIPOS>BOND
     1    1    2 1
     2    1   16 1
     3    1   17 1
     4    1   18 1
     5    2    3 1
     6    2    9 1
     7    2    4 1
     8    4    5 1
     9    4    6 1
    10    4   15 1
    11    6    7 1
    12    6   19 1
    13    6   20 1
    14    7    8 1
    15    7    9 1
    16    7   10 1
    17   10   11 1
    18   10   21 1
    19   10   22 1
    20   11   12 1
    21   11   13 1
    22   11   14 1
    23   12   23 1
    24   12   24 1
    25   12   25 1
    26   13   26 1
    27   13   27 1
    28   13   28 1
    29   14   29 1
    30   14   30 1
    31   14   31 1
    32   15   32 1
@<TRIPOS>MOLECULE
ZINC00057478
   49    52     0     0     0
SMALL
USER_CHARGES
quinuclidin-3-yl 2-hydroxy-2,2-diphenyl-acetate
@<TRIPOS>ATOM
      1 C1          1.4720    2.0015    1.7120 C.ar      1 <0>        -0.1030
      2 C2          1.8758    1.1616    0.6910 C.ar      1 <0>        -0.1147
      3 C3          0.9814    0.2625    0.1411 C.ar      1 <0>        -0.1168
      4 C4         -0.3174    0.2046    0.6107 C.ar      1 <0>        -0.0905
      5 C5         -0.7218    1.0457    1.6304 C.ar      1 <0>        -0.0762
      6 C6          0.1729    1.9442    2.1811 C.ar      1 <0>        -0.1166
      7 C7         -1.2926   -0.7753    0.0108 C.3       1 <0>         0.2533
      8 C8         -1.0593   -2.1418    0.6016 C.ar      1 <0>        -0.1288
      9 C9          0.1993   -2.7112    0.5507 C.ar      1 <0>        -0.0766
     10 C10         0.4144   -3.9627    1.0970 C.ar      1 <0>        -0.1190
     11 C11        -0.6315   -4.6493    1.6848 C.ar      1 <0>        -0.1004
     12 C12        -1.8913   -4.0821    1.7311 C.ar      1 <0>        -0.1192
     13 C13        -2.1052   -2.8284    1.1895 C.ar      1 <0>        -0.1020
     14 C14        -1.0930   -0.8326   -1.4818 C.2       1 <0>         0.4468
     15 O1         -0.3846   -1.6842   -1.9644 O.2       1 <0>        -0.4737
     16 O2         -1.7023    0.0624   -2.2753 O.3       1 <0>        -0.3270
     17 C15        -1.4646   -0.0529   -3.7030 C.3       1 <0>         0.0725
     18 H1         -0.4745   -0.4748   -3.8756 H         1 <0>         0.1215
     19 C16        -2.5281   -0.9599   -4.3287 C.3       1 <0>        -0.0183
     20 C17        -3.9834    0.9338   -4.7344 C.3       1 <0>        -0.0019
     21 C18        -2.9614    1.8944   -4.1200 C.3       1 <0>        -0.1364
     22 C19        -1.5526    1.3339   -4.3524 C.3       1 <0>        -0.0967
     23 C20        -1.3293    1.1822   -5.8624 C.3       1 <0>        -0.1347
     24 C21        -2.3971    0.2417   -6.4281 C.3       1 <0>        -0.0048
     25 O3         -2.6278   -0.3542    0.2970 O.3       1 <0>        -0.5211
     26 H2          2.1710    2.7035    2.1422 H         1 <0>         0.1300
     27 H3          2.8907    1.2067    0.3243 H         1 <0>         0.1296
     28 H4          1.2986   -0.3978   -0.6525 H         1 <0>         0.1211
     29 H5         -1.7366    1.0007    1.9971 H         1 <0>         0.1361
     30 H6         -0.1430    2.6012    2.9780 H         1 <0>         0.1315
     31 H7          1.0154   -2.1766    0.0875 H         1 <0>         0.1253
     32 H8          1.3986   -4.4059    1.0606 H         1 <0>         0.1293
     33 H9         -0.4645   -5.6289    2.1077 H         1 <0>         0.1293
     34 H10        -2.7085   -4.6187    2.1901 H         1 <0>         0.1301
     35 H11        -3.0896   -2.3855    1.2253 H         1 <0>         0.1281
     36 H12        -2.0448   -1.8163   -4.7988 H         1 <0>         0.1413
     37 H13        -3.2111   -1.3076   -3.5536 H         1 <0>         0.1353
     38 H14        -4.6564    0.5726   -3.9568 H         1 <0>         0.1295
     39 H15        -4.5584    1.4553   -5.4996 H         1 <0>         0.1320
     40 H16        -3.1453    1.9877   -3.0497 H         1 <0>         0.1099
     41 H17        -3.0475    2.8731   -4.5920 H         1 <0>         0.1050
     42 H18        -0.8077    1.9998   -3.9167 H         1 <0>         0.1257
     43 H19        -1.4096    2.1571   -6.3432 H         1 <0>         0.1124
     44 H20        -0.3398    0.7631   -6.0450 H         1 <0>         0.1043
     45 H21        -1.9153   -0.6235   -6.8837 H         1 <0>         0.1309
     46 H22        -2.9849    0.7684   -7.1799 H         1 <0>         0.1343
     47 H23        -3.3099   -0.9395   -0.0598 H         1 <0>         0.3849
     48 N1         -3.2990   -0.2219   -5.3524 N.4       1 <0>        -0.3882
     49 H24        -4.0038   -0.8501   -5.7559 H         1 <0>         0.4368
@<TRIPOS>BOND
     1    1    6 ar
     2    1    2 ar
     3    1   26 1
     4    2    3 ar
     5    2   27 1
     6    3    4 ar
     7    3   28 1
     8    4    5 ar
     9    4    7 1
    10    5    6 ar
    11    5   29 1
    12    6   30 1
    13    7    8 1
    14    7   14 1
    15    7   25 1
    16    8   13 ar
    17    8    9 ar
    18    9   10 ar
    19    9   31 1
    20   10   11 ar
    21   10   32 1
    22   11   12 ar
    23   11   33 1
    24   12   13 ar
    25   12   34 1
    26   13   35 1
    27   14   15 2
    28   14   16 1
    29   16   17 1
    30   17   18 1
    31   17   22 1
    32   17   19 1
    33   19   36 1
    34   19   37 1
    35   19   48 1
    36   20   21 1
    37   20   38 1
    38   20   39 1
    39   20   48 1
    40   21   22 1
    41   21   40 1
    42   21   41 1
    43   22   23 1
    44   22   42 1
    45   23   24 1
    46   23   43 1
    47   23   44 1
    48   24   45 1
    49   24   46 1
    50   24   48 1
    51   25   47 1
    52   48   49 1
@<TRIPOS>MOLECULE
ZINC00057479
   49    52     0     0     0
SMALL
USER_CHARGES
quinuclidin-3-yl 2-hydroxy-2,2-diphenyl-acetate
@<TRIPOS>ATOM
      1 C1          0.1683   -0.8233   -3.3647 C.ar      1 <0>        -0.1003
      2 C2         -0.5192   -0.9452   -2.1717 C.ar      1 <0>        -0.1206
      3 C3         -0.1575   -0.1733   -1.0835 C.ar      1 <0>        -0.0993
      4 C4          0.8920    0.7203   -1.1882 C.ar      1 <0>        -0.1324
      5 C5          1.5761    0.8460   -2.3828 C.ar      1 <0>        -0.0766
      6 C6          1.2172    0.0709   -3.4697 C.ar      1 <0>        -0.1211
      7 C7          1.2864    1.5618   -0.0018 C.3       1 <0>         0.2537
      8 C8          1.0779    3.0183   -0.3276 C.ar      1 <0>        -0.0915
      9 C9          1.9720    3.6773   -1.1505 C.ar      1 <0>        -0.1148
     10 C10         1.7784    5.0122   -1.4529 C.ar      1 <0>        -0.1150
     11 C11         0.6958    5.6905   -0.9250 C.ar      1 <0>        -0.1030
     12 C12        -0.1954    5.0328   -0.0978 C.ar      1 <0>        -0.1175
     13 C13        -0.0042    3.6968    0.2010 C.ar      1 <0>        -0.0769
     14 C14         2.7383    1.3225    0.3233 C.2       1 <0>         0.4475
     15 O1          3.4953    0.9410   -0.5376 O.2       1 <0>        -0.4746
     16 O2          3.1905    1.5333    1.5694 O.3       1 <0>        -0.3268
     17 C15         4.6003    1.2824    1.8103 C.3       1 <0>         0.0725
     18 H1          5.1660    1.4714    0.8980 H         1 <0>         0.1212
     19 C16         4.7957   -0.1736    2.2430 C.3       1 <0>        -0.0183
     20 C17         6.7236    0.4252    3.5821 C.3       1 <0>        -0.0050
     21 C18         6.5842    1.9003    3.1846 C.3       1 <0>        -0.1343
     22 C19         5.1031    2.2054    2.9275 C.3       1 <0>        -0.0961
     23 C20         4.3106    1.8963    4.2073 C.3       1 <0>        -0.1364
     24 C21         4.5144    0.4236    4.5738 C.3       1 <0>        -0.0018
     25 O3          0.4812    1.2054    1.1237 O.3       1 <0>        -0.5215
     26 H2         -0.1138   -1.4269   -4.2147 H         1 <0>         0.1288
     27 H3         -1.3387   -1.6439   -2.0896 H         1 <0>         0.1300
     28 H4         -0.6946   -0.2686   -0.1514 H         1 <0>         0.1308
     29 H5          2.3932    1.5473   -2.4659 H         1 <0>         0.1272
     30 H6          1.7546    0.1660   -4.4017 H         1 <0>         0.1287
     31 H7          2.8200    3.1484   -1.5599 H         1 <0>         0.1216
     32 H8          2.4745    5.5259   -2.0994 H         1 <0>         0.1296
     33 H9          0.5460    6.7341   -1.1590 H         1 <0>         0.1298
     34 H10        -1.0413    5.5627    0.3146 H         1 <0>         0.1313
     35 H11        -0.7005    3.1830    0.8472 H         1 <0>         0.1367
     36 H12         3.8303   -0.6791    2.2650 H         1 <0>         0.1352
     37 H13         5.4542   -0.6778    1.5357 H         1 <0>         0.1413
     38 H14         7.1600    0.3561    4.5785 H         1 <0>         0.1344
     39 H15         7.3687   -0.0837    2.8660 H         1 <0>         0.1308
     40 H16         7.1588    2.0893    2.2779 H         1 <0>         0.1040
     41 H17         6.9534    2.5353    3.9899 H         1 <0>         0.1126
     42 H18         4.9674    3.2484    2.6414 H         1 <0>         0.1260
     43 H19         3.2513    2.0866    4.0350 H         1 <0>         0.1099
     44 H20         4.6675    2.5279    5.0208 H         1 <0>         0.1048
     45 H21         3.5511   -0.0864    4.5797 H         1 <0>         0.1294
     46 H22         4.9688    0.3540    5.5622 H         1 <0>         0.1320
     47 H23         0.5651    0.2796    1.3900 H         1 <0>         0.3858
     48 N1          5.4008   -0.2351    3.5909 N.4       1 <0>        -0.3881
     49 H24         5.5211   -1.2193    3.8576 H         1 <0>         0.4368
@<TRIPOS>BOND
     1    1    6 ar
     2    1    2 ar
     3    1   26 1
     4    2    3 ar
     5    2   27 1
     6    3    4 ar
     7    3   28 1
     8    4    5 ar
     9    4    7 1
    10    5    6 ar
    11    5   29 1
    12    6   30 1
    13    7    8 1
    14    7   14 1
    15    7   25 1
    16    8   13 ar
    17    8    9 ar
    18    9   10 ar
    19    9   31 1
    20   10   11 ar
    21   10   32 1
    22   11   12 ar
    23   11   33 1
    24   12   13 ar
    25   12   34 1
    26   13   35 1
    27   14   15 2
    28   14   16 1
    29   16   17 1
    30   17   18 1
    31   17   22 1
    32   17   19 1
    33   19   36 1
    34   19   37 1
    35   19   48 1
    36   20   21 1
    37   20   38 1
    38   20   39 1
    39   20   48 1
    40   21   22 1
    41   21   40 1
    42   21   41 1
    43   22   23 1
    44   22   42 1
    45   23   24 1
    46   23   43 1
    47   23   44 1
    48   24   45 1
    49   24   46 1
    50   24   48 1
    51   25   47 1
    52   48   49 1
@<TRIPOS>MOLECULE
ZINC01996117
   63    67     0     0     0
SMALL
USER_CHARGES

@<TRIPOS>ATOM
      1 C1          6.2679   -0.9746   -3.4775 C.ar      1 <0>        -0.1035
      2 C2          6.2774    0.1494   -2.6728 C.ar      1 <0>        -0.1058
      3 C3          5.4460    0.2173   -1.5705 C.ar      1 <0>        -0.1005
      4 C4          4.6049   -0.8386   -1.2731 C.ar      1 <0>        -0.1025
      5 C5          4.5947   -1.9622   -2.0782 C.ar      1 <0>        -0.1272
      6 C6          5.4271   -2.0307   -3.1798 C.ar      1 <0>        -0.1102
      7 C7          3.6993   -0.7650   -0.0708 C.3       1 <0>         0.0236
      8 C8          2.6283    0.2677   -0.3111 C.ar      1 <0>        -0.0909
      9 C9          2.5129    0.8682   -1.5508 C.ar      1 <0>        -0.0999
     10 C10         1.5305    1.8154   -1.7712 C.ar      1 <0>        -0.1205
     11 C11         0.6633    2.1618   -0.7520 C.ar      1 <0>        -0.1024
     12 C12         0.7781    1.5607    0.4875 C.ar      1 <0>        -0.1224
     13 C13         1.7578    0.6103    0.7066 C.ar      1 <0>        -0.0890
     14 C14         3.0485   -2.1300    0.1619 C.3       1 <0>        -0.0907
     15 H1          2.4325   -2.4056   -0.6941 H         1 <0>         0.1334
     16 C15         2.1954   -2.1050    1.4509 C.3       1 <0>        -0.1547
     17 C16         2.4706   -3.4959    2.0755 C.3       1 <0>        -0.0075
     18 N1          3.9085   -3.7227    1.7802 N.4       1 <0>        -0.3960
     19 C17         4.1269   -3.2007    0.4113 C.3       1 <0>        -0.0193
     20 C18         4.2152   -5.1585    1.8284 C.3       1 <0>        -0.0052
     21 C19         4.0516   -5.6671    3.2621 C.3       1 <0>        -0.0913
     22 C20         4.3663   -7.1400    3.3116 C.ar      1 <0>        -0.1400
     23 C21         3.3641   -8.0709    3.1080 C.ar      1 <0>        -0.0707
     24 C22         3.6475   -9.4201    3.1480 C.ar      1 <0>        -0.1359
     25 C23         4.9469   -9.8570    3.3944 C.ar      1 <0>         0.1259
     26 C24         5.9434   -8.9127    3.6046 C.ar      1 <0>        -0.1703
     27 C25         5.6599   -7.5657    3.5551 C.ar      1 <0>        -0.0581
     28 C26         7.2284   -9.6738    3.8681 C.3       1 <0>        -0.1145
     29 C27         6.7019  -11.0988    4.1605 C.3       1 <0>         0.0488
     30 O1          5.4442  -11.1223    3.4644 O.3       1 <0>        -0.2994
     31 C28         4.5056   -0.3795    1.1426 C.2       1 <0>         0.5197
     32 O2          4.1054    0.4924    1.8847 O.2       1 <0>        -0.4969
     33 N2          5.6714   -1.0036    1.4031 N.am      1 <0>        -0.8651
     34 H2          6.9142   -1.0258   -4.3412 H         1 <0>         0.1309
     35 H3          6.9346    0.9743   -2.9052 H         1 <0>         0.1313
     36 H4          5.4539    1.0951   -0.9414 H         1 <0>         0.1238
     37 H5          3.9381   -2.7874   -1.8455 H         1 <0>         0.1247
     38 H6          5.4195   -2.9087   -3.8086 H         1 <0>         0.1306
     39 H7          3.1904    0.5975   -2.3471 H         1 <0>         0.1262
     40 H8          1.4408    2.2851   -2.7396 H         1 <0>         0.1264
     41 H9         -0.1038    2.9024   -0.9240 H         1 <0>         0.1267
     42 H10         0.1008    1.8317    1.2839 H         1 <0>         0.1264
     43 H11         1.8452    0.1380    1.6739 H         1 <0>         0.1274
     44 H12         2.5281   -1.3099    2.1182 H         1 <0>         0.1084
     45 H13         1.1380   -1.9920    1.2116 H         1 <0>         0.1282
     46 H14         2.2974   -3.4756    3.1515 H         1 <0>         0.1396
     47 H15         1.8551   -4.2597    1.6001 H         1 <0>         0.1404
     48 H16         4.0251   -4.0065   -0.3156 H         1 <0>         0.1453
     49 H17         5.1182   -2.7535    0.3375 H         1 <0>         0.1318
     50 H18         3.5330   -5.6980    1.1714 H         1 <0>         0.1343
     51 H19         5.2415   -5.3220    1.4998 H         1 <0>         0.1314
     52 H20         4.7338   -5.1275    3.9191 H         1 <0>         0.0929
     53 H21         3.0253   -5.5036    3.5907 H         1 <0>         0.0956
     54 H22         2.3540   -7.7396    2.9170 H         1 <0>         0.1333
     55 H23         2.8591  -10.1405    2.9875 H         1 <0>         0.1358
     56 H24         6.4466   -6.8421    3.7101 H         1 <0>         0.1264
     57 H25         7.8714   -9.6690    2.9880 H         1 <0>         0.0954
     58 H26         7.7517   -9.2667    4.7333 H         1 <0>         0.0968
     59 H27         7.3802  -11.8512    3.7580 H         1 <0>         0.1142
     60 H28         6.5538  -11.2438    5.2306 H         1 <0>         0.0839
     61 H29         6.0369   -1.6350    0.7639 H         1 <0>         0.3981
     62 H30         6.1448   -0.8214    2.2299 H         1 <0>         0.4099
     63 H31         4.4827   -3.2205    2.4406 H         1 <0>         0.4229
@<TRIPOS>BOND
     1    1    6 ar
     2    1    2 ar
     3    1   34 1
     4    2    3 ar
     5    2   35 1
     6    3    4 ar
     7    3   36 1
     8    4    5 ar
     9    4    7 1
    10    5    6 ar
    11    5   37 1
    12    6   38 1
    13    7    8 1
    14    7   14 1
    15    7   31 1
    16    8   13 ar
    17    8    9 ar
    18    9   10 ar
    19    9   39 1
    20   10   11 ar
    21   10   40 1
    22   11   12 ar
    23   11   41 1
    24   12   13 ar
    25   12   42 1
    26   13   43 1
    27   14   15 1
    28   14   19 1
    29   14   16 1
    30   16   17 1
    31   16   44 1
    32   16   45 1
    33   17   18 1
    34   17   46 1
    35   17   47 1
    36   18   19 1
    37   18   20 1
    38   18   63 1
    39   19   48 1
    40   19   49 1
    41   20   21 1
    42   20   50 1
    43   20   51 1
    44   21   22 1
    45   21   52 1
    46   21   53 1
    47   22   27 ar
    48   22   23 ar
    49   23   24 ar
    50   23   54 1
    51   24   25 ar
    52   24   55 1
    53   25   30 1
    54   25   26 ar
    55   26   27 ar
    56   26   28 1
    57   27   56 1
    58   28   29 1
    59   28   57 1
    60   28   58 1
    61   29   30 1
    62   29   59 1
    63   29   60 1
    64   31   32 2
    65   31   33 am
    66   33   61 1
    67   33   62 1
@<TRIPOS>MOLECULE
ZINC53041013
   29    30     0     0     0
SMALL
USER_CHARGES

@<TRIPOS>ATOM
      1 C1         -0.0173    1.4248    0.0099 C.3       1 <0>         0.0385
      2 O1          0.0021   -0.0041    0.0020 O.3       1 <0>        -0.2283
      3 N1         -1.2835   -0.5976    0.0111 N.2       1 <0>        -0.2778
      4 C2         -1.4013   -1.8863    0.0053 C.2       1 <0>         0.2326
      5 C3         -0.2316   -2.7122   -0.0103 C.1       1 <0>         0.2101
      6 N2          0.6964   -3.3673   -0.0227 N.1       1 <0>        -0.3662
      7 C4         -2.7695   -2.5179    0.0150 C.3       1 <0>        -0.0589
      8 H1         -2.8462   -3.2104    0.8533 H         1 <0>         0.1104
      9 C5         -3.8369   -1.4281    0.1502 C.3       1 <0>         0.0530
     10 N3         -4.7228   -1.4658   -1.0211 N.3       1 <0>        -0.5245
     11 C6         -3.9767   -1.1890   -2.2564 C.3       1 <0>         0.0535
     12 C7         -2.9127   -2.2713   -2.4599 C.3       1 <0>        -0.1531
     13 C8         -2.9953   -3.2754   -1.2996 C.3       1 <0>        -0.0825
     14 C9         -4.4038   -3.8826   -1.2786 C.3       1 <0>        -0.1472
     15 C10        -5.4271   -2.7524   -1.1092 C.3       1 <0>         0.0481
     16 H2          1.0053    1.8021    0.0021 H         1 <0>         0.1031
     17 H3         -0.5445    1.7859   -0.8732 H         1 <0>         0.0574
     18 H4         -0.5275    1.7763    0.9067 H         1 <0>         0.0581
     19 H5         -4.4213   -1.6016    1.0538 H         1 <0>         0.0881
     20 H6         -3.3548   -0.4524    0.2103 H         1 <0>         0.1042
     21 H7         -4.6627   -1.1896   -3.1035 H         1 <0>         0.0787
     22 H8         -3.4943   -0.2146   -2.1793 H         1 <0>         0.0786
     23 H9         -3.0929   -2.7879   -3.4026 H         1 <0>         0.0726
     24 H10        -1.9239   -1.8129   -2.4757 H         1 <0>         0.0625
     25 H11        -2.2409   -4.0532   -1.4183 H         1 <0>         0.0837
     26 H12        -4.5891   -4.4075   -2.2157 H         1 <0>         0.0738
     27 H13        -4.4888   -4.5792   -0.4446 H         1 <0>         0.0717
     28 H14        -6.0005   -2.9164   -0.1969 H         1 <0>         0.0802
     29 H15        -6.1013   -2.7400   -1.9656 H         1 <0>         0.0794
@<TRIPOS>BOND
     1    1    2 1
     2    1   16 1
     3    1   17 1
     4    1   18 1
     5    2    3 1
     6    3    4 2
     7    4    5 1
     8    4    7 1
     9    5    6 3
    10    7    8 1
    11    7   13 1
    12    7    9 1
    13    9   10 1
    14    9   19 1
    15    9   20 1
    16   10   15 1
    17   10   11 1
    18   11   12 1
    19   11   21 1
    20   11   22 1
    21   12   13 1
    22   12   23 1
    23   12   24 1
    24   13   14 1
    25   13   25 1
    26   14   15 1
    27   14   26 1
    28   14   27 1
    29   15   28 1
    30   15   29 1
@<TRIPOS>MOLECULE
ZINC00968336
   56    57     0     0     0
SMALL
USER_CHARGES

@<TRIPOS>ATOM
      1 C1          2.4412    1.0226    2.8896 C.3       1 <0>        -0.1195
      2 C2          1.9321   -0.3816    2.6890 C.ar      1 <0>        -0.0860
      3 C3          2.2025   -1.0521    1.5102 C.ar      1 <0>        -0.0980
      4 C4          1.7366   -2.3390    1.3238 C.ar      1 <0>        -0.1336
      5 C5          0.9971   -2.9590    2.3208 C.ar      1 <0>         0.1081
      6 C6          0.7276   -2.2845    3.5025 C.ar      1 <0>        -0.1060
      7 C7          1.2003   -0.9992    3.6861 C.ar      1 <0>        -0.1038
      8 C8         -0.0753   -2.9549    4.5873 C.3       1 <0>         0.0055
      9 H1         -0.4621   -3.9050    4.2187 H         1 <0>         0.1034
     10 C9         -1.2423   -2.0512    4.9906 C.3       1 <0>        -0.1451
     11 C10        -2.1281   -2.7827    6.0011 C.3       1 <0>        -0.0271
     12 N1         -3.3197   -1.9717    6.2849 N.4       1 <0>        -0.3808
     13 C11        -4.2493   -2.7431    7.1207 C.3       1 <0>         0.0221
     14 C12        -5.5502   -1.9570    7.2958 C.3       1 <0>        -0.1831
     15 C13        -4.5500   -4.0830    6.4460 C.3       1 <0>        -0.1853
     16 C14        -2.9220   -0.7489    6.9951 C.3       1 <0>         0.0164
     17 C15        -1.6530   -1.0198    7.8058 C.3       1 <0>        -0.1933
     18 C16        -2.6515    0.3647    5.9814 C.3       1 <0>        -0.1958
     19 C17         0.8058   -3.2019    5.7847 C.ar      1 <0>        -0.0910
     20 C18         1.2808   -2.1355    6.5250 C.ar      1 <0>        -0.1234
     21 C19         2.0891   -2.3620    7.6233 C.ar      1 <0>        -0.1125
     22 C20         2.4220   -3.6549    7.9815 C.ar      1 <0>        -0.1133
     23 C21         1.9462   -4.7214    7.2418 C.ar      1 <0>        -0.1102
     24 C22         1.1345   -4.4950    6.1460 C.ar      1 <0>        -0.1148
     25 O1          0.5372   -4.2249    2.1396 O.3       1 <0>        -0.4973
     26 H2          3.4315    0.9886    3.3438 H         1 <0>         0.0751
     27 H3          2.5007    1.5286    1.9259 H         1 <0>         0.0718
     28 H4          1.7598    1.5662    3.5439 H         1 <0>         0.0662
     29 H5          2.7781   -0.5690    0.7346 H         1 <0>         0.1310
     30 H6          1.9474   -2.8620    0.4027 H         1 <0>         0.1335
     31 H7          0.9942   -0.4751    4.6076 H         1 <0>         0.1224
     32 H8         -0.8552   -1.1374    5.4412 H         1 <0>         0.0993
     33 H9         -1.8295   -1.8003    4.1073 H         1 <0>         0.0930
     34 H10        -2.4330   -3.7442    5.5880 H         1 <0>         0.1355
     35 H11        -1.5703   -2.9439    6.9235 H         1 <0>         0.1395
     36 H12        -3.7981   -2.9210    8.0969 H         1 <0>         0.1344
     37 H13        -6.0337   -1.8342    6.3266 H         1 <0>         0.0821
     38 H14        -6.2152   -2.4999    7.9674 H         1 <0>         0.1060
     39 H15        -5.3284   -0.9769    7.7180 H         1 <0>         0.0803
     40 H16        -5.0012   -3.9051    5.4699 H         1 <0>         0.0816
     41 H17        -3.6233   -4.6431    6.3213 H         1 <0>         0.0831
     42 H18        -5.2398   -4.6554    7.0662 H         1 <0>         0.1054
     43 H19        -3.7236   -0.4419    7.6669 H         1 <0>         0.1390
     44 H20        -0.8183   -1.1939    7.1268 H         1 <0>         0.0923
     45 H21        -1.4343   -0.1585    8.4370 H         1 <0>         0.1025
     46 H22        -1.8024   -1.9000    8.4312 H         1 <0>         0.0786
     47 H23        -3.5595    0.5673    5.4134 H         1 <0>         0.0821
     48 H24        -2.3429    1.2680    6.5076 H         1 <0>         0.1057
     49 H25        -1.8595    0.0520    5.3009 H         1 <0>         0.0892
     50 H26         1.0207   -1.1253    6.2451 H         1 <0>         0.1201
     51 H27         2.4608   -1.5288    8.2012 H         1 <0>         0.1255
     52 H28         3.0540   -3.8319    8.8392 H         1 <0>         0.1264
     53 H29         2.2066   -5.7315    7.5215 H         1 <0>         0.1270
     54 H30         0.7597   -5.3284    5.5702 H         1 <0>         0.1239
     55 H31         1.1480   -4.9120    2.4395 H         1 <0>         0.3924
     56 H32        -3.7728   -1.7248    5.4178 H         1 <0>         0.4196
@<TRIPOS>BOND
     1    1    2 1
     2    1   26 1
     3    1   27 1
     4    1   28 1
     5    2    7 ar
     6    2    3 ar
     7    3    4 ar
     8    3   29 1
     9    4    5 ar
    10    4   30 1
    11    5    6 ar
    12    5   25 1
    13    6    7 ar
    14    6    8 1
    15    7   31 1
    16    8    9 1
    17    8   10 1
    18    8   19 1
    19   10   11 1
    20   10   32 1
    21   10   33 1
    22   11   12 1
    23   11   34 1
    24   11   35 1
    25   12   13 1
    26   12   16 1
    27   12   56 1
    28   13   14 1
    29   13   15 1
    30   13   36 1
    31   14   37 1
    32   14   38 1
    33   14   39 1
    34   15   40 1
    35   15   41 1
    36   15   42 1
    37   16   17 1
    38   16   18 1
    39   16   43 1
    40   17   44 1
    41   17   45 1
    42   17   46 1
    43   18   47 1
    44   18   48 1
    45   18   49 1
    46   19   24 ar
    47   19   20 ar
    48   20   21 ar
    49   20   50 1
    50   21   22 ar
    51   21   51 1
    52   22   23 ar
    53   22   52 1
    54   23   24 ar
    55   23   53 1
    56   24   54 1
    57   25   55 1
@<TRIPOS>MOLECULE
ZINC03079342
   25    24     0     0     0
SMALL
USER_CHARGES

@<TRIPOS>ATOM
      1 C1          0.5385    1.3265   -0.0156 C.3       1 <0>        -0.0552
      2 N1          0.0207   -0.0467    0.0478 N.4       1 <0>        -0.2722
      3 C2          0.5070   -0.6974    1.2718 C.3       1 <0>        -0.0471
      4 C3         -1.4480   -0.0161    0.0600 C.3       1 <0>        -0.0454
      5 C4          0.4850   -0.7999   -1.1248 C.3       1 <0>        -0.0017
      6 C5          2.0115   -0.7313   -1.2033 C.3       1 <0>         0.0515
      7 O1          2.5777   -1.4543   -0.1084 O.3       1 <0>        -0.3772
      8 C6          3.9213   -1.4920   -0.0303 C.2       1 <0>         0.6511
      9 O2          4.5947   -0.9264   -0.8688 O.2       1 <0>        -0.5552
     10 N2          4.5193   -2.1570    0.9780 N.am      1 <0>        -0.8167
     11 H1          1.6283    1.3038   -0.0246 H         1 <0>         0.1211
     12 H2          0.1776    1.8093   -0.9238 H         1 <0>         0.1253
     13 H3          0.1939    1.8853    0.8545 H         1 <0>         0.1262
     14 H4          0.0211   -0.2500    2.1388 H         1 <0>         0.1189
     15 H5          0.2750   -1.7618    1.2342 H         1 <0>         0.1224
     16 H6          1.5859   -0.5633    1.3504 H         1 <0>         0.1286
     17 H7         -1.8089    0.4667   -0.8482 H         1 <0>         0.1227
     18 H8         -1.8322   -1.0351    0.1071 H         1 <0>         0.1229
     19 H9         -1.7926    0.5427    0.9301 H         1 <0>         0.1241
     20 H10         0.1722   -1.8402   -1.0357 H         1 <0>         0.1419
     21 H11         0.0550   -0.3672   -2.0281 H         1 <0>         0.1522
     22 H12         2.3472   -1.1718   -2.1420 H         1 <0>         0.1171
     23 H13         2.3314    0.3096   -1.1555 H         1 <0>         0.0971
     24 H14         3.9817   -2.6085    1.6473 H         1 <0>         0.4117
     25 H15         5.4873   -2.1841    1.0343 H         1 <0>         0.4360
@<TRIPOS>BOND
     1    1    2 1
     2    1   11 1
     3    1   12 1
     4    1   13 1
     5    2    3 1
     6    2    4 1
     7    2    5 1
     8    3   14 1
     9    3   15 1
    10    3   16 1
    11    4   17 1
    12    4   18 1
    13    4   19 1
    14    5    6 1
    15    5   20 1
    16    5   21 1
    17    6    7 1
    18    6   22 1
    19    6   23 1
    20    7    8 1
    21    8    9 2
    22    8   10 am
    23   10   24 1
    24   10   25 1
@<TRIPOS>MOLECULE
ZINC22454198
   63    66     0     0     0
SMALL
USER_CHARGES

@<TRIPOS>ATOM
      1 C1          3.7363   -2.4652    4.4496 C.3       1 <0>        -0.1796
      2 C2          2.9845   -1.9903    3.2045 C.3       1 <0>        -0.0557
      3 N1          1.9173   -2.9469    2.8822 N.4       1 <0>        -0.3766
      4 C3          0.9693   -3.0185    4.0021 C.3       1 <0>        -0.0205
      5 C4         -0.0535   -4.1245    3.7345 C.3       1 <0>        -0.1879
      6 C5          1.2126   -2.5048    1.6715 C.3       1 <0>        -0.0145
      7 C6          2.1525   -2.6063    0.4685 C.3       1 <0>         0.0555
      8 H1          1.6017   -2.3748   -0.4432 H         1 <0>         0.0958
      9 C7          2.7136   -4.0272    0.3784 C.3       1 <0>        -0.1243
     10 C8          3.6690   -4.1187   -0.8148 C.3       1 <0>        -0.1226
     11 C9          4.7828   -3.0814   -0.6474 C.3       1 <0>        -0.1192
     12 C10         4.1616   -1.6879   -0.5275 C.3       1 <0>         0.0474
     13 N2          3.2569   -1.6519    0.6286 N.3       1 <0>        -0.5201
     14 C11         2.7491   -0.2926    0.8574 C.3       1 <0>         0.0145
     15 C12         3.8621    0.5778    1.3816 C.2       1 <0>         0.5305
     16 O1          4.9649    0.1075    1.5643 O.2       1 <0>        -0.4785
     17 N3          3.6318    1.8789    1.6473 N.am      1 <0>        -0.5093
     18 C13         4.6781    2.7203    2.0213 C.ar      1 <0>         0.1608
     19 C14         5.4159    2.4454    3.1637 C.ar      1 <0>        -0.1021
     20 C15         6.4274    3.2993    3.5569 C.ar      1 <0>        -0.0762
     21 C16         6.7098    4.4353    2.8164 C.ar      1 <0>        -0.1135
     22 C17         5.9968    4.7149    1.6709 C.ar      1 <0>        -0.0462
     23 C18         4.9822    3.8500    1.2493 C.ar      1 <0>        -0.1376
     24 C19         4.2858    4.1039   -0.0175 C.2       1 <0>         0.5680
     25 O2          4.9500    4.5470   -0.9343 O.2       1 <0>        -0.5066
     26 N4          2.9995    3.8935   -0.2523 N.am      1 <0>        -0.6555
     27 C20         2.0490    3.4215    0.6482 C.ar      1 <0>         0.1169
     28 C21         2.3415    2.4057    1.5464 C.ar      1 <0>         0.3044
     29 N5          1.3913    1.9274    2.3381 N.ar      1 <0>        -0.4788
     30 C22         0.1668    2.4167    2.3331 C.ar      1 <0>         0.1077
     31 C23        -0.1775    3.4577    1.4943 C.ar      1 <0>        -0.1319
     32 C24         0.7704    3.9710    0.6406 C.ar      1 <0>        -0.0799
     33 H2          4.0753   -3.4903    4.3003 H         1 <0>         0.0751
     34 H3          4.5972   -1.8193    4.6226 H         1 <0>         0.1013
     35 H4          3.0720   -2.4242    5.3128 H         1 <0>         0.0723
     36 H5          2.5481   -1.0099    3.3955 H         1 <0>         0.1151
     37 H6          3.6772   -1.9225    2.3656 H         1 <0>         0.1891
     38 H7          1.5102   -3.2387    4.9225 H         1 <0>         0.1325
     39 H8          0.4537   -2.0635    4.1033 H         1 <0>         0.1266
     40 H9          0.4559   -5.0870    3.6880 H         1 <0>         0.0801
     41 H10        -0.7892   -4.1412    4.5386 H         1 <0>         0.1052
     42 H11        -0.5559   -3.9331    2.7863 H         1 <0>         0.0778
     43 H12         0.3413   -3.1386    1.5064 H         1 <0>         0.1413
     44 H13         0.8913   -1.4706    1.7954 H         1 <0>         0.1304
     45 H14         3.2530   -4.2644    1.2954 H         1 <0>         0.0670
     46 H15         1.8948   -4.7340    0.2440 H         1 <0>         0.0883
     47 H16         4.1043   -5.1171   -0.8571 H         1 <0>         0.0798
     48 H17         3.1213   -3.9198   -1.7360 H         1 <0>         0.0707
     49 H18         5.3547   -3.3036    0.2535 H         1 <0>         0.0770
     50 H19         5.4423   -3.1125   -1.5147 H         1 <0>         0.0810
     51 H20         4.9513   -0.9486   -0.3939 H         1 <0>         0.0973
     52 H21         3.6013   -1.4608   -1.4345 H         1 <0>         0.0471
     53 H22         2.3772    0.1190   -0.0809 H         1 <0>         0.0811
     54 H23         1.9393   -0.3251    1.5862 H         1 <0>         0.1188
     55 H24         5.1986    1.5625    3.7465 H         1 <0>         0.1332
     56 H25         7.0006    3.0806    4.4458 H         1 <0>         0.1409
     57 H26         7.4928    5.1057    3.1388 H         1 <0>         0.1431
     58 H27         6.2215    5.6028    1.0986 H         1 <0>         0.1441
     59 H28         2.6857    4.0898   -1.1489 H         1 <0>         0.4167
     60 H29        -0.5772    1.9971    2.9940 H         1 <0>         0.1727
     61 H30        -1.1778    3.8645    1.5105 H         1 <0>         0.1559
     62 H31         0.5230    4.7829   -0.0272 H         1 <0>         0.1552
     63 H32         2.3196   -3.8585    2.7233 H         1 <0>         0.4189
@<TRIPOS>BOND
     1    1    2 1
     2    1   33 1
     3    1   34 1
     4    1   35 1
     5    2    3 1
     6    2   36 1
     7    2   37 1
     8    3    4 1
     9    3    6 1
    10    3   63 1
    11    4    5 1
    12    4   38 1
    13    4   39 1
    14    5   40 1
    15    5   41 1
    16    5   42 1
    17    6    7 1
    18    6   43 1
    19    6   44 1
    20    7    8 1
    21    7   13 1
    22    7    9 1
    23    9   10 1
    24    9   45 1
    25    9   46 1
    26   10   11 1
    27   10   47 1
    28   10   48 1
    29   11   12 1
    30   11   49 1
    31   11   50 1
    32   12   13 1
    33   12   51 1
    34   12   52 1
    35   13   14 1
    36   14   15 1
    37   14   53 1
    38   14   54 1
    39   15   16 2
    40   15   17 am
    41   17   28 1
    42   17   18 1
    43   18   23 ar
    44   18   19 ar
    45   19   20 ar
    46   19   55 1
    47   20   21 ar
    48   20   56 1
    49   21   22 ar
    50   21   57 1
    51   22   23 ar
    52   22   58 1
    53   23   24 1
    54   24   25 2
    55   24   26 am
    56   26   27 1
    57   26   59 1
    58   27   32 ar
    59   27   28 ar
    60   28   29 ar
    61   29   30 ar
    62   30   31 ar
    63   30   60 1
    64   31   32 ar
    65   31   61 1
    66   32   62 1
@<TRIPOS>MOLECULE
ZINC22454203
   63    66     0     0     0
SMALL
USER_CHARGES

@<TRIPOS>ATOM
      1 C1          2.3844   -0.5288    2.8835 C.3       1 <0>        -0.1884
      2 C2          2.6615   -2.0249    2.7225 C.3       1 <0>        -0.0230
      3 N1          1.3938   -2.7384    2.5180 N.4       1 <0>        -0.3829
      4 C3          0.5122   -2.5105    3.6707 C.3       1 <0>        -0.0177
      5 C4          1.1417   -3.1234    4.9233 C.3       1 <0>        -0.1865
      6 C5          0.7434   -2.2414    1.2982 C.3       1 <0>        -0.0210
      7 C6          1.6030   -2.5930    0.0824 C.3       1 <0>         0.0658
      8 H1          2.5922   -2.1497    0.1965 H         1 <0>         0.0673
      9 C7          1.7351   -4.1138   -0.0261 C.3       1 <0>        -0.1263
     10 C8          2.5792   -4.4615   -1.2554 C.3       1 <0>        -0.1208
     11 C9          1.9227   -3.8616   -2.5018 C.3       1 <0>        -0.1199
     12 C10         1.7851   -2.3481   -2.3216 C.3       1 <0>         0.0567
     13 N2          0.9688   -2.0678   -1.1335 N.3       1 <0>        -0.5060
     14 C11         0.6997   -0.6292   -1.0075 C.3       1 <0>         0.0280
     15 C12        -0.2574   -0.2005   -2.0898 C.2       1 <0>         0.5313
     16 O1         -0.7602   -1.0298   -2.8180 O.2       1 <0>        -0.4731
     17 N3         -0.5547    1.1045   -2.2484 N.am      1 <0>        -0.5141
     18 C13        -1.5127    1.5036   -3.1787 C.ar      1 <0>         0.1642
     19 C14        -1.3406    1.2078   -4.5233 C.ar      1 <0>        -0.1026
     20 C15        -2.2693    1.6364   -5.4511 C.ar      1 <0>        -0.0744
     21 C16        -3.3753    2.3657   -5.0466 C.ar      1 <0>        -0.1154
     22 C17        -3.5691    2.6549   -3.7134 C.ar      1 <0>        -0.0474
     23 C18        -2.6476    2.2115   -2.7597 C.ar      1 <0>        -0.1411
     24 C19        -2.9034    2.4447   -1.3334 C.2       1 <0>         0.5707
     25 O2         -4.0572    2.3654   -0.9585 O.2       1 <0>        -0.5104
     26 N4         -1.9910    2.7332   -0.4177 N.am      1 <0>        -0.6551
     27 C20        -0.6242    2.9005   -0.6197 C.ar      1 <0>         0.1102
     28 C21         0.0889    2.0770   -1.4786 C.ar      1 <0>         0.3092
     29 N5          1.4031    2.2148   -1.5897 N.ar      1 <0>        -0.4700
     30 C22         2.0649    3.1482   -0.9342 C.ar      1 <0>         0.1109
     31 C23         1.4081    4.0281   -0.0975 C.ar      1 <0>        -0.1366
     32 C24         0.0479    3.9086    0.0649 C.ar      1 <0>        -0.0827
     33 H2          1.7033   -0.3735    3.7202 H         1 <0>         0.0839
     34 H3          3.3207   -0.0045    3.0750 H         1 <0>         0.1078
     35 H4          1.9320   -0.1427    1.9701 H         1 <0>         0.0745
     36 H5          3.3107   -2.1836    1.8614 H         1 <0>         0.1300
     37 H6          3.1503   -2.4026    3.6205 H         1 <0>         0.1356
     38 H7          0.3775   -1.4391    3.8189 H         1 <0>         0.1313
     39 H8         -0.4558   -2.9762    3.4855 H         1 <0>         0.1320
     40 H9          2.0590   -2.5880    5.1681 H         1 <0>         0.0811
     41 H10         0.4427   -3.0463    5.7561 H         1 <0>         0.1073
     42 H11         1.3718   -4.1726    4.7380 H         1 <0>         0.0805
     43 H12        -0.2381   -2.7042    1.1954 H         1 <0>         0.1434
     44 H13         0.6298   -1.1592    1.3622 H         1 <0>         0.1301
     45 H14         2.2199   -4.5017    0.8698 H         1 <0>         0.0627
     46 H15         0.7452   -4.5588   -0.1266 H         1 <0>         0.0911
     47 H16         3.5814   -4.0495   -1.1375 H         1 <0>         0.0652
     48 H17         2.6397   -5.5447   -1.3611 H         1 <0>         0.0790
     49 H18         2.5414   -4.0694   -3.3748 H         1 <0>         0.0795
     50 H19         0.9357   -4.3027   -2.6413 H         1 <0>         0.0802
     51 H20         2.7734   -1.9060   -2.1960 H         1 <0>         0.0424
     52 H21         1.3050   -1.9198   -3.2015 H         1 <0>         0.0945
     53 H22         0.2590   -0.4261   -0.0315 H         1 <0>         0.0980
     54 H23         1.6328   -0.0748   -1.1073 H         1 <0>         0.0911
     55 H24        -0.4789    0.6417   -4.8448 H         1 <0>         0.1348
     56 H25        -2.1325    1.4023   -6.4965 H         1 <0>         0.1412
     57 H26        -4.0894    2.7097   -5.7802 H         1 <0>         0.1425
     58 H27        -4.4332    3.2246   -3.4048 H         1 <0>         0.1431
     59 H28        -2.3100    2.8396    0.4921 H         1 <0>         0.4138
     60 H29         3.1355    3.2250   -1.0532 H         1 <0>         0.1728
     61 H30         1.9558    4.8012    0.4208 H         1 <0>         0.1545
     62 H31        -0.4866    4.5833    0.7172 H         1 <0>         0.1534
     63 H32         1.5754   -3.7264    2.4236 H         1 <0>         0.4239
@<TRIPOS>BOND
     1    1    2 1
     2    1   33 1
     3    1   34 1
     4    1   35 1
     5    2    3 1
     6    2   36 1
     7    2   37 1
     8    3    4 1
     9    3    6 1
    10    3   63 1
    11    4    5 1
    12    4   38 1
    13    4   39 1
    14    5   40 1
    15    5   41 1
    16    5   42 1
    17    6    7 1
    18    6   43 1
    19    6   44 1
    20    7    8 1
    21    7   13 1
    22    7    9 1
    23    9   10 1
    24    9   45 1
    25    9   46 1
    26   10   11 1
    27   10   47 1
    28   10   48 1
    29   11   12 1
    30   11   49 1
    31   11   50 1
    32   12   13 1
    33   12   51 1
    34   12   52 1
    35   13   14 1
    36   14   15 1
    37   14   53 1
    38   14   54 1
    39   15   16 2
    40   15   17 am
    41   17   28 1
    42   17   18 1
    43   18   23 ar
    44   18   19 ar
    45   19   20 ar
    46   19   55 1
    47   20   21 ar
    48   20   56 1
    49   21   22 ar
    50   21   57 1
    51   22   23 ar
    52   22   58 1
    53   23   24 1
    54   24   25 2
    55   24   26 am
    56   26   27 1
    57   26   59 1
    58   27   32 ar
    59   27   28 ar
    60   28   29 ar
    61   29   30 ar
    62   30   31 ar
    63   30   60 1
    64   31   32 ar
    65   31   61 1
    66   32   62 1
@<TRIPOS>MOLECULE
ZINC02017910
   47    50     0     0     0
SMALL
USER_CHARGES
quinuclidin-3-yl diphenylaminoformate
@<TRIPOS>ATOM
      1 C1          2.9883   -2.8694    0.4903 C.ar      1 <0>        -0.1073
      2 C2          2.0356   -2.6907    1.4766 C.ar      1 <0>        -0.1053
      3 C3          1.0447   -1.7419    1.3177 C.ar      1 <0>        -0.1094
      4 C4          1.0056   -0.9670    0.1661 C.ar      1 <0>         0.1179
      5 C5          1.9603   -1.1528   -0.8251 C.ar      1 <0>        -0.1083
      6 C6          2.9523   -2.0990   -0.6575 C.ar      1 <0>        -0.1054
      7 N1          0.0021   -0.0041    0.0020 N.am      1 <0>        -0.4937
      8 C7         -1.3314   -0.4021   -0.1547 C.ar      1 <0>         0.1348
      9 C8         -2.2595   -0.1332    0.8427 C.ar      1 <0>        -0.1037
     10 C9         -3.5752   -0.5216    0.6824 C.ar      1 <0>        -0.1064
     11 C10        -3.9660   -1.1884   -0.4642 C.ar      1 <0>        -0.1046
     12 C11        -3.0430   -1.4627   -1.4567 C.ar      1 <0>        -0.1047
     13 C12        -1.7271   -1.0715   -1.3052 C.ar      1 <0>        -0.1061
     14 C13         0.3197    1.3057   -0.0051 C.2       1 <0>         0.6534
     15 O1         -0.5361    2.1371   -0.2352 O.2       1 <0>        -0.5402
     16 O2          1.5864    1.6927    0.2374 O.3       1 <0>        -0.3431
     17 C14         1.8559    3.1193    0.2137 C.3       1 <0>         0.0961
     18 H1          1.1703    3.6090   -0.4778 H         1 <0>         0.1254
     19 C15         1.6730    3.6994    1.6191 C.3       1 <0>        -0.0197
     20 C16         3.3412    5.4034    1.1924 C.3       1 <0>        -0.0049
     21 C17         3.5711    4.8718   -0.2251 C.3       1 <0>        -0.1345
     22 C18         3.3016    3.3618   -0.2377 C.3       1 <0>        -0.0970
     23 C19         4.2467    2.6877    0.7648 C.3       1 <0>        -0.1348
     24 C20         3.9981    3.2805    2.1546 C.3       1 <0>        -0.0017
     25 H2          3.7622   -3.6120    0.6168 H         1 <0>         0.1313
     26 H3          2.0664   -3.2940    2.3718 H         1 <0>         0.1324
     27 H4          0.3007   -1.6031    2.0882 H         1 <0>         0.1260
     28 H5          1.9299   -0.5547   -1.7238 H         1 <0>         0.1238
     29 H6          3.6978   -2.2409   -1.4260 H         1 <0>         0.1321
     30 H7         -1.9539    0.3833    1.7405 H         1 <0>         0.1211
     31 H8         -4.2985   -0.3088    1.4557 H         1 <0>         0.1329
     32 H9         -4.9944   -1.4954   -0.5851 H         1 <0>         0.1328
     33 H10        -3.3513   -1.9837   -2.3511 H         1 <0>         0.1345
     34 H11        -1.0066   -1.2863   -2.0805 H         1 <0>         0.1269
     35 H12         0.8978    4.4654    1.5982 H         1 <0>         0.1433
     36 H13         1.3809    2.9046    2.3054 H         1 <0>         0.1359
     37 H14         4.2629    5.8477    1.5682 H         1 <0>         0.1339
     38 H15         2.5544    6.1575    1.1749 H         1 <0>         0.1316
     39 H16         4.6023    5.0612   -0.5234 H         1 <0>         0.1124
     40 H17         2.8931    5.3697   -0.9183 H         1 <0>         0.1055
     41 H18         3.4532    2.9624   -1.2405 H         1 <0>         0.1258
     42 H19         4.0529    1.6153    0.7852 H         1 <0>         0.1077
     43 H20         5.2806    2.8683    0.4704 H         1 <0>         0.1048
     44 H21         4.9145    3.7421    2.5224 H         1 <0>         0.1318
     45 H22         3.6898    2.4894    2.8381 H         1 <0>         0.1283
     46 N2          2.9347    4.3058    2.0957 N.4       1 <0>        -0.3883
     47 H23         2.7864    4.6868    3.0376 H         1 <0>         0.4368
@<TRIPOS>BOND
     1    1    6 ar
     2    1    2 ar
     3    1   25 1
     4    2    3 ar
     5    2   26 1
     6    3    4 ar
     7    3   27 1
     8    4    5 ar
     9    4    7 1
    10    5    6 ar
    11    5   28 1
    12    6   29 1
    13    7    8 1
    14    7   14 am
    15    8   13 ar
    16    8    9 ar
    17    9   10 ar
    18    9   30 1
    19   10   11 ar
    20   10   31 1
    21   11   12 ar
    22   11   32 1
    23   12   13 ar
    24   12   33 1
    25   13   34 1
    26   14   15 2
    27   14   16 1
    28   16   17 1
    29   17   18 1
    30   17   22 1
    31   17   19 1
    32   19   35 1
    33   19   36 1
    34   19   46 1
    35   20   21 1
    36   20   37 1
    37   20   38 1
    38   20   46 1
    39   21   22 1
    40   21   39 1
    41   21   40 1
    42   22   23 1
    43   22   41 1
    44   23   24 1
    45   23   42 1
    46   23   43 1
    47   24   44 1
    48   24   45 1
    49   24   46 1
    50   46   47 1
@<TRIPOS>MOLECULE
ZINC03965738
   50    53     0     0     0
SMALL
USER_CHARGES
quinuclidin-3-yl [(3-fluorophenyl)-[(3,4,5-trifluorophenyl)methyl]amino]formate
@<TRIPOS>ATOM
      1 C1          2.5611    4.6682   -3.9097 C.ar      1 <0>        -0.0752
      2 C2          2.9830    3.5191   -3.2693 C.ar      1 <0>        -0.1230
      3 C3          3.6518    3.6069   -2.0556 C.ar      1 <0>         0.1494
      4 C4          3.8901    4.8502   -1.4853 C.ar      1 <0>        -0.1514
      5 C5          3.4707    5.9979   -2.1333 C.ar      1 <0>         0.1212
      6 C6          2.8038    5.9058   -3.3440 C.ar      1 <0>        -0.1429
      7 F1          3.7066    7.2088   -1.5826 F         1 <0>        -0.1277
      8 N1          4.0799    2.4438   -1.4055 N.am      1 <0>        -0.5386
      9 C7          3.4661    2.0460   -0.1362 C.3       1 <0>         0.1704
     10 C8          2.2813    1.1554   -0.4085 C.ar      1 <0>        -0.0756
     11 C9          1.0258    1.7089   -0.5756 C.ar      1 <0>        -0.1140
     12 C10        -0.0638    0.8926   -0.8258 C.ar      1 <0>         0.1004
     13 C11         0.1047   -0.4806   -0.9083 C.ar      1 <0>         0.0451
     14 C12         1.3644   -1.0337   -0.7400 C.ar      1 <0>         0.0967
     15 C13         2.4514   -0.2139   -0.4900 C.ar      1 <0>        -0.1102
     16 F2          1.5311   -2.3720   -0.8195 F         1 <0>        -0.1143
     17 F3         -0.9575   -1.2791   -1.1520 F         1 <0>        -0.1103
     18 F4         -1.2897    1.4345   -0.9950 F         1 <0>        -0.1123
     19 C14         5.0569    1.6898   -1.9472 C.2       1 <0>         0.6567
     20 O1          5.3668    0.6344   -1.4309 O.2       1 <0>        -0.5453
     21 O2          5.6896    2.1060   -3.0606 O.3       1 <0>        -0.3442
     22 C15         6.7312    1.2431   -3.5884 C.3       1 <0>         0.0974
     23 H1          7.1942    0.6882   -2.7724 H         1 <0>         0.1268
     24 C16         6.1244    0.2650   -4.5985 C.3       1 <0>        -0.0202
     25 C17         8.1982    0.1830   -5.8480 C.3       1 <0>        -0.0052
     26 C18         8.8639    1.1585   -4.8732 C.3       1 <0>        -0.1345
     27 C19         7.7921    2.0933   -4.2986 C.3       1 <0>        -0.0974
     28 C20         7.1232    2.8420   -5.4582 C.3       1 <0>        -0.1349
     29 C21         6.5064    1.8195   -6.4168 C.3       1 <0>        -0.0019
     30 H2          2.0406    4.5994   -4.8535 H         1 <0>         0.1417
     31 H3          2.7929    2.5529   -3.7127 H         1 <0>         0.1268
     32 H4          4.4061    4.9212   -0.5392 H         1 <0>         0.1440
     33 H5          2.4726    6.8025   -3.8466 H         1 <0>         0.1448
     34 H6          3.1366    2.9345    0.4023 H         1 <0>         0.1136
     35 H7          4.1959    1.5055    0.4666 H         1 <0>         0.1169
     36 H8          0.8949    2.7790   -0.5113 H         1 <0>         0.1555
     37 H9          3.4331   -0.6445   -0.3587 H         1 <0>         0.1613
     38 H10         6.2964   -0.7577   -4.2628 H         1 <0>         0.1437
     39 H11         5.0527    0.4456   -4.6809 H         1 <0>         0.1354
     40 H12         8.6350    0.3046   -6.8393 H         1 <0>         0.1340
     41 H13         8.3559   -0.8392   -5.5041 H         1 <0>         0.1319
     42 H14         9.6159    1.7455   -5.4005 H         1 <0>         0.1125
     43 H15         9.3363    0.6029   -4.0632 H         1 <0>         0.1058
     44 H16         8.2434    2.7936   -3.5957 H         1 <0>         0.1262
     45 H17         6.3421    3.4952   -5.0691 H         1 <0>         0.1074
     46 H18         7.8682    3.4359   -5.9877 H         1 <0>         0.1049
     47 H19         6.9570    1.9278   -7.4033 H         1 <0>         0.1319
     48 H20         5.4319    1.9885   -6.4873 H         1 <0>         0.1283
     49 N2          6.7453    0.4447   -5.9285 N.4       1 <0>        -0.3887
     50 H21         6.3226   -0.2208   -6.5863 H         1 <0>         0.4371
@<TRIPOS>BOND
     1    1    6 ar
     2    1    2 ar
     3    1   30 1
     4    2    3 ar
     5    2   31 1
     6    3    4 ar
     7    3    8 1
     8    4    5 ar
     9    4   32 1
    10    5    6 ar
    11    5    7 1
    12    6   33 1
    13    8    9 1
    14    8   19 am
    15    9   10 1
    16    9   34 1
    17    9   35 1
    18   10   15 ar
    19   10   11 ar
    20   11   12 ar
    21   11   36 1
    22   12   13 ar
    23   12   18 1
    24   13   14 ar
    25   13   17 1
    26   14   15 ar
    27   14   16 1
    28   15   37 1
    29   19   20 2
    30   19   21 1
    31   21   22 1
    32   22   23 1
    33   22   27 1
    34   22   24 1
    35   24   38 1
    36   24   39 1
    37   24   49 1
    38   25   26 1
    39   25   40 1
    40   25   41 1
    41   25   49 1
    42   26   27 1
    43   26   42 1
    44   26   43 1
    45   27   28 1
    46   27   44 1
    47   28   29 1
    48   28   45 1
    49   28   46 1
    50   29   47 1
    51   29   48 1
    52   29   49 1
    53   49   50 1
@<TRIPOS>MOLECULE
ZINC01532358
   43    44     0     0     0
SMALL
USER_CHARGES
3-(4-hexoxy-1,2,5-thiadiazol-3-yl)-1-methyl-5,6-dihydro-2H-pyridine
@<TRIPOS>ATOM
      1 C1          1.0740    2.6512    2.3197 C.3       1 <0>        -0.1554
      2 C2          0.1951    2.9518    1.1039 C.3       1 <0>        -0.1278
      3 C3          0.7800    2.2634   -0.1309 C.3       1 <0>        -0.1171
      4 C4         -0.0989    2.5640   -1.3467 C.3       1 <0>        -0.1207
      5 C5          0.4860    1.8755   -2.5815 C.3       1 <0>        -0.1161
      6 C6         -0.3928    2.1761   -3.7973 C.3       1 <0>         0.0610
      7 O1          0.1535    1.5331   -4.9507 O.3       1 <0>        -0.2935
      8 C7         -0.5121    1.7004   -6.1236 C.2       1 <0>         0.2720
      9 C8         -0.0861    1.1341   -7.3225 C.2       1 <0>         0.0553
     10 N1         -0.8263    1.3704   -8.3866 N.2       1 <0>        -0.4586
     11 S1         -2.0045    2.2848   -7.8798 S.3       1 <0>         0.5746
     12 N2         -1.6125    2.4167   -6.2258 N.2       1 <0>        -0.5044
     13 C9          1.1340    0.3040   -7.3965 C.2       1 <0>        -0.0891
     14 C10         1.5480   -0.0981   -8.5783 C.2       1 <0>        -0.0908
     15 C11         2.7753   -0.9465   -8.7629 C.3       1 <0>        -0.1216
     16 C12         3.6271   -0.9079   -7.4915 C.3       1 <0>        -0.0055
     17 C13         1.8402   -0.0463   -6.1184 C.3       1 <0>         0.0501
     18 C14         3.5479   -1.4488   -5.1301 C.3       1 <0>        -0.0400
     19 H1          2.0826    3.0233    2.1398 H         1 <0>         0.0541
     20 H2          0.6573    3.1417    3.1994 H         1 <0>         0.0574
     21 H3          1.1082    1.5746    2.4860 H         1 <0>         0.0539
     22 H4          0.1609    4.0285    0.9376 H         1 <0>         0.0631
     23 H5         -0.8135    2.5797    1.2838 H         1 <0>         0.0630
     24 H6          0.8142    1.1867    0.0354 H         1 <0>         0.0628
     25 H7          1.7886    2.6355   -0.3108 H         1 <0>         0.0632
     26 H8         -1.1075    2.1919   -1.1668 H         1 <0>         0.0694
     27 H9         -0.1331    3.6407   -1.5130 H         1 <0>         0.0697
     28 H10         1.4947    2.2476   -2.7614 H         1 <0>         0.0748
     29 H11         0.5203    0.7988   -2.4152 H         1 <0>         0.0733
     30 H12        -1.4014    1.8040   -3.6174 H         1 <0>         0.0767
     31 H13        -0.4270    3.2528   -3.9636 H         1 <0>         0.0770
     32 H14         0.9858    0.1967   -9.4520 H         1 <0>         0.1508
     33 H15         3.3586   -0.5672   -9.6019 H         1 <0>         0.1303
     34 H16         2.4741   -1.9741   -8.9666 H         1 <0>         0.1120
     35 H17         4.0838    0.0762   -7.3865 H         1 <0>         0.1344
     36 H18         4.4035   -1.6708   -7.5478 H         1 <0>         0.1386
     37 H19         2.4078    0.8170   -5.7712 H         1 <0>         0.1459
     38 H20         1.1040   -0.3192   -5.3623 H         1 <0>         0.1468
     39 H21         2.8803   -1.6945   -4.3043 H         1 <0>         0.1241
     40 H22         4.2168   -2.2885   -5.3187 H         1 <0>         0.1259
     41 H23         4.1350   -0.5673   -4.8728 H         1 <0>         0.1244
     42 N3          2.7409   -1.1920   -6.3446 N.4       1 <0>        -0.3957
     43 H24         2.1782   -2.0249   -6.5541 H         1 <0>         0.4318
@<TRIPOS>BOND
     1    1    2 1
     2    1   19 1
     3    1   20 1
     4    1   21 1
     5    2    3 1
     6    2   22 1
     7    2   23 1
     8    3    4 1
     9    3   24 1
    10    3   25 1
    11    4    5 1
    12    4   26 1
    13    4   27 1
    14    5    6 1
    15    5   28 1
    16    5   29 1
    17    6    7 1
    18    6   30 1
    19    6   31 1
    20    7    8 1
    21    8   12 2
    22    8    9 1
    23    9   10 2
    24    9   13 1
    25   10   11 1
    26   11   12 1
    27   13   17 1
    28   13   14 2
    29   14   15 1
    30   14   32 1
    31   15   16 1
    32   15   33 1
    33   15   34 1
    34   16   35 1
    35   16   36 1
    36   16   42 1
    37   17   37 1
    38   17   38 1
    39   17   42 1
    40   18   39 1
    41   18   40 1
    42   18   41 1
    43   18   42 1
    44   42   43 1
@<TRIPOS>MOLECULE
ZINC12405177
   82    83     0     0     0
SMALL
USER_CHARGES
3-[4-[(E)-2-[4-(dibutylamino)phenyl]vinyl]pyridin-1-ium-1-yl]propyl-triethyl-ammonium
@<TRIPOS>ATOM
      1 C1         -5.9186    2.3509   13.1615 C.3       1 <0>        -0.1542
      2 C2         -6.5274    3.3040   12.1311 C.3       1 <0>        -0.1231
      3 C3         -5.4187    4.1492   11.5007 C.3       1 <0>        -0.1384
      4 C4         -6.0275    5.1024   10.4702 C.3       1 <0>         0.1116
      5 N1         -4.9659    5.9117    9.8666 N.pl3     1 <0>        -0.6057
      6 C5         -4.5904    7.1937   10.4680 C.3       1 <0>         0.1110
      7 C6         -5.4380    8.3114    9.8570 C.3       1 <0>        -0.1378
      8 C7         -5.0459    9.6502   10.4852 C.3       1 <0>        -0.1235
      9 C8         -5.8934   10.7679    9.8742 C.3       1 <0>        -0.1539
     10 C9         -4.3130    5.4618    8.7198 C.ar      1 <0>         0.2660
     11 C10        -3.3052    6.2318    8.1481 C.ar      1 <0>        -0.2085
     12 C11        -2.6577    5.7907    7.0156 C.ar      1 <0>        -0.0210
     13 C12        -3.0147    4.5673    6.4400 C.ar      1 <0>        -0.1888
     14 C13        -4.0322    3.7989    7.0144 C.ar      1 <0>        -0.0256
     15 C14        -4.6714    4.2444    8.1499 C.ar      1 <0>        -0.2089
     16 C15        -2.3250    4.0921    5.2287 C.2       1 <0>         0.0554
     17 C16        -2.6694    2.9163    4.6771 C.2       1 <0>        -0.2361
     18 C17        -1.9797    2.4411    3.4655 C.ar      1 <0>         0.1125
     19 C18        -2.3231    1.2174    2.8735 C.ar      1 <0>        -0.1365
     20 C19        -1.6514    0.8123    1.7401 C.ar      1 <0>         0.1224
     21 N2         -0.6984    1.5583    1.2133 N.ar      1 <0>        -0.3723
     22 C20        -0.3398    2.7138    1.7408 C.ar      1 <0>         0.1270
     23 C21        -0.9614    3.1997    2.8712 C.ar      1 <0>        -0.1524
     24 C22        -0.0127    1.0858    0.0080 C.3       1 <0>         0.0621
     25 C23        -0.7527    1.5927   -1.2315 C.3       1 <0>        -0.1760
     26 C24        -0.0366    1.0992   -2.4903 C.3       1 <0>        -0.0145
     27 N3         -0.7471    1.5859   -3.6804 N.4       1 <0>        -0.2648
     28 C25        -0.7670    3.0547   -3.6723 C.3       1 <0>        -0.0213
     29 C26         0.6684    3.5843   -3.6832 C.3       1 <0>        -0.1898
     30 C27        -0.0595    1.1121   -4.8890 C.3       1 <0>        -0.0191
     31 C28        -0.7995    1.6189   -6.1286 C.3       1 <0>        -0.1903
     32 C29        -2.1252    1.0774   -3.6700 C.3       1 <0>        -0.0213
     33 C30        -2.1045   -0.4524   -3.6784 C.3       1 <0>        -0.1898
     34 H1         -6.7084    1.7488   13.6106 H         1 <0>         0.0587
     35 H2         -5.1979    1.6970   12.6704 H         1 <0>         0.0531
     36 H3         -5.4158    2.9279   13.9376 H         1 <0>         0.0556
     37 H4         -7.2481    3.9579   12.6222 H         1 <0>         0.0656
     38 H5         -7.0302    2.7270   11.3550 H         1 <0>         0.0626
     39 H6         -4.6980    3.4954   11.0096 H         1 <0>         0.0652
     40 H7         -4.9159    4.7262   12.2768 H         1 <0>         0.0673
     41 H8         -6.7482    5.7562   10.9613 H         1 <0>         0.0836
     42 H9         -6.5303    4.5254    9.6941 H         1 <0>         0.0802
     43 H10        -4.7618    7.1544   11.5437 H         1 <0>         0.0838
     44 H11        -3.5359    7.3905   10.2750 H         1 <0>         0.0810
     45 H12        -5.2667    8.3506    8.7813 H         1 <0>         0.0651
     46 H13        -6.4926    8.1145   10.0500 H         1 <0>         0.0668
     47 H14        -5.2172    9.6110   11.5609 H         1 <0>         0.0657
     48 H15        -3.9913    9.8471   10.2922 H         1 <0>         0.0633
     49 H16        -5.6141   11.7218   10.3217 H         1 <0>         0.0588
     50 H17        -5.7221   10.8072    8.7985 H         1 <0>         0.0530
     51 H18        -6.9480   10.5711   10.0672 H         1 <0>         0.0552
     52 H19        -3.0301    7.1766    8.5932 H         1 <0>         0.1337
     53 H20        -1.8754    6.3890    6.5724 H         1 <0>         0.1289
     54 H21        -4.3137    2.8556    6.5702 H         1 <0>         0.1270
     55 H22        -5.4547    3.6498    8.5962 H         1 <0>         0.1328
     56 H23        -1.5425    4.6887    4.7837 H         1 <0>         0.1270
     57 H24        -3.4520    2.3197    5.1221 H         1 <0>         0.1467
     58 H25        -3.1015    0.6016    3.2992 H         1 <0>         0.1832
     59 H26        -1.9082   -0.1289    1.2767 H         1 <0>         0.1996
     60 H27         0.4486    3.2886    1.2779 H         1 <0>         0.1994
     61 H28        -0.6657    4.1482    3.2947 H         1 <0>         0.1801
     62 H29         0.0021   -0.0041    0.0020 H         1 <0>         0.1334
     63 H30         1.0099    1.4631    0.0003 H         1 <0>         0.1331
     64 H31        -1.7753    1.2154   -1.2238 H         1 <0>         0.1054
     65 H32        -0.7675    2.6825   -1.2255 H         1 <0>         0.1052
     66 H33         0.9860    1.4765   -2.4981 H         1 <0>         0.1398
     67 H34        -0.0218    0.0093   -2.4963 H         1 <0>         0.1399
     68 H35        -1.2942    3.4158   -4.5554 H         1 <0>         0.1364
     69 H36        -1.2772    3.4062   -2.7756 H         1 <0>         0.1242
     70 H37         1.1956    3.2232   -2.8002 H         1 <0>         0.0766
     71 H38         1.1786    3.2328   -4.5800 H         1 <0>         0.0866
     72 H39         0.6536    4.6742   -3.6772 H         1 <0>         0.1087
     73 H40         0.9631    1.4894   -4.8968 H         1 <0>         0.1330
     74 H41        -0.0447    0.0222   -4.8950 H         1 <0>         0.1330
     75 H42        -0.8142    2.7088   -6.1226 H         1 <0>         0.0823
     76 H43        -0.2893    1.2674   -7.0254 H         1 <0>         0.1101
     77 H44        -1.8221    1.2417   -6.1208 H         1 <0>         0.0824
     78 H45        -2.6354    1.4289   -2.7732 H         1 <0>         0.1243
     79 H46        -2.6524    1.4385   -4.5531 H         1 <0>         0.1364
     80 H47        -1.5943   -0.8040   -4.5752 H         1 <0>         0.0866
     81 H48        -1.5773   -0.8135   -2.7954 H         1 <0>         0.0767
     82 H49        -3.1271   -0.8297   -3.6707 H         1 <0>         0.1088
@<TRIPOS>BOND
     1    1    2 1
     2    1   34 1
     3    1   35 1
     4    1   36 1
     5    2    3 1
     6    2   37 1
     7    2   38 1
     8    3    4 1
     9    3   39 1
    10    3   40 1
    11    4    5 1
    12    4   41 1
    13    4   42 1
    14    5    6 1
    15    5   10 1
    16    6    7 1
    17    6   43 1
    18    6   44 1
    19    7    8 1
    20    7   45 1
    21    7   46 1
    22    8    9 1
    23    8   47 1
    24    8   48 1
    25    9   49 1
    26    9   50 1
    27    9   51 1
    28   10   15 ar
    29   10   11 ar
    30   11   12 ar
    31   11   52 1
    32   12   13 ar
    33   12   53 1
    34   13   14 ar
    35   13   16 1
    36   14   15 ar
    37   14   54 1
    38   15   55 1
    39   16   17 2
    40   16   56 1
    41   17   18 1
    42   17   57 1
    43   18   23 ar
    44   18   19 ar
    45   19   20 ar
    46   19   58 1
    47   20   21 ar
    48   20   59 1
    49   21   22 ar
    50   21   24 1
    51   22   23 ar
    52   22   60 1
    53   23   61 1
    54   24   25 1
    55   24   62 1
    56   24   63 1
    57   25   26 1
    58   25   64 1
    59   25   65 1
    60   26   27 1
    61   26   66 1
    62   26   67 1
    63   27   28 1
    64   27   30 1
    65   27   32 1
    66   28   29 1
    67   28   68 1
    68   28   69 1
    69   29   70 1
    70   29   71 1
    71   29   72 1
    72   30   31 1
    73   30   73 1
    74   30   74 1
    75   31   75 1
    76   31   76 1
    77   31   77 1
    78   32   33 1
    79   32   78 1
    80   32   79 1
    81   33   80 1
    82   33   81 1
    83   33   82 1
@<TRIPOS>MOLECULE
ZINC02565899
   70    71     0     0     0
SMALL
USER_CHARGES
3-[4-[(E)-2-(4-diethylaminophenyl)vinyl]pyridin-1-ium-1-yl]propyl-triethyl-ammonium
@<TRIPOS>ATOM
      1 C1         -5.4187    4.1492   11.5007 C.3       1 <0>        -0.1744
      2 C2         -6.0275    5.1024   10.4702 C.3       1 <0>         0.1077
      3 N1         -4.9659    5.9117    9.8666 N.pl3     1 <0>        -0.6071
      4 C3         -4.5904    7.1937   10.4680 C.3       1 <0>         0.1072
      5 C4         -5.4380    8.3114    9.8570 C.3       1 <0>        -0.1740
      6 C5         -4.3130    5.4618    8.7198 C.ar      1 <0>         0.2654
      7 C6         -3.3052    6.2318    8.1481 C.ar      1 <0>        -0.2092
      8 C7         -2.6577    5.7907    7.0156 C.ar      1 <0>        -0.0209
      9 C8         -3.0147    4.5673    6.4400 C.ar      1 <0>        -0.1891
     10 C9         -4.0322    3.7989    7.0144 C.ar      1 <0>        -0.0255
     11 C10        -4.6714    4.2444    8.1499 C.ar      1 <0>        -0.2096
     12 C11        -2.3250    4.0921    5.2287 C.2       1 <0>         0.0554
     13 C12        -2.6694    2.9163    4.6771 C.2       1 <0>        -0.2360
     14 C13        -1.9797    2.4411    3.4655 C.ar      1 <0>         0.1124
     15 C14        -2.3231    1.2174    2.8735 C.ar      1 <0>        -0.1365
     16 C15        -1.6514    0.8123    1.7401 C.ar      1 <0>         0.1224
     17 N2         -0.6984    1.5583    1.2133 N.ar      1 <0>        -0.3723
     18 C16        -0.3398    2.7138    1.7408 C.ar      1 <0>         0.1270
     19 C17        -0.9614    3.1997    2.8712 C.ar      1 <0>        -0.1524
     20 C18        -0.0127    1.0858    0.0080 C.3       1 <0>         0.0622
     21 C19        -0.7527    1.5927   -1.2315 C.3       1 <0>        -0.1760
     22 C20        -0.0366    1.0992   -2.4903 C.3       1 <0>        -0.0145
     23 N3         -0.7471    1.5859   -3.6804 N.4       1 <0>        -0.2648
     24 C21        -0.0595    1.1121   -4.8890 C.3       1 <0>        -0.0191
     25 C22        -0.7995    1.6190   -6.1286 C.3       1 <0>        -0.1903
     26 C23        -2.1252    1.0774   -3.6700 C.3       1 <0>        -0.0213
     27 C24        -2.1045   -0.4524   -3.6784 C.3       1 <0>        -0.1898
     28 C25        -0.7670    3.0547   -3.6723 C.3       1 <0>        -0.0213
     29 C26         0.6684    3.5843   -3.6832 C.3       1 <0>        -0.1897
     30 H1         -4.9159    4.7262   12.2768 H         1 <0>         0.0609
     31 H2         -6.2085    3.5471   11.9498 H         1 <0>         0.0722
     32 H3         -4.6980    3.4954   11.0096 H         1 <0>         0.0582
     33 H4         -6.7482    5.7562   10.9613 H         1 <0>         0.0840
     34 H5         -6.5303    4.5254    9.6941 H         1 <0>         0.0802
     35 H6         -4.7618    7.1544   11.5437 H         1 <0>         0.0841
     36 H7         -3.5359    7.3905   10.2750 H         1 <0>         0.0810
     37 H8         -6.4926    8.1145   10.0500 H         1 <0>         0.0604
     38 H9         -5.1586    9.2652   10.3045 H         1 <0>         0.0725
     39 H10        -5.2667    8.3506    8.7813 H         1 <0>         0.0581
     40 H11        -3.0301    7.1766    8.5932 H         1 <0>         0.1339
     41 H12        -1.8754    6.3890    6.5724 H         1 <0>         0.1293
     42 H13        -4.3137    2.8556    6.5702 H         1 <0>         0.1274
     43 H14        -5.4547    3.6498    8.5962 H         1 <0>         0.1330
     44 H15        -1.5425    4.6887    4.7837 H         1 <0>         0.1271
     45 H16        -3.4520    2.3197    5.1221 H         1 <0>         0.1468
     46 H17        -3.1015    0.6016    3.2992 H         1 <0>         0.1832
     47 H18        -1.9082   -0.1289    1.2767 H         1 <0>         0.1997
     48 H19         0.4486    3.2886    1.2779 H         1 <0>         0.1994
     49 H20        -0.6657    4.1482    3.2947 H         1 <0>         0.1801
     50 H21         0.0021   -0.0041    0.0020 H         1 <0>         0.1334
     51 H22         1.0099    1.4631    0.0003 H         1 <0>         0.1331
     52 H23        -1.7753    1.2154   -1.2238 H         1 <0>         0.1054
     53 H24        -0.7675    2.6825   -1.2255 H         1 <0>         0.1052
     54 H25         0.9860    1.4765   -2.4981 H         1 <0>         0.1398
     55 H26        -0.0218    0.0093   -2.4963 H         1 <0>         0.1399
     56 H27         0.9631    1.4894   -4.8968 H         1 <0>         0.1329
     57 H28        -0.0447    0.0222   -4.8950 H         1 <0>         0.1330
     58 H29        -0.8142    2.7088   -6.1226 H         1 <0>         0.0823
     59 H30        -0.2893    1.2674   -7.0254 H         1 <0>         0.1100
     60 H31        -1.8220    1.2417   -6.1208 H         1 <0>         0.0824
     61 H32        -2.6354    1.4289   -2.7732 H         1 <0>         0.1243
     62 H33        -2.6524    1.4385   -4.5531 H         1 <0>         0.1364
     63 H34        -1.5943   -0.8040   -4.5752 H         1 <0>         0.0866
     64 H35        -1.5773   -0.8135   -2.7954 H         1 <0>         0.0766
     65 H36        -3.1271   -0.8297   -3.6707 H         1 <0>         0.1088
     66 H37        -1.2942    3.4158   -4.5554 H         1 <0>         0.1364
     67 H38        -1.2772    3.4062   -2.7756 H         1 <0>         0.1242
     68 H39         0.6536    4.6742   -3.6772 H         1 <0>         0.1087
     69 H40         1.1956    3.2232   -2.8002 H         1 <0>         0.0766
     70 H41         1.1786    3.2328   -4.5800 H         1 <0>         0.0866
@<TRIPOS>BOND
     1    1    2 1
     2    1   30 1
     3    1   31 1
     4    1   32 1
     5    2    3 1
     6    2   33 1
     7    2   34 1
     8    3    4 1
     9    3    6 1
    10    4    5 1
    11    4   35 1
    12    4   36 1
    13    5   37 1
    14    5   38 1
    15    5   39 1
    16    6   11 ar
    17    6    7 ar
    18    7    8 ar
    19    7   40 1
    20    8    9 ar
    21    8   41 1
    22    9   10 ar
    23    9   12 1
    24   10   11 ar
    25   10   42 1
    26   11   43 1
    27   12   13 2
    28   12   44 1
    29   13   14 1
    30   13   45 1
    31   14   19 ar
    32   14   15 ar
    33   15   16 ar
    34   15   46 1
    35   16   17 ar
    36   16   47 1
    37   17   18 ar
    38   17   20 1
    39   18   19 ar
    40   18   48 1
    41   19   49 1
    42   20   21 1
    43   20   50 1
    44   20   51 1
    45   21   22 1
    46   21   52 1
    47   21   53 1
    48   22   23 1
    49   22   54 1
    50   22   55 1
    51   23   24 1
    52   23   26 1
    53   23   28 1
    54   24   25 1
    55   24   56 1
    56   24   57 1
    57   25   58 1
    58   25   59 1
    59   25   60 1
    60   26   27 1
    61   26   61 1
    62   26   62 1
    63   27   63 1
    64   27   64 1
    65   27   65 1
    66   28   29 1
    67   28   66 1
    68   28   67 1
    69   29   68 1
    70   29   69 1
    71   29   70 1
@<TRIPOS>MOLECULE
ZINC29043612
   58    63     0     0     0
SMALL
USER_CHARGES

@<TRIPOS>ATOM
      1 C1         -0.1366    1.3388   -0.0536 C.ar      1 <0>        -0.1378
      2 C2          1.0247    2.0914   -0.0750 C.ar      1 <0>        -0.0810
      3 C3          2.2588    1.4700   -0.0708 C.ar      1 <0>        -0.1324
      4 C4          2.3392    0.0853   -0.0447 C.ar      1 <0>         0.1841
      5 C5          1.1661   -0.6778   -0.0226 C.ar      1 <0>        -0.0570
      6 C6         -0.0719   -0.0398   -0.0275 C.ar      1 <0>        -0.0827
      7 C7          1.2410   -2.1587    0.0050 C.2       1 <0>         0.1062
      8 C8          0.1898   -3.0105   -0.0755 C.2       1 <0>        -0.0523
      9 N1          0.6924   -4.3058   -0.0129 N.pl3     1 <0>        -0.4290
     10 C9          0.2083   -5.5959   -0.0372 C.2       1 <0>         0.0409
     11 C10         1.0350   -6.6367    0.0503 C.2       1 <0>        -0.1436
     12 S1          2.6258   -5.8351    0.1790 S.3       1 <0>         0.1629
     13 C11         2.0497   -4.1548    0.1045 C.2       1 <0>         0.1936
     14 N2          2.3679   -2.8932    0.1087 N.2       1 <0>        -0.4419
     15 C12        -1.2747   -5.8320   -0.1640 C.3       1 <0>         0.1146
     16 N3         -1.8957   -5.7702    1.1659 N.3       1 <0>        -0.5342
     17 C13        -1.8095   -4.4137    1.7249 C.3       1 <0>         0.0131
     18 C14        -2.4126   -4.4056    3.1313 C.3       1 <0>        -0.0013
     19 N4         -3.8147   -4.8383    3.0655 N.4       1 <0>        -0.5082
     20 C15        -3.8828   -6.2037    2.5282 C.3       1 <0>        -0.0022
     21 C16        -3.2919   -6.2268    1.1169 C.3       1 <0>         0.0236
     22 N5          3.5861   -0.5449   -0.0409 N.am      1 <0>        -0.6396
     23 C17         4.6678    0.1044    0.4331 C.2       1 <0>         0.5778
     24 O1          4.5428    1.1977    0.9486 O.2       1 <0>        -0.5033
     25 C18         6.0097   -0.5150    0.3257 C.ar      1 <0>         0.0504
     26 C19         7.1339    0.1644    0.8271 C.ar      1 <0>         0.1300
     27 N6          8.3299   -0.3694    0.7409 N.ar      1 <0>        -0.4196
     28 C20         8.4827   -1.5703    0.1712 C.ar      1 <0>         0.0996
     29 C21         9.7515   -2.1655    0.0662 C.ar      1 <0>        -0.0884
     30 C22         9.8777   -3.3881   -0.5177 C.ar      1 <0>        -0.0822
     31 C23         8.7648   -4.0646   -1.0167 C.ar      1 <0>        -0.0965
     32 C24         7.5206   -3.5218   -0.9342 C.ar      1 <0>        -0.0765
     33 C25         7.3488   -2.2586   -0.3361 C.ar      1 <0>         0.0762
     34 N7          6.1401   -1.7044   -0.2360 N.ar      1 <0>        -0.3854
     35 H1         -1.0972    1.8323   -0.0529 H         1 <0>         0.1293
     36 H2          0.9661    3.1696   -0.0954 H         1 <0>         0.1331
     37 H3          3.1615    2.0627   -0.0883 H         1 <0>         0.1529
     38 H4         -0.9807   -0.6232   -0.0108 H         1 <0>         0.1216
     39 H5         -0.8497   -2.7335   -0.1706 H         1 <0>         0.1787
     40 H6          0.8033   -7.6916    0.0451 H         1 <0>         0.2202
     41 H7         -1.7111   -5.0658   -0.8047 H         1 <0>         0.0626
     42 H8         -1.4500   -6.8147   -0.6016 H         1 <0>         0.1198
     43 H9         -0.7648   -4.1069    1.7755 H         1 <0>         0.1232
     44 H10        -2.3616   -3.7222    1.0884 H         1 <0>         0.0636
     45 H11        -1.8518   -5.0869    3.7711 H         1 <0>         0.1410
     46 H12        -2.3626   -3.3972    3.5423 H         1 <0>         0.1410
     47 H13        -4.2157   -4.8210    3.9912 H         1 <0>         0.4364
     48 H14        -3.3144   -6.8758    3.1711 H         1 <0>         0.1413
     49 H15        -4.9227   -6.5285    2.4921 H         1 <0>         0.1419
     50 H16        -3.8684   -5.5652    0.4703 H         1 <0>         0.0647
     51 H17        -3.3287   -7.2428    0.7237 H         1 <0>         0.1286
     52 H18         3.6732   -1.4497   -0.3794 H         1 <0>         0.4339
     53 H19         7.0124    1.1340    1.2869 H         1 <0>         0.1891
     54 H20        10.6232   -1.6541    0.4471 H         1 <0>         0.1464
     55 H21        10.8548   -3.8415   -0.5962 H         1 <0>         0.1425
     56 H22         8.8930   -5.0338   -1.4758 H         1 <0>         0.1415
     57 H23         6.6682   -4.0570   -1.3257 H         1 <0>         0.1424
     58 H24        -4.3312   -4.2143    2.4639 H         1 <0>         0.4264
@<TRIPOS>BOND
     1    1    6 ar
     2    1    2 ar
     3    1   35 1
     4    2    3 ar
     5    2   36 1
     6    3    4 ar
     7    3   37 1
     8    4    5 ar
     9    4   22 1
    10    5    6 ar
    11    5    7 1
    12    6   38 1
    13    7   14 1
    14    7    8 2
    15    8    9 1
    16    8   39 1
    17    9   13 1
    18    9   10 1
    19   10   11 2
    20   10   15 1
    21   11   12 1
    22   11   40 1
    23   12   13 1
    24   13   14 2
    25   15   16 1
    26   15   41 1
    27   15   42 1
    28   16   21 1
    29   16   17 1
    30   17   18 1
    31   17   43 1
    32   17   44 1
    33   18   19 1
    34   18   45 1
    35   18   46 1
    36   19   20 1
    37   19   47 1
    38   19   58 1
    39   20   21 1
    40   20   48 1
    41   20   49 1
    42   21   50 1
    43   21   51 1
    44   22   23 am
    45   22   52 1
    46   23   24 2
    47   23   25 1
    48   25   34 ar
    49   25   26 ar
    50   26   27 ar
    51   26   53 1
    52   27   28 ar
    53   28   33 ar
    54   28   29 ar
    55   29   30 ar
    56   29   54 1
    57   30   31 ar
    58   30   55 1
    59   31   32 ar
    60   31   56 1
    61   32   33 ar
    62   32   57 1
    63   33   34 ar
@<TRIPOS>MOLECULE
ZINC02003680
   52    53     0     0     0
SMALL
USER_CHARGES

@<TRIPOS>ATOM
      1 C1         -2.8165    1.1642    1.4065 C.3       1 <0>        -0.1875
      2 C2         -2.7146   -0.3619    1.3665 C.3       1 <0>        -0.0188
      3 N1         -2.0186   -0.7743    0.1404 N.4       1 <0>        -0.3886
      4 C3         -0.6312   -0.2930    0.1794 C.3       1 <0>        -0.0160
      5 C4          0.0456   -0.5785   -1.1627 C.3       1 <0>        -0.1890
      6 C5         -2.0259   -2.2400    0.0425 C.3       1 <0>        -0.0058
      7 C6         -3.4631   -2.7318   -0.1398 C.3       1 <0>         0.0280
      8 O1         -3.9776   -2.2496   -1.3827 O.3       1 <0>        -0.3604
      9 C7         -5.2664   -2.5112   -1.6514 C.2       1 <0>         0.4820
     10 O2         -5.9601   -3.0473   -0.8200 O.2       1 <0>        -0.4701
     11 C8         -5.8482   -2.1362   -2.9900 C.3       1 <0>         0.0449
     12 C9         -5.1392   -2.9244   -4.0932 C.3       1 <0>        -0.1469
     13 C10        -7.3197   -2.4610   -3.0070 C.ar      1 <0>        -0.0913
     14 C11        -8.2400   -1.4815   -3.3303 C.ar      1 <0>        -0.1015
     15 C12        -9.5898   -1.7795   -3.3459 C.ar      1 <0>        -0.1207
     16 C13       -10.0192   -3.0570   -3.0386 C.ar      1 <0>        -0.1045
     17 C14        -9.0988   -4.0367   -2.7162 C.ar      1 <0>        -0.1195
     18 C15        -7.7487   -3.7398   -2.7048 C.ar      1 <0>        -0.0838
     19 C16        -5.6569   -0.6600   -3.2251 C.ar      1 <0>        -0.0827
     20 C17        -6.0947    0.2524   -2.2834 C.ar      1 <0>        -0.1162
     21 C18        -5.9192    1.6065   -2.4990 C.ar      1 <0>        -0.1175
     22 C19        -5.3056    2.0482   -3.6562 C.ar      1 <0>        -0.1106
     23 C20        -4.8669    1.1359   -4.5976 C.ar      1 <0>        -0.1125
     24 C21        -5.0386   -0.2184   -4.3799 C.ar      1 <0>        -0.1044
     25 H1         -3.3330    1.4702    2.3163 H         1 <0>         0.1073
     26 H2         -1.8156    1.5956    1.3942 H         1 <0>         0.0821
     27 H3         -3.3736    1.5140    0.5373 H         1 <0>         0.0808
     28 H4         -2.1575   -0.7117    2.2357 H         1 <0>         0.1327
     29 H5         -3.7155   -0.7933    1.3788 H         1 <0>         0.1272
     30 H6         -0.6242    0.7804    0.3688 H         1 <0>         0.1340
     31 H7         -0.0910   -0.8059    0.9751 H         1 <0>         0.1306
     32 H8         -0.0023   -1.6468   -1.3738 H         1 <0>         0.0799
     33 H9         -0.4668   -0.0288   -1.9522 H         1 <0>         0.0819
     34 H10         1.0881   -0.2633   -1.1183 H         1 <0>         0.1072
     35 H11        -1.4246   -2.5500   -0.8121 H         1 <0>         0.1454
     36 H12        -1.6086   -2.6671    0.9544 H         1 <0>         0.1511
     37 H13        -3.4770   -3.8217   -0.1392 H         1 <0>         0.1151
     38 H14        -4.0808   -2.3601    0.6778 H         1 <0>         0.0934
     39 H15        -5.2776   -3.9921   -3.9231 H         1 <0>         0.0716
     40 H16        -5.5600   -2.6531   -5.0614 H         1 <0>         0.0870
     41 H17        -4.0749   -2.6894   -4.0809 H         1 <0>         0.0764
     42 H18        -7.9046   -0.4834   -3.5704 H         1 <0>         0.1271
     43 H19       -10.3089   -1.0141   -3.5978 H         1 <0>         0.1267
     44 H20       -11.0738   -3.2896   -3.0501 H         1 <0>         0.1270
     45 H21        -9.4343   -5.0347   -2.4758 H         1 <0>         0.1268
     46 H22        -7.0294   -4.5062   -2.4565 H         1 <0>         0.1182
     47 H23        -6.5742   -0.0928   -1.3793 H         1 <0>         0.1182
     48 H24        -6.2619    2.3193   -1.7636 H         1 <0>         0.1264
     49 H25        -5.1691    3.1062   -3.8250 H         1 <0>         0.1276
     50 H26        -4.3878    1.4810   -5.5018 H         1 <0>         0.1297
     51 H27        -4.6926   -0.9314   -5.1137 H         1 <0>         0.1336
     52 H28        -2.4884   -0.3813   -0.6614 H         1 <0>         0.4285
@<TRIPOS>BOND
     1    1    2 1
     2    1   25 1
     3    1   26 1
     4    1   27 1
     5    2    3 1
     6    2   28 1
     7    2   29 1
     8    3    4 1
     9    3    6 1
    10    3   52 1
    11    4    5 1
    12    4   30 1
    13    4   31 1
    14    5   32 1
    15    5   33 1
    16    5   34 1
    17    6    7 1
    18    6   35 1
    19    6   36 1
    20    7    8 1
    21    7   37 1
    22    7   38 1
    23    8    9 1
    24    9   10 2
    25    9   11 1
    26   11   12 1
    27   11   13 1
    28   11   19 1
    29   12   39 1
    30   12   40 1
    31   12   41 1
    32   13   18 ar
    33   13   14 ar
    34   14   15 ar
    35   14   42 1
    36   15   16 ar
    37   15   43 1
    38   16   17 ar
    39   16   44 1
    40   17   18 ar
    41   17   45 1
    42   18   46 1
    43   19   24 ar
    44   19   20 ar
    45   20   21 ar
    46   20   47 1
    47   21   22 ar
    48   21   48 1
    49   22   23 ar
    50   22   49 1
    51   23   24 ar
    52   23   50 1
    53   24   51 1
@<TRIPOS>MOLECULE
ZINC03921860
  108   109     0     0     0
SMALL
USER_CHARGES

@<TRIPOS>ATOM
      1 C1         -0.0173    1.4248    0.0099 C.3       1 <0>         0.0218
      2 O1          0.0021   -0.0041    0.0020 O.3       1 <0>        -0.3317
      3 C2          0.6258   -0.6184    1.0415 C.ar      1 <0>         0.1495
      4 C3          1.2023    0.1385    2.0514 C.ar      1 <0>        -0.2024
      5 C4          1.8353   -0.4882    3.1070 C.ar      1 <0>        -0.0386
      6 C5          1.8947   -1.8689    3.1579 C.ar      1 <0>        -0.1481
      7 C6          1.3214   -2.6252    2.1527 C.ar      1 <0>        -0.0531
      8 C7          0.6822   -2.0032    1.0975 C.ar      1 <0>        -0.2056
      9 C8          0.0521   -2.8284    0.0053 C.3       1 <0>         0.0590
     10 N1          0.9527   -2.8756   -1.1542 N.4       1 <0>        -0.5088
     11 C9          0.3385   -3.6800   -2.2189 C.3       1 <0>        -0.0101
     12 C10         1.2765   -3.7292   -3.4267 C.3       1 <0>        -0.1515
     13 C11         0.6368   -4.5670   -4.5356 C.3       1 <0>        -0.1189
     14 C12         1.5748   -4.6161   -5.7433 C.3       1 <0>        -0.1195
     15 C13         0.9351   -5.4540   -6.8522 C.3       1 <0>        -0.1520
     16 C14         1.8732   -5.5031   -8.0599 C.3       1 <0>        -0.0104
     17 N2          1.2589   -6.3075   -9.1246 N.4       1 <0>        -0.5109
     18 C15         2.1596   -6.3547  -10.2841 C.3       1 <0>        -0.0102
     19 C16         1.5199   -7.1926  -11.3930 C.3       1 <0>        -0.1514
     20 C17         2.4579   -7.2417  -12.6007 C.3       1 <0>        -0.1193
     21 C18         1.8182   -8.0795  -13.7096 C.3       1 <0>        -0.1229
     22 C19         2.7562   -8.1286  -14.9174 C.3       1 <0>        -0.1229
     23 C20         2.1165   -8.9665  -16.0263 C.3       1 <0>        -0.1193
     24 C21         3.0545   -9.0156  -17.2340 C.3       1 <0>        -0.1514
     25 C22         2.4148   -9.8535  -18.3429 C.3       1 <0>        -0.0102
     26 N3          3.3155   -9.9006  -19.5024 N.4       1 <0>        -0.5109
     27 C23         2.7012  -10.7051  -20.5671 C.3       1 <0>        -0.0104
     28 C24         3.6393  -10.7542  -21.7748 C.3       1 <0>        -0.1520
     29 C25         2.9995  -11.5920  -22.8837 C.3       1 <0>        -0.1195
     30 C26         3.9376  -11.6411  -24.0914 C.3       1 <0>        -0.1189
     31 C27         3.2979  -12.4790  -25.2004 C.3       1 <0>        -0.1516
     32 C28         4.2359  -12.5281  -26.4081 C.3       1 <0>        -0.0100
     33 N4          3.6217  -13.3325  -27.4728 N.4       1 <0>        -0.5088
     34 C29         4.5223  -13.3797  -28.6323 C.3       1 <0>         0.0590
     35 C30         3.8922  -14.2050  -29.7245 C.ar      1 <0>        -0.2056
     36 C31         4.2759  -15.5198  -29.9064 C.ar      1 <0>        -0.0530
     37 C32         3.6986  -16.2772  -30.9085 C.ar      1 <0>        -0.1481
     38 C33         2.7357  -15.7214  -31.7310 C.ar      1 <0>        -0.0386
     39 C34         2.3484  -14.4076  -31.5529 C.ar      1 <0>        -0.2024
     40 C35         2.9225  -13.6469  -30.5445 C.ar      1 <0>         0.1495
     41 O2          2.5391  -12.3557  -30.3637 O.3       1 <0>        -0.3317
     42 C36         1.5355  -11.8475  -31.2450 C.3       1 <0>         0.0219
     43 H1          1.0053    1.8021    0.0021 H         1 <0>         0.0655
     44 H2         -0.5445    1.7859   -0.8732 H         1 <0>         0.1108
     45 H3         -0.5275    1.7763    0.9067 H         1 <0>         0.0688
     46 H4          1.1565    1.2168    2.0119 H         1 <0>         0.1425
     47 H5          2.2845    0.1005    3.8932 H         1 <0>         0.1419
     48 H6          2.3900   -2.3570    3.9842 H         1 <0>         0.1408
     49 H7          1.3695   -3.7034    2.1946 H         1 <0>         0.1397
     50 H8         -0.1239   -3.8404    0.3701 H         1 <0>         0.1375
     51 H9         -0.8960   -2.3784   -0.2891 H         1 <0>         0.1383
     52 H10         1.1156   -1.9389   -1.4919 H         1 <0>         0.4288
     53 H11         0.1625   -4.6920   -1.8542 H         1 <0>         0.1322
     54 H12        -0.6096   -3.2300   -2.5134 H         1 <0>         0.1321
     55 H13         1.4525   -2.7172   -3.7914 H         1 <0>         0.0890
     56 H14         2.2246   -4.1792   -3.1322 H         1 <0>         0.0893
     57 H15         0.4608   -5.5790   -4.1708 H         1 <0>         0.0792
     58 H16        -0.3113   -4.1169   -4.8300 H         1 <0>         0.0791
     59 H17         1.7508   -3.6042   -6.1081 H         1 <0>         0.0789
     60 H18         2.5229   -5.0662   -5.4489 H         1 <0>         0.0790
     61 H19         0.7592   -6.4659   -6.4874 H         1 <0>         0.0903
     62 H20        -0.0130   -5.0039   -7.1466 H         1 <0>         0.0902
     63 H21         2.0491   -4.4911   -8.4247 H         1 <0>         0.1327
     64 H22         2.8212   -5.9532   -7.7655 H         1 <0>         0.1328
     65 H23         1.0961   -7.2443   -8.7869 H         1 <0>         0.4293
     66 H24         2.3355   -5.3428  -10.6489 H         1 <0>         0.1323
     67 H25         3.1077   -6.8048   -9.9897 H         1 <0>         0.1324
     68 H26         1.3439   -8.2045  -11.0282 H         1 <0>         0.0885
     69 H27         0.5718   -6.7425  -11.6874 H         1 <0>         0.0884
     70 H28         2.6339   -6.2297  -12.9655 H         1 <0>         0.0754
     71 H29         3.4060   -7.6918  -12.3063 H         1 <0>         0.0755
     72 H30         1.6422   -9.0915  -13.3449 H         1 <0>         0.0693
     73 H31         0.8701   -7.6294  -14.0041 H         1 <0>         0.0692
     74 H32         2.9322   -7.1167  -15.2821 H         1 <0>         0.0692
     75 H33         3.7043   -8.5787  -14.6229 H         1 <0>         0.0692
     76 H34         1.9405   -9.9784  -15.6615 H         1 <0>         0.0755
     77 H35         1.1684   -8.5164  -16.3207 H         1 <0>         0.0754
     78 H36         3.2305   -8.0037  -17.5988 H         1 <0>         0.0884
     79 H37         4.0026   -9.4657  -16.9396 H         1 <0>         0.0885
     80 H38         2.2389  -10.8654  -17.9781 H         1 <0>         0.1324
     81 H39         1.4667   -9.4034  -18.6373 H         1 <0>         0.1324
     82 H40         3.4783   -8.9639  -19.8401 H         1 <0>         0.4293
     83 H41         2.5253  -11.7170  -20.2023 H         1 <0>         0.1328
     84 H42         1.7531  -10.2550  -20.8615 H         1 <0>         0.1327
     85 H43         3.8152   -9.7422  -22.1396 H         1 <0>         0.0902
     86 H44         4.5874  -11.2043  -21.4804 H         1 <0>         0.0903
     87 H45         2.8236  -12.6040  -22.5189 H         1 <0>         0.0790
     88 H46         2.0515  -11.1419  -23.1781 H         1 <0>         0.0789
     89 H47         4.1135  -10.6292  -24.4562 H         1 <0>         0.0791
     90 H48         4.8857  -12.0912  -23.7970 H         1 <0>         0.0792
     91 H49         3.1219  -13.4909  -24.8356 H         1 <0>         0.0894
     92 H50         2.3498  -12.0289  -25.4948 H         1 <0>         0.0890
     93 H51         4.4119  -11.5162  -26.7729 H         1 <0>         0.1321
     94 H52         5.1840  -12.9782  -26.1137 H         1 <0>         0.1322
     95 H53         3.4588  -14.2693  -27.1351 H         1 <0>         0.4262
     96 H54         4.6983  -12.3678  -28.9971 H         1 <0>         0.1382
     97 H55         5.4704  -13.8298  -28.3379 H         1 <0>         0.1375
     98 H56         5.0276  -15.9561  -29.2654 H         1 <0>         0.1397
     99 H57         4.0003  -17.3045  -31.0496 H         1 <0>         0.1408
    100 H58         2.2865  -16.3151  -32.5134 H         1 <0>         0.1418
    101 H59         1.5964  -13.9741  -32.1955 H         1 <0>         0.1425
    102 H60         0.6267  -12.4402  -31.1410 H         1 <0>         0.0655
    103 H61         1.3227  -10.8087  -30.9927 H         1 <0>         0.1108
    104 H62         1.8917  -11.9060  -32.2735 H         1 <0>         0.0688
    105 H63         0.3813   -5.8909   -9.3971 H         1 <0>         0.4293
    106 H64         4.1931  -10.3172  -19.2299 H         1 <0>         0.4293
    107 H65         1.8303   -3.2922   -0.8817 H         1 <0>         0.4262
    108 H66         2.7441  -12.9159  -27.7453 H         1 <0>         0.4288
@<TRIPOS>BOND
     1    1    2 1
     2    1   43 1
     3    1   44 1
     4    1   45 1
     5    2    3 1
     6    3    8 ar
     7    3    4 ar
     8    4    5 ar
     9    4   46 1
    10    5    6 ar
    11    5   47 1
    12    6    7 ar
    13    6   48 1
    14    7    8 ar
    15    7   49 1
    16    8    9 1
    17    9   10 1
    18    9   50 1
    19    9   51 1
    20   10   11 1
    21   10   52 1
    22   10  107 1
    23   11   12 1
    24   11   53 1
    25   11   54 1
    26   12   13 1
    27   12   55 1
    28   12   56 1
    29   13   14 1
    30   13   57 1
    31   13   58 1
    32   14   15 1
    33   14   59 1
    34   14   60 1
    35   15   16 1
    36   15   61 1
    37   15   62 1
    38   16   17 1
    39   16   63 1
    40   16   64 1
    41   17   18 1
    42   17   65 1
    43   17  105 1
    44   18   19 1
    45   18   66 1
    46   18   67 1
    47   19   20 1
    48   19   68 1
    49   19   69 1
    50   20   21 1
    51   20   70 1
    52   20   71 1
    53   21   22 1
    54   21   72 1
    55   21   73 1
    56   22   23 1
    57   22   74 1
    58   22   75 1
    59   23   24 1
    60   23   76 1
    61   23   77 1
    62   24   25 1
    63   24   78 1
    64   24   79 1
    65   25   26 1
    66   25   80 1
    67   25   81 1
    68   26   27 1
    69   26   82 1
    70   26  106 1
    71   27   28 1
    72   27   83 1
    73   27   84 1
    74   28   29 1
    75   28   85 1
    76   28   86 1
    77   29   30 1
    78   29   87 1
    79   29   88 1
    80   30   31 1
    81   30   89 1
    82   30   90 1
    83   31   32 1
    84   31   91 1
    85   31   92 1
    86   32   33 1
    87   32   93 1
    88   32   94 1
    89   33   34 1
    90   33   95 1
    91   33  108 1
    92   34   35 1
    93   34   96 1
    94   34   97 1
    95   35   40 ar
    96   35   36 ar
    97   36   37 ar
    98   36   98 1
    99   37   38 ar
   100   37   99 1
   101   38   39 ar
   102   38  100 1
   103   39   40 ar
   104   39  101 1
   105   40   41 1
   106   41   42 1
   107   42  102 1
   108   42  103 1
   109   42  104 1
@<TRIPOS>MOLECULE
ZINC22442744
   74    77     0     0     0
SMALL
USER_CHARGES

@<TRIPOS>ATOM
      1 C1         -4.2653   -3.3860    5.7216 C.3       1 <0>        -0.1556
      2 C2         -4.6396   -2.5913    4.4689 C.3       1 <0>        -0.1498
      3 C3         -3.6967   -2.9688    3.3247 C.3       1 <0>        -0.0180
      4 N1         -4.0561   -2.2058    2.1220 N.4       1 <0>        -0.3845
      5 C4         -3.8229   -0.7753    2.3618 C.3       1 <0>        -0.0148
      6 C5         -4.3249    0.0313    1.1625 C.3       1 <0>        -0.1506
      7 C6         -4.2014    1.5259    1.4654 C.3       1 <0>        -0.1556
      8 C7         -3.2302   -2.6539    0.9928 C.3       1 <0>        -0.0178
      9 C8         -3.5705   -4.1074    0.6573 C.3       1 <0>         0.0646
     10 H1         -3.4185   -4.7289    1.5398 H         1 <0>         0.0656
     11 C9         -5.0324   -4.1997    0.2143 C.3       1 <0>        -0.1270
     12 C10        -5.3627   -5.6524   -0.1395 C.3       1 <0>        -0.1213
     13 C11        -4.4088   -6.1316   -1.2372 C.3       1 <0>        -0.1225
     14 C12        -2.9650   -5.9834   -0.7521 C.3       1 <0>         0.0485
     15 N2         -2.6986   -4.5762   -0.4273 N.3       1 <0>        -0.5173
     16 C13        -1.2834   -4.3727   -0.0904 C.3       1 <0>         0.0350
     17 C14        -0.4136   -4.7537   -1.2902 C.3       1 <0>         0.1371
     18 N3          0.9978   -4.5507   -0.9542 N.am      1 <0>        -0.7334
     19 C15         1.9532   -4.8228   -1.8650 C.2       1 <0>         0.7231
     20 O1          1.6437   -5.2367   -2.9655 O.2       1 <0>        -0.5503
     21 N4          3.2517   -4.6360   -1.5560 N.am      1 <0>        -0.5224
     22 C16         4.2476   -4.9086   -2.4918 C.ar      1 <0>         0.1837
     23 C17         4.3823   -6.1888   -3.0098 C.ar      1 <0>        -0.1028
     24 C18         5.3928   -6.4697   -3.9079 C.ar      1 <0>        -0.0748
     25 C19         6.2786   -5.4778   -4.2954 C.ar      1 <0>        -0.1179
     26 C20         6.1502   -4.1979   -3.8016 C.ar      1 <0>        -0.0474
     27 C21         5.1205   -3.8931   -2.9059 C.ar      1 <0>        -0.1422
     28 C22         4.9327   -2.5100   -2.4526 C.2       1 <0>         0.5718
     29 O2          5.1384   -1.6292   -3.2650 O.2       1 <0>        -0.5115
     30 N5          4.5599   -2.1344   -1.2385 N.am      1 <0>        -0.6542
     31 C23         4.2985   -2.9602   -0.1486 C.ar      1 <0>         0.1131
     32 C24         3.6190   -4.1607   -0.2943 C.ar      1 <0>         0.3091
     33 N6          3.3197   -4.8858    0.7748 N.ar      1 <0>        -0.4714
     34 C25         3.6850   -4.5229    1.9889 C.ar      1 <0>         0.1088
     35 C26         4.4020   -3.3618    2.1963 C.ar      1 <0>        -0.1389
     36 C27         4.7162   -2.5682    1.1194 C.ar      1 <0>        -0.0827
     37 H2         -4.9370   -3.1171    6.5367 H         1 <0>         0.0784
     38 H3         -4.3535   -4.4526    5.5150 H         1 <0>         0.0667
     39 H4         -3.2386   -3.1546    6.0054 H         1 <0>         0.0667
     40 H5         -5.6662   -2.8227    4.1851 H         1 <0>         0.0862
     41 H6         -4.5514   -1.5247    4.6755 H         1 <0>         0.0870
     42 H7         -2.6700   -2.7374    3.6085 H         1 <0>         0.1296
     43 H8         -3.7849   -4.0354    3.1181 H         1 <0>         0.1302
     44 H9         -4.3593   -0.4651    3.2585 H         1 <0>         0.1344
     45 H10        -2.7559   -0.5988    2.4974 H         1 <0>         0.1293
     46 H11        -3.7264   -0.2122    0.2847 H         1 <0>         0.0873
     47 H12        -5.3691   -0.2154    0.9702 H         1 <0>         0.0857
     48 H13        -4.5591    2.1005    0.6111 H         1 <0>         0.0781
     49 H14        -4.8000    1.7694    2.3433 H         1 <0>         0.0669
     50 H15        -3.1573    1.7726    1.6578 H         1 <0>         0.0666
     51 H16        -3.4288   -2.0248    0.1252 H         1 <0>         0.1444
     52 H17        -2.1764   -2.5802    1.2615 H         1 <0>         0.1308
     53 H18        -5.6801   -3.8663    1.0251 H         1 <0>         0.0614
     54 H19        -5.1882   -3.5677   -0.6601 H         1 <0>         0.0903
     55 H20        -5.2444   -6.2786    0.7448 H         1 <0>         0.0649
     56 H21        -6.3905   -5.7156   -0.4970 H         1 <0>         0.0786
     57 H22        -4.6110   -7.1786   -1.4634 H         1 <0>         0.0802
     58 H23        -4.5548   -5.5301   -2.1344 H         1 <0>         0.0794
     59 H24        -2.8159   -6.5960    0.1371 H         1 <0>         0.0448
     60 H25        -2.2828   -6.3104   -1.5368 H         1 <0>         0.0954
     61 H26        -1.1168   -3.3252    0.1610 H         1 <0>         0.0804
     62 H27        -1.0194   -4.9976    0.7627 H         1 <0>         0.0510
     63 H28        -0.5802   -5.8011   -1.5416 H         1 <0>         0.0769
     64 H29        -0.6776   -4.1288   -2.1433 H         1 <0>         0.0826
     65 H30         1.2447   -4.2204   -0.0762 H         1 <0>         0.3975
     66 H31         3.6959   -6.9668   -2.7097 H         1 <0>         0.1352
     67 H32         5.4926   -7.4670   -4.3103 H         1 <0>         0.1404
     68 H33         7.0745   -5.7090   -4.9879 H         1 <0>         0.1415
     69 H34         6.8450   -3.4295   -4.1069 H         1 <0>         0.1426
     70 H35         4.4576   -1.1808   -1.0930 H         1 <0>         0.4140
     71 H36         3.4198   -5.1429    2.8326 H         1 <0>         0.1714
     72 H37         4.7141   -3.0829    3.1919 H         1 <0>         0.1533
     73 H38         5.2726   -1.6531    1.2585 H         1 <0>         0.1529
     74 H39        -5.0303   -2.3563    1.9068 H         1 <0>         0.4213
@<TRIPOS>BOND
     1    1    2 1
     2    1   37 1
     3    1   38 1
     4    1   39 1
     5    2    3 1
     6    2   40 1
     7    2   41 1
     8    3    4 1
     9    3   42 1
    10    3   43 1
    11    4    5 1
    12    4    8 1
    13    4   74 1
    14    5    6 1
    15    5   44 1
    16    5   45 1
    17    6    7 1
    18    6   46 1
    19    6   47 1
    20    7   48 1
    21    7   49 1
    22    7   50 1
    23    8    9 1
    24    8   51 1
    25    8   52 1
    26    9   10 1
    27    9   15 1
    28    9   11 1
    29   11   12 1
    30   11   53 1
    31   11   54 1
    32   12   13 1
    33   12   55 1
    34   12   56 1
    35   13   14 1
    36   13   57 1
    37   13   58 1
    38   14   15 1
    39   14   59 1
    40   14   60 1
    41   15   16 1
    42   16   17 1
    43   16   61 1
    44   16   62 1
    45   17   18 1
    46   17   63 1
    47   17   64 1
    48   18   19 am
    49   18   65 1
    50   19   20 2
    51   19   21 am
    52   21   32 1
    53   21   22 1
    54   22   27 ar
    55   22   23 ar
    56   23   24 ar
    57   23   66 1
    58   24   25 ar
    59   24   67 1
    60   25   26 ar
    61   25   68 1
    62   26   27 ar
    63   26   69 1
    64   27   28 1
    65   28   29 2
    66   28   30 am
    67   30   31 1
    68   30   70 1
    69   31   36 ar
    70   31   32 ar
    71   32   33 ar
    72   33   34 ar
    73   34   35 ar
    74   34   71 1
    75   35   36 ar
    76   35   72 1
    77   36   73 1
@<TRIPOS>MOLECULE
ZINC22442744
   74    77     0     0     0
SMALL
USER_CHARGES

@<TRIPOS>ATOM
      1 C1          1.3911   -1.9860   -4.5949 C.3       1 <0>        -0.1563
      2 C2          1.0439   -1.6112   -3.1527 C.3       1 <0>        -0.1234
      3 C3          0.2116   -2.7292   -2.5215 C.3       1 <0>         0.0395
      4 N1         -0.1389   -2.3605   -1.1435 N.3       1 <0>        -0.5498
      5 C4         -1.2363   -3.1959   -0.6379 C.3       1 <0>         0.0404
      6 C5         -2.5109   -2.8977   -1.4299 C.3       1 <0>        -0.1214
      7 C6         -3.6539   -3.7678   -0.9033 C.3       1 <0>        -0.1561
      8 C7          1.0337   -2.4417   -0.2623 C.3       1 <0>         0.0177
      9 C8          0.7453   -1.6935    1.0407 C.3       1 <0>         0.0365
     10 H1         -0.2102   -2.0261    1.4463 H         1 <0>         0.1373
     11 C9          1.8567   -1.9838    2.0516 C.3       1 <0>        -0.1395
     12 C10         1.5636   -1.2331    3.3538 C.3       1 <0>        -0.1361
     13 C11         1.4308    0.2621    3.0508 C.3       1 <0>        -0.1455
     14 C12         0.3352    0.4692    2.0029 C.3       1 <0>        -0.0169
     15 N2          0.6873   -0.2513    0.7735 N.4       1 <0>        -0.3676
     16 C13        -0.3275    0.0142   -0.2550 C.3       1 <0>        -0.0439
     17 C14        -0.3604    1.5122   -0.5643 C.3       1 <0>         0.1137
     18 N3         -1.2796    1.7610   -1.6775 N.am      1 <0>        -0.7280
     19 C15        -1.3968    3.0019   -2.1903 C.2       1 <0>         0.7271
     20 O1         -0.7397    3.9148   -1.7289 O.2       1 <0>        -0.5509
     21 N4         -2.2425    3.2307   -3.2145 N.am      1 <0>        -0.5169
     22 C16        -2.3675    4.5085   -3.7563 C.ar      1 <0>         0.1799
     23 C17        -2.7841    5.5638   -2.9575 C.ar      1 <0>        -0.1026
     24 C18        -2.9456    6.8226   -3.5017 C.ar      1 <0>        -0.0751
     25 C19        -2.6956    7.0393   -4.8469 C.ar      1 <0>        -0.1158
     26 C20        -2.2674    6.0055   -5.6509 C.ar      1 <0>        -0.0470
     27 C21        -2.0809    4.7294   -5.1105 C.ar      1 <0>        -0.1399
     28 C22        -1.5394    3.6534   -5.9489 C.2       1 <0>         0.5706
     29 O2         -0.6874    3.9602   -6.7600 O.2       1 <0>        -0.5100
     30 N5         -1.8952    2.3785   -5.9021 N.am      1 <0>        -0.6541
     31 C23        -2.8616    1.8073   -5.0788 C.ar      1 <0>         0.1158
     32 C24        -3.0026    2.1890   -3.7526 C.ar      1 <0>         0.3023
     33 N6         -3.8817    1.5708   -2.9759 N.ar      1 <0>        -0.4709
     34 C25        -4.6692    0.6174   -3.4344 C.ar      1 <0>         0.1109
     35 C26        -4.6091    0.2223   -4.7555 C.ar      1 <0>        -0.1344
     36 C27        -3.6982    0.8210   -5.5920 C.ar      1 <0>        -0.0818
     37 H2          2.0349   -2.8655   -4.5968 H         1 <0>         0.0592
     38 H3          0.4753   -2.2048   -5.1440 H         1 <0>         0.0594
     39 H4          1.9105   -1.1545   -5.0713 H         1 <0>         0.0627
     40 H5          1.9622   -1.4752   -2.5815 H         1 <0>         0.0599
     41 H6          0.4711   -0.6839   -3.1461 H         1 <0>         0.0657
     42 H7         -0.6996   -2.8755   -3.1015 H         1 <0>         0.0926
     43 H8          0.7900   -3.6531   -2.5145 H         1 <0>         0.0529
     44 H9         -0.9749   -4.2478   -0.7528 H         1 <0>         0.0531
     45 H10        -1.4040   -2.9764    0.4166 H         1 <0>         0.0759
     46 H11        -2.7724   -1.8458   -1.3149 H         1 <0>         0.0677
     47 H12        -2.3433   -3.1172   -2.4843 H         1 <0>         0.0687
     48 H13        -4.5620   -3.5554   -1.4675 H         1 <0>         0.0642
     49 H14        -3.3925   -4.8197   -1.0182 H         1 <0>         0.0573
     50 H15        -3.8216   -3.5483    0.1512 H         1 <0>         0.0557
     51 H16         1.2500   -3.4869   -0.0409 H         1 <0>         0.0903
     52 H17         1.8928   -1.9900   -0.7582 H         1 <0>         0.1017
     53 H18         1.8975   -3.0548    2.2501 H         1 <0>         0.1112
     54 H19         2.8127   -1.6513    1.6470 H         1 <0>         0.0899
     55 H20         0.6330   -1.6016    3.7855 H         1 <0>         0.0816
     56 H21         2.3809   -1.3912    4.0575 H         1 <0>         0.0960
     57 H22         1.1672    0.7964    3.9635 H         1 <0>         0.1129
     58 H23         2.3779    0.6412    2.6670 H         1 <0>         0.0885
     59 H24        -0.6115    0.0900    2.3878 H         1 <0>         0.1287
     60 H25         0.2378    1.5328    1.7850 H         1 <0>         0.1329
     61 H26        -0.0797   -0.5386   -1.1612 H         1 <0>         0.1840
     62 H27        -1.3049   -0.3033    0.1084 H         1 <0>         0.1296
     63 H28        -0.7001    2.0576    0.3162 H         1 <0>         0.0839
     64 H29         0.6398    1.8490   -0.8367 H         1 <0>         0.0854
     65 H30        -1.8039    1.0326   -2.0456 H         1 <0>         0.4064
     66 H31        -2.9826    5.4004   -1.9086 H         1 <0>         0.1347
     67 H32        -3.2679    7.6416   -2.8759 H         1 <0>         0.1409
     68 H33        -2.8373    8.0237   -5.2677 H         1 <0>         0.1423
     69 H34        -2.0754    6.1810   -6.6991 H         1 <0>         0.1434
     70 H35        -1.4322    1.7777   -6.5068 H         1 <0>         0.4147
     71 H36        -5.3711    0.1394   -2.7670 H         1 <0>         0.1723
     72 H37        -5.2718   -0.5454   -5.1269 H         1 <0>         0.1542
     73 H38        -3.6305    0.5249   -6.6284 H         1 <0>         0.1534
     74 H39         1.5872    0.0653    0.4448 H         1 <0>         0.4186
@<TRIPOS>BOND
     1    1    2 1
     2    1   37 1
     3    1   38 1
     4    1   39 1
     5    2    3 1
     6    2   40 1
     7    2   41 1
     8    3    4 1
     9    3   42 1
    10    3   43 1
    11    4    5 1
    12    4    8 1
    13    5    6 1
    14    5   44 1
    15    5   45 1
    16    6    7 1
    17    6   46 1
    18    6   47 1
    19    7   48 1
    20    7   49 1
    21    7   50 1
    22    8    9 1
    23    8   51 1
    24    8   52 1
    25    9   10 1
    26    9   15 1
    27    9   11 1
    28   11   12 1
    29   11   53 1
    30   11   54 1
    31   12   13 1
    32   12   55 1
    33   12   56 1
    34   13   14 1
    35   13   57 1
    36   13   58 1
    37   14   15 1
    38   14   59 1
    39   14   60 1
    40   15   16 1
    41   15   74 1
    42   16   17 1
    43   16   61 1
    44   16   62 1
    45   17   18 1
    46   17   63 1
    47   17   64 1
    48   18   19 am
    49   18   65 1
    50   19   20 2
    51   19   21 am
    52   21   32 1
    53   21   22 1
    54   22   27 ar
    55   22   23 ar
    56   23   24 ar
    57   23   66 1
    58   24   25 ar
    59   24   67 1
    60   25   26 ar
    61   25   68 1
    62   26   27 ar
    63   26   69 1
    64   27   28 1
    65   28   29 2
    66   28   30 am
    67   30   31 1
    68   30   70 1
    69   31   36 ar
    70   31   32 ar
    71   32   33 ar
    72   33   34 ar
    73   34   35 ar
    74   34   71 1
    75   35   36 ar
    76   35   72 1
    77   36   73 1
@<TRIPOS>MOLECULE
ZINC22454208
   74    77     0     0     0
SMALL
USER_CHARGES

@<TRIPOS>ATOM
      1 C1         -2.9141   -2.9579    4.7383 C.3       1 <0>        -0.1521
      2 C2         -3.6539   -2.3620    3.5389 C.3       1 <0>        -0.1460
      3 C3         -2.8861   -2.6833    2.2551 C.3       1 <0>        -0.0537
      4 N1         -3.5963   -2.1112    1.1036 N.4       1 <0>        -0.3766
      5 C4         -3.6605   -0.6503    1.2442 C.3       1 <0>        -0.0200
      6 C5         -4.4950   -0.0643    0.1036 C.3       1 <0>        -0.1495
      7 C6         -4.6738    1.4393    0.3228 C.3       1 <0>        -0.1558
      8 C7         -2.8802   -2.4531   -0.1327 C.3       1 <0>        -0.0118
      9 C8         -2.9744   -3.9606   -0.3763 C.3       1 <0>         0.0566
     10 H1         -2.5203   -4.2022   -1.3373 H         1 <0>         0.0955
     11 C9         -4.4449   -4.3846   -0.3863 C.3       1 <0>        -0.1254
     12 C10        -4.5335   -5.8967   -0.6104 C.3       1 <0>        -0.1226
     13 C11        -3.7463   -6.6147    0.4894 C.3       1 <0>        -0.1226
     14 C12        -2.2961   -6.1261    0.4739 C.3       1 <0>         0.0433
     15 N2         -2.2653   -4.6744    0.6932 N.3       1 <0>        -0.5319
     16 C13        -0.8842   -4.1910    0.8229 C.3       1 <0>         0.0199
     17 C14        -0.2292   -4.8399    2.0439 C.3       1 <0>         0.1352
     18 N3          1.1023   -4.2640    2.2477 N.am      1 <0>        -0.7344
     19 C15         1.9092   -4.7554    3.2090 C.2       1 <0>         0.7239
     20 O1          1.5320   -5.6766    3.9070 O.2       1 <0>        -0.5504
     21 N4          3.1341   -4.2255    3.3964 N.am      1 <0>        -0.5207
     22 C16         3.9790   -4.7293    4.3835 C.ar      1 <0>         0.1824
     23 C17         3.5833   -4.7084    5.7133 C.ar      1 <0>        -0.1027
     24 C18         4.4349   -5.1718    6.6966 C.ar      1 <0>        -0.0756
     25 C19         5.6885   -5.6574    6.3629 C.ar      1 <0>        -0.1171
     26 C20         6.0914   -5.6985    5.0459 C.ar      1 <0>        -0.0469
     27 C21         5.2331   -5.2506    4.0370 C.ar      1 <0>        -0.1409
     28 C22         5.6304   -5.3794    2.6300 C.2       1 <0>         0.5706
     29 O2          6.2557   -6.3752    2.3210 O.2       1 <0>        -0.5098
     30 N5          5.3696   -4.5088    1.6665 N.am      1 <0>        -0.6546
     31 C23         4.6979   -3.2959    1.7916 C.ar      1 <0>         0.1155
     32 C24         3.5781   -3.1666    2.6001 C.ar      1 <0>         0.3065
     33 N6          2.9174   -2.0175    2.6368 N.ar      1 <0>        -0.4731
     34 C25         3.3144   -0.9619    1.9530 C.ar      1 <0>         0.1067
     35 C26         4.4462   -1.0124    1.1647 C.ar      1 <0>        -0.1365
     36 C27         5.1505   -2.1892    1.0800 C.ar      1 <0>        -0.0817
     37 H2         -3.4611   -2.7290    5.6529 H         1 <0>         0.0735
     38 H3         -2.8410   -4.0389    4.6196 H         1 <0>         0.0675
     39 H4         -1.9132   -2.5302    4.7969 H         1 <0>         0.0637
     40 H5         -4.6548   -2.7897    3.4803 H         1 <0>         0.0810
     41 H6         -3.7271   -1.2810    3.6576 H         1 <0>         0.0772
     42 H7         -1.8852   -2.2556    2.3137 H         1 <0>         0.1169
     43 H8         -2.8129   -3.7643    2.1364 H         1 <0>         0.1876
     44 H9         -4.1215   -0.3972    2.1989 H         1 <0>         0.1329
     45 H10        -2.6526   -0.2371    1.2066 H         1 <0>         0.1265
     46 H11        -3.9851   -0.2351   -0.8445 H         1 <0>         0.0846
     47 H12        -5.4720   -0.5471    0.0829 H         1 <0>         0.0841
     48 H13        -5.3406    1.8410   -0.4401 H         1 <0>         0.0765
     49 H14        -5.1031    1.6141    1.3093 H         1 <0>         0.0667
     50 H15        -3.7048    1.9341    0.2555 H         1 <0>         0.0666
     51 H16        -3.3286   -1.9207   -0.9714 H         1 <0>         0.1387
     52 H17        -1.8332   -2.1651   -0.0375 H         1 <0>         0.1303
     53 H18        -4.9032   -4.1309    0.5696 H         1 <0>         0.0660
     54 H19        -4.9676   -3.8663   -1.1901 H         1 <0>         0.0867
     55 H20        -5.5770   -6.2096   -0.5749 H         1 <0>         0.0792
     56 H21        -4.1102   -6.1462   -1.5834 H         1 <0>         0.0709
     57 H22        -4.1937   -6.3961    1.4590 H         1 <0>         0.0755
     58 H23        -3.7700   -7.6898    0.3111 H         1 <0>         0.0819
     59 H24        -1.7364   -6.6249    1.2651 H         1 <0>         0.0947
     60 H25        -1.8452   -6.3574   -0.4911 H         1 <0>         0.0525
     61 H26        -0.3218   -4.4531   -0.0733 H         1 <0>         0.0614
     62 H27        -0.8883   -3.1079    0.9455 H         1 <0>         0.0827
     63 H28        -0.8431   -4.6569    2.9258 H         1 <0>         0.0799
     64 H29        -0.1394   -5.9138    1.8803 H         1 <0>         0.0799
     65 H30         1.4033   -3.5290    1.6908 H         1 <0>         0.3989
     66 H31         2.6079   -4.3289    5.9797 H         1 <0>         0.1343
     67 H32         4.1220   -5.1558    7.7302 H         1 <0>         0.1403
     68 H33         6.3538   -6.0053    7.1393 H         1 <0>         0.1418
     69 H34         7.0706   -6.0773    4.7927 H         1 <0>         0.1430
     70 H35         5.6801   -4.7416    0.7775 H         1 <0>         0.4152
     71 H36         2.7463   -0.0453    2.0110 H         1 <0>         0.1707
     72 H37         4.7750   -0.1372    0.6240 H         1 <0>         0.1539
     73 H38         6.0366   -2.2531    0.4659 H         1 <0>         0.1537
     74 H39        -4.5320   -2.4868    1.0650 H         1 <0>         0.4191
@<TRIPOS>BOND
     1    1    2 1
     2    1   37 1
     3    1   38 1
     4    1   39 1
     5    2    3 1
     6    2   40 1
     7    2   41 1
     8    3    4 1
     9    3   42 1
    10    3   43 1
    11    4    5 1
    12    4    8 1
    13    4   74 1
    14    5    6 1
    15    5   44 1
    16    5   45 1
    17    6    7 1
    18    6   46 1
    19    6   47 1
    20    7   48 1
    21    7   49 1
    22    7   50 1
    23    8    9 1
    24    8   51 1
    25    8   52 1
    26    9   10 1
    27    9   15 1
    28    9   11 1
    29   11   12 1
    30   11   53 1
    31   11   54 1
    32   12   13 1
    33   12   55 1
    34   12   56 1
    35   13   14 1
    36   13   57 1
    37   13   58 1
    38   14   15 1
    39   14   59 1
    40   14   60 1
    41   15   16 1
    42   16   17 1
    43   16   61 1
    44   16   62 1
    45   17   18 1
    46   17   63 1
    47   17   64 1
    48   18   19 am
    49   18   65 1
    50   19   20 2
    51   19   21 am
    52   21   32 1
    53   21   22 1
    54   22   27 ar
    55   22   23 ar
    56   23   24 ar
    57   23   66 1
    58   24   25 ar
    59   24   67 1
    60   25   26 ar
    61   25   68 1
    62   26   27 ar
    63   26   69 1
    64   27   28 1
    65   28   29 2
    66   28   30 am
    67   30   31 1
    68   30   70 1
    69   31   36 ar
    70   31   32 ar
    71   32   33 ar
    72   33   34 ar
    73   34   35 ar
    74   34   71 1
    75   35   36 ar
    76   35   72 1
    77   36   73 1
@<TRIPOS>MOLECULE
ZINC22454208
   74    77     0     0     0
SMALL
USER_CHARGES

@<TRIPOS>ATOM
      1 C1          4.7470   -5.4297   -1.6683 C.3       1 <0>        -0.1573
      2 C2          3.8920   -4.6084   -0.7012 C.3       1 <0>        -0.1181
      3 C3          3.6791   -3.2057   -1.2738 C.3       1 <0>         0.0485
      4 N1          2.8672   -2.4137   -0.3402 N.3       1 <0>        -0.5271
      5 C4          2.9669   -0.9794   -0.6419 C.3       1 <0>         0.0476
      6 C5          4.3959   -0.5008   -0.3780 C.3       1 <0>        -0.1229
      7 C6          4.4997    0.9930   -0.6923 C.3       1 <0>        -0.1552
      8 C7          1.4671   -2.8581   -0.3523 C.3       1 <0>         0.0261
      9 C8          0.7462   -2.3061    0.8791 C.3       1 <0>         0.0298
     10 H1          0.8226   -1.2189    0.8874 H         1 <0>         0.1360
     11 C9          1.3938   -2.8719    2.1448 C.3       1 <0>        -0.1274
     12 C10         0.6692   -2.3165    3.3744 C.3       1 <0>        -0.1390
     13 C11        -0.8190   -2.6650    3.2784 C.3       1 <0>        -0.1452
     14 C12        -1.3846   -2.1069    1.9707 C.3       1 <0>        -0.0127
     15 N2         -0.6681   -2.6963    0.8332 N.4       1 <0>        -0.3742
     16 C13        -1.2660   -2.2180   -0.4205 C.3       1 <0>        -0.0308
     17 C14        -2.6952   -2.7509   -0.5398 C.3       1 <0>         0.1165
     18 N3         -3.2915   -2.2739   -1.7900 N.am      1 <0>        -0.7332
     19 C15        -4.5543   -2.6200   -2.1095 C.2       1 <0>         0.7283
     20 O1         -5.1986   -3.3281   -1.3601 O.2       1 <0>        -0.5480
     21 N4         -5.1028   -2.1812   -3.2597 N.am      1 <0>        -0.5158
     22 C16        -6.4096   -2.5280   -3.5974 C.ar      1 <0>         0.1780
     23 C17        -6.7574   -3.8631   -3.7458 C.ar      1 <0>        -0.1022
     24 C18        -8.0420   -4.2068   -4.1181 C.ar      1 <0>        -0.0748
     25 C19        -8.9895   -3.2228   -4.3479 C.ar      1 <0>        -0.1148
     26 C20        -8.6645   -1.8930   -4.1910 C.ar      1 <0>        -0.0466
     27 C21        -7.3733   -1.5298   -3.7960 C.ar      1 <0>        -0.1393
     28 C22        -7.0567   -0.1192   -3.5432 C.2       1 <0>         0.5701
     29 O2         -7.9246    0.5584   -3.0277 O.2       1 <0>        -0.5088
     30 N5         -5.9113    0.4826   -3.8262 N.am      1 <0>        -0.6548
     31 C23        -4.7958   -0.0828   -4.4376 C.ar      1 <0>         0.1166
     32 C24        -4.3717   -1.3669   -4.1286 C.ar      1 <0>         0.2991
     33 N6         -3.2614   -1.8461   -4.6726 N.ar      1 <0>        -0.4734
     34 C25        -2.5541   -1.1514   -5.5424 C.ar      1 <0>         0.1094
     35 C26        -2.9470    0.1150   -5.9255 C.ar      1 <0>        -0.1334
     36 C27        -4.0801    0.6602   -5.3713 C.ar      1 <0>        -0.0813
     37 H2          4.2391   -5.5030   -2.6299 H         1 <0>         0.0543
     38 H3          5.7124   -4.9421   -1.8036 H         1 <0>         0.0592
     39 H4          4.8987   -6.4290   -1.2603 H         1 <0>         0.0619
     40 H5          2.9265   -5.0960   -0.5659 H         1 <0>         0.0559
     41 H6          4.3999   -4.5350    0.2604 H         1 <0>         0.0740
     42 H7          4.6449   -2.7211   -1.4167 H         1 <0>         0.0910
     43 H8          3.1639   -3.2786   -2.2316 H         1 <0>         0.0422
     44 H9          2.7144   -0.8099   -1.6887 H         1 <0>         0.0421
     45 H10         2.2752   -0.4257   -0.0071 H         1 <0>         0.0715
     46 H11         4.6484   -0.6703    0.6687 H         1 <0>         0.0737
     47 H12         5.0876   -1.0546   -1.0129 H         1 <0>         0.0679
     48 H13         5.5178    1.3339   -0.5043 H         1 <0>         0.0637
     49 H14         4.2472    1.1624   -1.7390 H         1 <0>         0.0547
     50 H15         3.8080    1.5467   -0.0574 H         1 <0>         0.0544
     51 H16         0.9774   -2.4919   -1.2546 H         1 <0>         0.0578
     52 H17         1.4316   -3.9474   -0.3362 H         1 <0>         0.1003
     53 H18         1.3177   -3.9592    2.1378 H         1 <0>         0.0856
     54 H19         2.4434   -2.5801    2.1783 H         1 <0>         0.1242
     55 H20         1.0900   -2.7602    4.2767 H         1 <0>         0.0955
     56 H21         0.7885   -1.2337    3.4095 H         1 <0>         0.0800
     57 H22        -0.9410   -3.7480    3.2948 H         1 <0>         0.0894
     58 H23        -1.3509   -2.2252    4.1220 H         1 <0>         0.1133
     59 H24        -2.4440   -2.3530    1.8992 H         1 <0>         0.1339
     60 H25        -1.2623   -1.0239    1.9553 H         1 <0>         0.1298
     61 H26        -1.2832   -1.1281   -0.4222 H         1 <0>         0.1357
     62 H27        -0.6741   -2.5733   -1.2641 H         1 <0>         0.1409
     63 H28        -2.6780   -3.8407   -0.5381 H         1 <0>         0.0934
     64 H29        -3.2870   -2.3955    0.3038 H         1 <0>         0.0916
     65 H30        -2.7774   -1.7089   -2.3880 H         1 <0>         0.4056
     66 H31        -6.0223   -4.6345   -3.5702 H         1 <0>         0.1348
     67 H32        -8.3091   -5.2472   -4.2303 H         1 <0>         0.1415
     68 H33        -9.9882   -3.4994   -4.6519 H         1 <0>         0.1430
     69 H34        -9.4077   -1.1308   -4.3729 H         1 <0>         0.1440
     70 H35        -5.8422    1.4185   -3.5806 H         1 <0>         0.4155
     71 H36        -1.6554   -1.5796   -5.9611 H         1 <0>         0.1733
     72 H37        -2.3725    0.6685   -6.6535 H         1 <0>         0.1557
     73 H38        -4.4040    1.6513   -5.6529 H         1 <0>         0.1550
     74 H39        -0.7401   -3.7018    0.8756 H         1 <0>         0.4238
@<TRIPOS>BOND
     1    1    2 1
     2    1   37 1
     3    1   38 1
     4    1   39 1
     5    2    3 1
     6    2   40 1
     7    2   41 1
     8    3    4 1
     9    3   42 1
    10    3   43 1
    11    4    5 1
    12    4    8 1
    13    5    6 1
    14    5   44 1
    15    5   45 1
    16    6    7 1
    17    6   46 1
    18    6   47 1
    19    7   48 1
    20    7   49 1
    21    7   50 1
    22    8    9 1
    23    8   51 1
    24    8   52 1
    25    9   10 1
    26    9   15 1
    27    9   11 1
    28   11   12 1
    29   11   53 1
    30   11   54 1
    31   12   13 1
    32   12   55 1
    33   12   56 1
    34   13   14 1
    35   13   57 1
    36   13   58 1
    37   14   15 1
    38   14   59 1
    39   14   60 1
    40   15   16 1
    41   15   74 1
    42   16   17 1
    43   16   61 1
    44   16   62 1
    45   17   18 1
    46   17   63 1
    47   17   64 1
    48   18   19 am
    49   18   65 1
    50   19   20 2
    51   19   21 am
    52   21   32 1
    53   21   22 1
    54   22   27 ar
    55   22   23 ar
    56   23   24 ar
    57   23   66 1
    58   24   25 ar
    59   24   67 1
    60   25   26 ar
    61   25   68 1
    62   26   27 ar
    63   26   69 1
    64   27   28 1
    65   28   29 2
    66   28   30 am
    67   30   31 1
    68   30   70 1
    69   31   36 ar
    70   31   32 ar
    71   32   33 ar
    72   33   34 ar
    73   34   35 ar
    74   34   71 1
    75   35   36 ar
    76   35   72 1
    77   36   73 1
@<TRIPOS>MOLECULE
ZINC13741670
   25    26     0     0     0
SMALL
USER_CHARGES
3-methoxy-5,6,7,8-tetrahydro-4H-isoxazolo[4,5-c]azepine
@<TRIPOS>ATOM
      1 C1         -0.0127    1.0858    0.0080 C.3       1 <0>         0.0270
      2 O1         -0.6816    1.5467    1.1837 O.3       1 <0>        -0.2823
      3 C2         -0.1496    1.1826    2.3779 C.2       1 <0>         0.2476
      4 C3         -0.6281    1.5128    3.6572 C.2       1 <0>        -0.2937
      5 C4          0.2280    0.9198    4.5094 C.2       1 <0>         0.0375
      6 O2          1.1401    0.2962    3.7655 O.3       1 <0>         0.1301
      7 N1          0.9163    0.4437    2.5796 N.2       1 <0>        -0.3916
      8 C5          0.1106    0.9910    6.0200 C.3       1 <0>        -0.0583
      9 C6         -1.2121    0.2962    6.3916 C.3       1 <0>        -0.1352
     10 C7         -2.3851    1.2116    6.1408 C.3       1 <0>        -0.0189
     11 C8         -1.8209    2.3494    4.0646 C.3       1 <0>         0.1013
     12 H1          0.0021   -0.0041    0.0020 H         1 <0>         0.0673
     13 H2          1.0099    1.4631    0.0003 H         1 <0>         0.0683
     14 H3         -0.5399    1.4469   -0.8751 H         1 <0>         0.1176
     15 H4          0.9485    0.4712    6.4845 H         1 <0>         0.1209
     16 H5          0.0895    2.0315    6.3441 H         1 <0>         0.1184
     17 H6         -1.3253   -0.6055    5.7898 H         1 <0>         0.0924
     18 H7         -1.1900    0.0231    7.4466 H         1 <0>         0.1317
     19 H8         -3.2507    0.7961    6.6567 H         1 <0>         0.1330
     20 H9         -2.1600    2.1768    6.5945 H         1 <0>         0.1309
     21 H10        -1.5042    3.1481    4.7354 H         1 <0>         0.1470
     22 H11        -2.2993    2.7715    3.1808 H         1 <0>         0.1476
     23 N2         -2.7764    1.4358    4.7536 N.4       1 <0>        -0.5152
     24 H12        -3.7137    1.8544    4.7338 H         1 <0>         0.4428
     25 H13        -2.7933    0.5351    4.2609 H         1 <0>         0.4337
@<TRIPOS>BOND
     1    1    2 1
     2    1   12 1
     3    1   13 1
     4    1   14 1
     5    2    3 1
     6    3    7 2
     7    3    4 1
     8    4   11 1
     9    4    5 2
    10    5    6 1
    11    5    8 1
    12    6    7 1
    13    8    9 1
    14    8   15 1
    15    8   16 1
    16    9   10 1
    17    9   17 1
    18    9   18 1
    19   10   19 1
    20   10   20 1
    21   10   23 1
    22   11   21 1
    23   11   22 1
    24   11   23 1
    25   23   24 1
    26   23   25 1
@<TRIPOS>MOLECULE
ZINC13125932
   47    50     0     0     0
SMALL
USER_CHARGES

@<TRIPOS>ATOM
      1 C1         -0.0217    1.4585   -0.1328 C.3       1 <0>        -0.0590
      2 N1          0.0021   -0.0041    0.0020 N.4       1 <0>        -0.2817
      3 C2          0.7608   -0.6210   -1.1184 C.3       1 <0>         0.0561
      4 H1          0.4977   -0.1869   -2.0830 H         1 <0>         0.1686
      5 C3          0.4926   -2.1338   -1.0718 C.3       1 <0>        -0.1407
      6 C4          1.0629   -2.6982    0.2325 C.3       1 <0>         0.0700
      7 C5          0.4998   -1.9174    1.4235 C.3       1 <0>        -0.1619
      8 C6          0.7759   -0.4064    1.2066 C.3       1 <0>         0.0498
      9 H2          0.5168    0.1899    2.0814 H         1 <0>         0.1651
     10 C7          2.2532   -0.2356    0.7836 C.3       1 <0>        -0.0198
     11 H3          3.0204   -0.6888    1.4114 H         1 <0>         0.1870
     12 C8          2.2432   -0.3778   -0.7527 C.3       1 <0>        -0.0336
     13 H4          3.0028   -0.9394   -1.2966 H         1 <0>         0.1917
     14 O1          2.5836    0.8651   -0.0656 O.3       1 <0>        -0.3001
     15 O2          0.7010   -4.0753    0.3530 O.3       1 <0>        -0.3169
     16 C9          1.5490   -4.8720    1.0222 C.2       1 <0>         0.4740
     17 O3          2.5650   -4.4153    1.4902 O.2       1 <0>        -0.4872
     18 C10         1.2339   -6.3361    1.1898 C.3       1 <0>        -0.0326
     19 H5          1.1510   -6.8045    0.2091 H         1 <0>         0.1277
     20 C11        -0.0895   -6.4901    1.9421 C.3       1 <0>         0.0865
     21 O4         -1.1535   -5.9630    1.1470 O.3       1 <0>        -0.5650
     22 C12         2.3368   -7.0010    1.9724 C.ar      1 <0>        -0.0939
     23 C13         2.6257   -6.5773    3.2561 C.ar      1 <0>        -0.0878
     24 C14         3.6375   -7.1871    3.9740 C.ar      1 <0>        -0.1189
     25 C15         4.3600   -8.2210    3.4084 C.ar      1 <0>        -0.1044
     26 C16         4.0705   -8.6453    2.1250 C.ar      1 <0>        -0.1175
     27 C17         3.0559   -8.0383    1.4087 C.ar      1 <0>        -0.1004
     28 C18        -1.3644   -0.5398    0.0624 C.3       1 <0>        -0.0602
     29 H6          0.9810    1.8185   -0.3630 H         1 <0>         0.1414
     30 H7         -0.7018    1.7382   -0.9375 H         1 <0>         0.1233
     31 H8         -0.3621    1.9041    0.8019 H         1 <0>         0.1220
     32 H9         -0.5815   -2.3155   -1.1094 H         1 <0>         0.1197
     33 H10         0.9763   -2.6167   -1.9209 H         1 <0>         0.1282
     34 H11         2.1493   -2.6092    0.2217 H         1 <0>         0.1036
     35 H12        -0.5739   -2.0896    1.4980 H         1 <0>         0.1168
     36 H13         0.9887   -2.2472    2.3402 H         1 <0>         0.1205
     37 H14        -0.2735   -7.5458    2.1414 H         1 <0>         0.0720
     38 H15        -0.0368   -5.9462    2.8852 H         1 <0>         0.0535
     39 H16        -2.0243   -6.0275    1.5626 H         1 <0>         0.3876
     40 H17         2.0612   -5.7695    3.6981 H         1 <0>         0.1161
     41 H18         3.8637   -6.8556    4.9767 H         1 <0>         0.1265
     42 H19         5.1509   -8.6970    3.9690 H         1 <0>         0.1278
     43 H20         4.6352   -9.4528    1.6829 H         1 <0>         0.1293
     44 H21         2.8272   -8.3723    0.4074 H         1 <0>         0.1263
     45 H22        -1.9034   -0.2634   -0.8438 H         1 <0>         0.1279
     46 H23        -1.3255   -1.6260    0.1449 H         1 <0>         0.1361
     47 H24        -1.8783   -0.1276    0.9307 H         1 <0>         0.1266
@<TRIPOS>BOND
     1    1    2 1
     2    1   29 1
     3    1   30 1
     4    1   31 1
     5    2    8 1
     6    2    3 1
     7    2   28 1
     8    3    4 1
     9    3   12 1
    10    3    5 1
    11    5    6 1
    12    5   32 1
    13    5   33 1
    14    6    7 1
    15    6   15 1
    16    6   34 1
    17    7    8 1
    18    7   35 1
    19    7   36 1
    20    8    9 1
    21    8   10 1
    22   10   11 1
    23   10   14 1
    24   10   12 1
    25   12   13 1
    26   12   14 1
    27   15   16 1
    28   16   17 2
    29   16   18 1
    30   18   19 1
    31   18   20 1
    32   18   22 1
    33   20   21 1
    34   20   37 1
    35   20   38 1
    36   21   39 1
    37   22   27 ar
    38   22   23 ar
    39   23   24 ar
    40   23   40 1
    41   24   25 ar
    42   24   41 1
    43   25   26 ar
    44   25   42 1
    45   26   27 ar
    46   26   43 1
    47   27   44 1
    48   28   45 1
    49   28   46 1
    50   28   47 1
@<TRIPOS>MOLECULE
ZINC13454507
   31    33     0     0     0
SMALL
USER_CHARGES
(2S,4R)-2-methylspiro[1,3-dioxolane-4,3'-quinuclidine]
@<TRIPOS>ATOM
      1 C1          4.4928    1.6369   -1.4581 C.3       1 <0>        -0.1691
      2 C2          3.4674    0.8229   -0.6662 C.3       1 <0>         0.2227
      3 H1          3.6620   -0.2411   -0.8004 H         1 <0>         0.1008
      4 O1          3.5609    1.1592    0.7290 O.3       1 <0>        -0.3663
      5 C3          2.1968    1.1116    1.2166 C.3       1 <0>         0.0277
      6 C4          1.4124    1.6349   -0.0026 C.3       1 <0>         0.0675
      7 O2          2.1440    1.1335   -1.1283 O.3       1 <0>        -0.3553
      8 C5          1.3825    3.1586   -0.0042 C.3       1 <0>        -0.0122
      9 C6         -0.7105    3.1533    1.2159 C.3       1 <0>        -0.0092
     10 C7         -0.7238    1.6020    1.2677 C.3       1 <0>        -0.1328
     11 C8         -0.0127    1.0858    0.0080 C.3       1 <0>        -0.0952
     12 C9         -0.7463    1.6155   -1.2332 C.3       1 <0>        -0.1329
     13 C10        -0.7226    3.1462   -1.2043 C.3       1 <0>        -0.0017
     14 H2          4.3002    2.7003   -1.3163 H         1 <0>         0.0645
     15 H3          5.4962    1.3991   -1.1051 H         1 <0>         0.0862
     16 H4          4.4123    1.3911   -2.5170 H         1 <0>         0.0852
     17 H5          2.0663    1.7688    2.0764 H         1 <0>         0.1159
     18 H6          1.9045    0.0901    1.4599 H         1 <0>         0.0962
     19 H7          1.8893    3.5347    0.8844 H         1 <0>         0.1393
     20 H8          1.8841    3.5328   -0.8966 H         1 <0>         0.1414
     21 H9         -0.1864    3.5310    2.0939 H         1 <0>         0.1296
     22 H10        -1.7332    3.5302    1.2138 H         1 <0>         0.1347
     23 H11        -1.7505    1.2362    1.2833 H         1 <0>         0.1124
     24 H12        -0.1957    1.2519    2.1546 H         1 <0>         0.1037
     25 H13         0.0021   -0.0041    0.0020 H         1 <0>         0.1248
     26 H14        -0.2349    1.2742   -2.1332 H         1 <0>         0.1061
     27 H15        -1.7736    1.2510   -1.2337 H         1 <0>         0.1062
     28 H16        -1.7447    3.5248   -1.1950 H         1 <0>         0.1314
     29 H17        -0.2063    3.5173   -2.0897 H         1 <0>         0.1292
     30 N1         -0.0197    3.6337    0.0010 N.4       1 <0>        -0.3873
     31 H18        -0.0244    4.6605   -0.0020 H         1 <0>         0.4369
@<TRIPOS>BOND
     1    1    2 1
     2    1   14 1
     3    1   15 1
     4    1   16 1
     5    2    3 1
     6    2    7 1
     7    2    4 1
     8    4    5 1
     9    5    6 1
    10    5   17 1
    11    5   18 1
    12    6   11 1
    13    6    7 1
    14    6    8 1
    15    8   19 1
    16    8   20 1
    17    8   30 1
    18    9   10 1
    19    9   21 1
    20    9   22 1
    21    9   30 1
    22   10   11 1
    23   10   23 1
    24   10   24 1
    25   11   12 1
    26   11   25 1
    27   12   13 1
    28   12   26 1
    29   12   27 1
    30   13   28 1
    31   13   29 1
    32   13   30 1
    33   30   31 1
@<TRIPOS>MOLECULE
ZINC28093698
   31    33     0     0     0
SMALL
USER_CHARGES
(2S,4S)-2-methylspiro[1,3-dioxolane-4,3'-quinuclidine]
@<TRIPOS>ATOM
      1 C1          3.4680    0.7593   -0.5158 C.3       1 <0>        -0.1609
      2 C2          1.9753    0.8779   -0.8298 C.3       1 <0>         0.2214
      3 H1          1.8167    1.1170   -1.8917 H         1 <0>         0.0839
      4 O1          1.3035   -0.3529   -0.5085 O.3       1 <0>        -0.3727
      5 C3          0.0021   -0.0041    0.0020 C.3       1 <0>         0.0288
      6 C4         -0.0188    1.5325    0.0105 C.3       1 <0>         0.0625
      7 O2          1.3731    1.8976   -0.0009 O.3       1 <0>        -0.3465
      8 C5         -0.7297    2.0706   -1.2250 C.3       1 <0>        -0.0222
      9 N1         -1.8562    2.9150   -0.7953 N.4       1 <0>        -0.3904
     10 C6         -2.8312    2.1355   -0.0202 C.3       1 <0>        -0.0078
     11 C7         -2.1689    1.6018    1.2529 C.3       1 <0>        -0.1435
     12 C8         -0.7009    2.0537    1.2733 C.3       1 <0>        -0.0868
     13 C9         -0.6728    3.5891    1.2443 C.3       1 <0>        -0.1395
     14 C10        -1.3798    4.0722   -0.0250 C.3       1 <0>        -0.0036
     15 H2          3.9157   -0.0187   -1.1516 H         1 <0>         0.0893
     16 H3          3.5997    0.4889    0.5423 H         1 <0>         0.0778
     17 H4          3.9617    1.7225   -0.7123 H         1 <0>         0.0852
     18 H5         -0.7739   -0.4183   -0.6585 H         1 <0>         0.0926
     19 H6         -0.1181   -0.4186    1.0138 H         1 <0>         0.1020
     20 H7         -0.0247    2.6665   -1.8233 H         1 <0>         0.1437
     21 H8         -1.1033    1.2301   -1.8283 H         1 <0>         0.1423
     22 H9         -3.6810    2.7785    0.2526 H         1 <0>         0.1370
     23 H10        -3.1903    1.2908   -0.6264 H         1 <0>         0.1325
     24 H11        -2.6939    1.9998    2.1338 H         1 <0>         0.1119
     25 H12        -2.2210    0.5031    1.2604 H         1 <0>         0.1035
     26 H13        -0.1852    1.6710    2.1664 H         1 <0>         0.1278
     27 H14        -1.1906    3.9821    2.1317 H         1 <0>         0.1054
     28 H15         0.3708    3.9368    1.2447 H         1 <0>         0.1069
     29 H16        -0.6750    4.6547   -0.6365 H         1 <0>         0.1315
     30 H17        -2.2354    4.7057    0.2520 H         1 <0>         0.1347
     31 H18        -2.3631    3.2917   -1.6959 H         1 <0>         0.4531
@<TRIPOS>BOND
     1    1    2 1
     2    1   15 1
     3    1   16 1
     4    1   17 1
     5    2    3 1
     6    2    7 1
     7    2    4 1
     8    4    5 1
     9    5    6 1
    10    5   18 1
    11    5   19 1
    12    6   12 1
    13    6    7 1
    14    6    8 1
    15    8    9 1
    16    8   20 1
    17    8   21 1
    18    9   14 1
    19    9   10 1
    20    9   31 1
    21   10   11 1
    22   10   22 1
    23   10   23 1
    24   11   12 1
    25   11   24 1
    26   11   25 1
    27   12   13 1
    28   12   26 1
    29   13   14 1
    30   13   27 1
    31   13   28 1
    32   14   29 1
    33   14   30 1
@<TRIPOS>MOLECULE
ZINC28872770
   39    41     0     0     0
SMALL
USER_CHARGES
3-[4-(1-methylindolin-1-ium-1-yl)but-2-ynoxy]-4,5-dihydroisoxazole
@<TRIPOS>ATOM
      1 C1         -1.4119   -0.9986    1.4151 C.3       1 <0>        -0.0485
      2 N1         -1.2993   -0.5250    0.0291 N.4       1 <0>        -0.2101
      3 C2         -2.3752    0.4492   -0.2563 C.3       1 <0>         0.0005
      4 C3         -1.7025    1.7998    0.0802 C.3       1 <0>        -0.1055
      5 C4         -0.2294    1.5011   -0.1173 C.ar      1 <0>        -0.0592
      6 C5         -0.0714    0.1272   -0.1514 C.ar      1 <0>        -0.0612
      7 C6          1.1962   -0.4039   -0.3396 C.ar      1 <0>        -0.0626
      8 C7          2.2866    0.4304   -0.4855 C.ar      1 <0>        -0.0989
      9 C8          2.1224    1.8021   -0.4444 C.ar      1 <0>        -0.0623
     10 C9          0.8604    2.3363   -0.2595 C.ar      1 <0>        -0.0857
     11 C10        -1.3994   -1.6618   -0.8959 C.3       1 <0>         0.1253
     12 C11        -2.7308   -2.2778   -0.7741 C.1       1 <0>        -0.2295
     13 C12        -3.7926   -2.7690   -0.6769 C.1       1 <0>        -0.0614
     14 C13        -5.1240   -3.3850   -0.5551 C.3       1 <0>         0.1542
     15 O1         -6.1269   -2.4193   -0.8770 O.3       1 <0>        -0.2816
     16 C14        -7.4146   -2.8270   -0.8136 C.2       1 <0>         0.2543
     17 N2         -7.8124   -3.9974   -0.4914 N.2       1 <0>        -0.3530
     18 O2         -9.2199   -4.1296   -0.5052 O.3       1 <0>        -0.1715
     19 C15        -9.7518   -3.0281   -1.2698 C.3       1 <0>         0.0138
     20 C16        -8.6315   -1.9703   -1.1067 C.3       1 <0>        -0.1230
     21 H1         -2.3767   -1.5092    1.5508 H         1 <0>         0.1252
     22 H2         -1.3510   -0.1413    2.1016 H         1 <0>         0.1261
     23 H3         -0.5923   -1.6999    1.6306 H         1 <0>         0.1241
     24 H4         -2.6698    0.3709   -1.3132 H         1 <0>         0.1368
     25 H5         -3.2438    0.2341    0.3834 H         1 <0>         0.1418
     26 H6         -2.0737    2.5753   -0.6060 H         1 <0>         0.1270
     27 H7         -1.9430    2.0812    1.1160 H         1 <0>         0.1185
     28 H8          1.3307   -1.4749   -0.3725 H         1 <0>         0.1430
     29 H9          3.2705    0.0100   -0.6324 H         1 <0>         0.1530
     30 H10         2.9762    2.4540   -0.5559 H         1 <0>         0.1513
     31 H11         0.7272    3.4076   -0.2271 H         1 <0>         0.1489
     32 H12        -1.2514   -1.3093   -1.9273 H         1 <0>         0.1529
     33 H13        -0.6274   -2.4052   -0.6482 H         1 <0>         0.1499
     34 H14        -5.1989   -4.2362   -1.2478 H         1 <0>         0.1135
     35 H15        -5.2720   -3.7375    0.4763 H         1 <0>         0.1152
     36 H16        -9.9031   -3.3447   -2.3123 H         1 <0>         0.0884
     37 H17       -10.7137   -2.7133   -0.8390 H         1 <0>         0.1197
     38 H18        -8.8093   -1.2855   -0.2644 H         1 <0>         0.1171
     39 H19        -8.4573   -1.3871   -2.0230 H         1 <0>         0.1136
@<TRIPOS>BOND
     1    1    2 1
     2    1   21 1
     3    1   22 1
     4    1   23 1
     5    2    6 1
     6    2    3 1
     7    2   11 1
     8    3    4 1
     9    3   24 1
    10    3   25 1
    11    4    5 1
    12    4   26 1
    13    4   27 1
    14    5   10 ar
    15    5    6 ar
    16    6    7 ar
    17    7    8 ar
    18    7   28 1
    19    8    9 ar
    20    8   29 1
    21    9   10 ar
    22    9   30 1
    23   10   31 1
    24   11   12 1
    25   11   32 1
    26   11   33 1
    27   12   13 3
    28   13   14 1
    29   14   15 1
    30   14   34 1
    31   14   35 1
    32   15   16 1
    33   16   20 1
    34   16   17 2
    35   17   18 1
    36   18   19 1
    37   19   20 1
    38   19   36 1
    39   19   37 1
    40   20   38 1
    41   20   39 1
@<TRIPOS>MOLECULE
ZINC02041362
   37    37     0     0     0
SMALL
USER_CHARGES

@<TRIPOS>ATOM
      1 C1         -0.0181    1.4423    0.0156 C.3       1 <0>        -0.0477
      2 N1          0.0100   -0.0265    0.0146 N.4       1 <0>        -0.2739
      3 C2          0.7249   -0.5034    1.2061 C.3       1 <0>        -0.0477
      4 C3         -1.3653   -0.5426    0.0295 C.3       1 <0>        -0.0449
      5 C4          0.6985   -0.5022   -1.1927 C.3       1 <0>         0.1314
      6 C5          2.0766    0.0149   -1.2076 C.1       1 <0>        -0.2319
      7 C6          3.1757    0.4274   -1.2195 C.1       1 <0>        -0.0636
      8 C7          4.5538    0.9446   -1.2344 C.3       1 <0>         0.1831
      9 O1          5.2236    0.4818   -2.4088 O.3       1 <0>        -0.3576
     10 C8          6.5026    0.8682   -2.5755 C.2       1 <0>         0.6558
     11 O2          7.0355    1.5790   -1.7464 O.2       1 <0>        -0.5400
     12 N2          7.1917    0.4667   -3.6619 N.am      1 <0>        -0.6415
     13 C9          8.4877    0.9456   -3.8849 C.ar      1 <0>         0.1572
     14 C10         8.9270    1.1870   -5.1802 C.ar      1 <0>        -0.1312
     15 C11        10.2063    1.6595   -5.3977 C.ar      1 <0>        -0.0844
     16 C12        11.0506    1.8921   -4.3275 C.ar      1 <0>        -0.1150
     17 C13        10.6164    1.6528   -3.0356 C.ar      1 <0>        -0.0173
     18 C14         9.3347    1.1856   -2.8115 C.ar      1 <0>        -0.1120
     19 Cl1        11.6797    1.9456   -1.6949 Cl        1 <0>        -0.0555
     20 H1          1.0024    1.8252    0.0046 H         1 <0>         0.1184
     21 H2         -0.5485    1.7961   -0.8684 H         1 <0>         0.1246
     22 H3         -0.5290    1.7953    0.9115 H         1 <0>         0.1260
     23 H4          0.2140   -0.1503    2.1019 H         1 <0>         0.1260
     24 H5          0.7458   -1.5932    1.2053 H         1 <0>         0.1247
     25 H6          1.7454   -0.1204    1.1950 H         1 <0>         0.1184
     26 H7         -1.8957   -0.1887   -0.8545 H         1 <0>         0.1253
     27 H8         -1.3444   -1.6324    0.0288 H         1 <0>         0.1253
     28 H9         -1.8761   -0.1896    0.9253 H         1 <0>         0.1271
     29 H10         0.7194   -1.5920   -1.1934 H         1 <0>         0.1507
     30 H11         0.1681   -0.1484   -2.0767 H         1 <0>         0.1507
     31 H12         4.5329    2.0344   -1.2336 H         1 <0>         0.1120
     32 H13         5.0842    0.5907   -0.3504 H         1 <0>         0.1120
     33 H14         6.7895   -0.1542   -4.2893 H         1 <0>         0.4230
     34 H15         8.2687    1.0050   -6.0168 H         1 <0>         0.1368
     35 H16        10.5479    1.8472   -6.4049 H         1 <0>         0.1435
     36 H17        12.0508    2.2610   -4.5003 H         1 <0>         0.1406
     37 H18         8.9943    1.0031   -1.8029 H         1 <0>         0.1515
@<TRIPOS>BOND
     1    1    2 1
     2    1   20 1
     3    1   21 1
     4    1   22 1
     5    2    3 1
     6    2    4 1
     7    2    5 1
     8    3   23 1
     9    3   24 1
    10    3   25 1
    11    4   26 1
    12    4   27 1
    13    4   28 1
    14    5    6 1
    15    5   29 1
    16    5   30 1
    17    6    7 3
    18    7    8 1
    19    8    9 1
    20    8   31 1
    21    8   32 1
    22    9   10 1
    23   10   11 2
    24   10   12 am
    25   12   13 1
    26   12   33 1
    27   13   18 ar
    28   13   14 ar
    29   14   15 ar
    30   14   34 1
    31   15   16 ar
    32   15   35 1
    33   16   17 ar
    34   16   36 1
    35   17   18 ar
    36   17   19 1
    37   18   37 1
@<TRIPOS>MOLECULE
ZINC19796155
   42    45     0     0     0
SMALL
USER_CHARGES

@<TRIPOS>ATOM
      1 C1         -0.0670    1.4396   -0.3852 C.3       1 <0>         0.0243
      2 N1         -0.0229   -0.0169   -0.1987 N.3       1 <0>        -0.5428
      3 C2          0.3808   -0.6943   -1.4380 C.3       1 <0>         0.0399
      4 C3          0.2401   -2.2095   -1.2572 C.3       1 <0>         0.1263
      5 N2          0.9912   -2.6085   -0.0572 N.pl3     1 <0>        -0.5953
      6 C4          0.7394   -1.8803    1.1955 C.3       1 <0>         0.1122
      7 C5          0.8604   -0.3781    0.9181 C.3       1 <0>         0.0393
      8 C6          1.9051   -3.6365   -0.1053 C.2       1 <0>         0.5098
      9 N3          2.1670   -4.1290   -1.2643 N.2       1 <0>        -0.6041
     10 C7          3.0130   -5.1503   -1.5719 C.ar      1 <0>         0.1655
     11 C8          2.6280   -6.0848   -2.5372 C.ar      1 <0>        -0.1058
     12 C9          3.4872   -7.1047   -2.8991 C.ar      1 <0>        -0.0230
     13 C10         4.7348   -7.2069   -2.3106 C.ar      1 <0>        -0.1209
     14 C11         5.1212   -6.2977   -1.3402 C.ar      1 <0>        -0.1017
     15 C12         4.2618   -5.2835   -0.9546 C.ar      1 <0>         0.1117
     16 N4          4.6314   -4.4326    0.1003 N.pl3     1 <0>        -0.7261
     17 C13         3.8434   -4.4184    1.2519 C.ar      1 <0>         0.2140
     18 C14         2.4943   -4.0640    1.1729 C.ar      1 <0>        -0.1453
     19 C15         1.7072   -4.1133    2.3240 C.ar      1 <0>        -0.0723
     20 C16         2.2727   -4.4729    3.5311 C.ar      1 <0>        -0.1389
     21 C17         3.6189   -4.7825    3.6069 C.ar      1 <0>        -0.0765
     22 C18         4.3974   -4.7629    2.4751 C.ar      1 <0>        -0.1433
     23 Cl1         2.9987   -8.2627   -4.0966 Cl        1 <0>        -0.0679
     24 H1          0.9359    1.8090   -0.5992 H         1 <0>         0.0255
     25 H2         -0.7279    1.6794   -1.2181 H         1 <0>         0.0711
     26 H3         -0.4416    1.9111    0.5233 H         1 <0>         0.0709
     27 H4         -0.2581   -0.3649   -2.2574 H         1 <0>         0.0878
     28 H5          1.4186   -0.4499   -1.6647 H         1 <0>         0.0378
     29 H6         -0.8117   -2.4673   -1.1334 H         1 <0>         0.0720
     30 H7          0.6453   -2.7216   -2.1299 H         1 <0>         0.1060
     31 H8         -0.2645   -2.1065    1.5551 H         1 <0>         0.0792
     32 H9          1.4746   -2.1748    1.9444 H         1 <0>         0.0984
     33 H10         1.8915   -0.1381    0.6586 H         1 <0>         0.0379
     34 H11         0.5693    0.1807    1.8075 H         1 <0>         0.0892
     35 H12         1.6558   -6.0097   -3.0016 H         1 <0>         0.1375
     36 H13         5.4083   -7.9971   -2.6081 H         1 <0>         0.1357
     37 H14         6.0961   -6.3802   -0.8829 H         1 <0>         0.1326
     38 H15         5.4169   -3.8679    0.0299 H         1 <0>         0.4097
     39 H16         0.6563   -3.8699    2.2709 H         1 <0>         0.1344
     40 H17         1.6613   -4.5124    4.4205 H         1 <0>         0.1323
     41 H18         4.0571   -5.0467    4.5580 H         1 <0>         0.1317
     42 H19         5.4473   -5.0071    2.5424 H         1 <0>         0.1313
@<TRIPOS>BOND
     1    1    2 1
     2    1   24 1
     3    1   25 1
     4    1   26 1
     5    2    7 1
     6    2    3 1
     7    3    4 1
     8    3   27 1
     9    3   28 1
    10    4    5 1
    11    4   29 1
    12    4   30 1
    13    5    6 1
    14    5    8 1
    15    6    7 1
    16    6   31 1
    17    6   32 1
    18    7   33 1
    19    7   34 1
    20    8   18 1
    21    8    9 2
    22    9   10 1
    23   10   15 ar
    24   10   11 ar
    25   11   12 ar
    26   11   35 1
    27   12   13 ar
    28   12   23 1
    29   13   14 ar
    30   13   36 1
    31   14   15 ar
    32   14   37 1
    33   15   16 1
    34   16   17 1
    35   16   38 1
    36   17   22 ar
    37   17   18 ar
    38   18   19 ar
    39   19   20 ar
    40   19   39 1
    41   20   21 ar
    42   20   40 1
    43   21   22 ar
    44   21   41 1
    45   22   42 1
@<TRIPOS>MOLECULE
ZINC19796155
   44    47     0     0     0
SMALL
USER_CHARGES

@<TRIPOS>ATOM
      1 C1         -1.5703   -0.0018   -1.9302 C.3       1 <0>        -0.0497
      2 N1         -0.7527   -0.7171   -0.9414 N.4       1 <0>        -0.3854
      3 C2         -1.0498   -2.1535   -1.0104 C.3       1 <0>        -0.0252
      4 C3         -0.2839   -2.8861    0.0962 C.3       1 <0>         0.1048
      5 N2          1.1441   -2.5548   -0.0269 N.pl3     1 <0>        -0.7052
      6 C4          1.5202   -1.1363   -0.1296 C.3       1 <0>         0.1049
      7 C5          0.6692   -0.4862   -1.2256 C.3       1 <0>        -0.0251
      8 C6          2.0831   -3.5253   -0.0448 C.2       1 <0>         0.6309
      9 C7          2.6112   -3.9094    1.2074 C.ar      1 <0>        -0.2438
     10 C8          2.0495   -3.1929    2.2728 C.ar      1 <0>         0.0055
     11 C9          2.4602   -3.4528    3.5483 C.ar      1 <0>        -0.1817
     12 C10         3.4265   -4.4148    3.8208 C.ar      1 <0>         0.0489
     13 C11         4.0101   -5.1439    2.8276 C.ar      1 <0>        -0.2233
     14 C12         3.6302   -4.9235    1.4921 C.ar      1 <0>         0.3343
     15 N3          4.2865   -5.7106    0.6358 N.pl3     1 <0>        -0.6131
     16 C13         4.1767   -5.7728   -0.7271 C.ar      1 <0>         0.1589
     17 C14         5.0408   -6.7320   -1.2562 C.ar      1 <0>        -0.1157
     18 C15         5.0795   -6.9478   -2.6222 C.ar      1 <0>        -0.0495
     19 C16         4.2642   -6.2154   -3.4643 C.ar      1 <0>        -0.0338
     20 C17         3.4016   -5.2585   -2.9468 C.ar      1 <0>        -0.0846
     21 C18         3.3520   -5.0321   -1.5848 C.ar      1 <0>         0.0769
     22 N4          2.4115   -4.0290   -1.2719 N.pl3     1 <0>        -0.5773
     23 Cl1         4.3195   -6.4929   -5.1771 Cl        1 <0>        -0.0159
     24 H1         -1.3348   -0.3678   -2.9295 H         1 <0>         0.1246
     25 H2         -2.6262   -0.1724   -1.7203 H         1 <0>         0.1321
     26 H3         -1.3566    1.0656   -1.8745 H         1 <0>         0.1321
     27 H4         -2.1201   -2.3101   -0.8766 H         1 <0>         0.1569
     28 H5         -0.7442   -2.5415   -1.9820 H         1 <0>         0.1344
     29 H6         -0.6518   -2.5648    1.0707 H         1 <0>         0.1155
     30 H7         -0.4211   -3.9618   -0.0138 H         1 <0>         0.1302
     31 H8          1.3345   -0.6383    0.8220 H         1 <0>         0.1155
     32 H9          2.5758   -1.0551   -0.3891 H         1 <0>         0.1302
     33 H10         0.9228   -0.9247   -2.1907 H         1 <0>         0.1344
     34 H11         0.8655    0.5856   -1.2504 H         1 <0>         0.1569
     35 H12         1.2975   -2.4405    2.0860 H         1 <0>         0.1502
     36 H13         2.0243   -2.8976    4.3657 H         1 <0>         0.1496
     37 H14         3.7223   -4.5886    4.8448 H         1 <0>         0.1558
     38 H15         4.7590   -5.8851    3.0650 H         1 <0>         0.1623
     39 H16         5.6790   -7.3052   -0.6001 H         1 <0>         0.1677
     40 H17         5.7487   -7.6901   -3.0316 H         1 <0>         0.1653
     41 H18         2.7675   -4.6896   -3.6107 H         1 <0>         0.1565
     42 H19         1.9393   -3.6432   -2.0263 H         1 <0>         0.4255
     43 H20         4.9278   -6.3202    1.0333 H         1 <0>         0.4372
     44 H21        -0.9695   -0.3754   -0.0171 H         1 <0>         0.4310
@<TRIPOS>BOND
     1    1    2 1
     2    1   24 1
     3    1   25 1
     4    1   26 1
     5    2    7 1
     6    2    3 1
     7    2   44 1
     8    3    4 1
     9    3   27 1
    10    3   28 1
    11    4    5 1
    12    4   29 1
    13    4   30 1
    14    5    6 1
    15    5    8 1
    16    6    7 1
    17    6   31 1
    18    6   32 1
    19    7   33 1
    20    7   34 1
    21    8   22 1
    22    8    9 2
    23    9   14 ar
    24    9   10 ar
    25   10   11 ar
    26   10   35 1
    27   11   12 ar
    28   11   36 1
    29   12   13 ar
    30   12   37 1
    31   13   14 ar
    32   13   38 1
    33   14   15 2
    34   15   16 1
    35   15   43 1
    36   16   21 ar
    37   16   17 ar
    38   17   18 ar
    39   17   39 1
    40   18   19 ar
    41   18   40 1
    42   19   20 ar
    43   19   23 1
    44   20   21 ar
    45   20   41 1
    46   21   22 1
    47   22   42 1
@<TRIPOS>MOLECULE
ZINC19796155
   43    46     0     0     0
SMALL
USER_CHARGES

@<TRIPOS>ATOM
      1 C1         -0.0523    1.4387   -0.3863 C.3       1 <0>        -0.0469
      2 N1         -0.0147   -0.0168   -0.1908 N.4       1 <0>        -0.3852
      3 C2          0.4863   -0.6601   -1.4120 C.3       1 <0>        -0.0213
      4 C3          0.4181   -2.1823   -1.2510 C.3       1 <0>         0.1002
      5 N2          1.1441   -2.5548   -0.0269 N.pl3     1 <0>        -0.6180
      6 C4          0.8178   -1.8405    1.2170 C.3       1 <0>         0.0860
      7 C5          0.8671   -0.3344    0.9395 C.3       1 <0>        -0.0221
      8 C6          2.1017   -3.5432   -0.0451 C.2       1 <0>         0.5019
      9 N3          2.4234   -4.0210   -1.1951 N.2       1 <0>        -0.5760
     10 C7          3.3217   -5.0050   -1.4750 C.ar      1 <0>         0.1390
     11 C8          3.0096   -5.9522   -2.4541 C.ar      1 <0>        -0.0932
     12 C9          3.9229   -6.9340   -2.7877 C.ar      1 <0>        -0.0267
     13 C10         5.1529   -6.9852   -2.1572 C.ar      1 <0>        -0.1032
     14 C11         5.4673   -6.0631   -1.1730 C.ar      1 <0>        -0.1031
     15 C12         4.5533   -5.0871   -0.8155 C.ar      1 <0>         0.1235
     16 N4          4.8505   -4.2243    0.2524 N.pl3     1 <0>        -0.7273
     17 C13         4.0239   -4.2464    1.3765 C.ar      1 <0>         0.2173
     18 C14         2.6645   -3.9489    1.2520 C.ar      1 <0>        -0.1537
     19 C15         1.8414   -4.0345    2.3754 C.ar      1 <0>        -0.0841
     20 C16         2.3802   -4.3733    3.6007 C.ar      1 <0>        -0.1334
     21 C17         3.7349   -4.6261    3.7220 C.ar      1 <0>        -0.0692
     22 C18         4.5500   -4.5705    2.6174 C.ar      1 <0>        -0.1369
     23 Cl1         3.5248   -8.1083   -4.0027 Cl        1 <0>        -0.0551
     24 H1          0.9534    1.8033   -0.5956 H         1 <0>         0.1211
     25 H2         -0.7066    1.6758   -1.2253 H         1 <0>         0.1256
     26 H3         -0.4316    1.9169    0.5167 H         1 <0>         0.1252
     27 H4         -0.1269   -0.3565   -2.2605 H         1 <0>         0.1425
     28 H5          1.5196   -0.3587   -1.5839 H         1 <0>         0.1315
     29 H6         -0.6226   -2.4957   -1.1694 H         1 <0>         0.0898
     30 H7          0.8819   -2.6629   -2.1125 H         1 <0>         0.1431
     31 H8         -0.1827   -2.1194    1.5479 H         1 <0>         0.0960
     32 H9          1.5457   -2.0950    1.9873 H         1 <0>         0.1385
     33 H10         1.8889   -0.0428    0.6965 H         1 <0>         0.1320
     34 H11         0.5345    0.2092    1.8238 H         1 <0>         0.1439
     35 H12         2.0515   -5.9169   -2.9512 H         1 <0>         0.1396
     36 H13         5.8689   -7.7454   -2.4325 H         1 <0>         0.1422
     37 H14         6.4287   -6.1057   -0.6827 H         1 <0>         0.1382
     38 H15         5.6134   -3.6267    0.2096 H         1 <0>         0.4129
     39 H16         0.7836   -3.8354    2.2868 H         1 <0>         0.1314
     40 H17         1.7411   -4.4409    4.4686 H         1 <0>         0.1357
     41 H18         4.1512   -4.8742    4.6872 H         1 <0>         0.1370
     42 H19         5.6063   -4.7705    2.7202 H         1 <0>         0.1363
     43 H20        -0.9456   -0.3526    0.0057 H         1 <0>         0.4250
@<TRIPOS>BOND
     1    1    2 1
     2    1   24 1
     3    1   25 1
     4    1   26 1
     5    2    7 1
     6    2    3 1
     7    2   43 1
     8    3    4 1
     9    3   27 1
    10    3   28 1
    11    4    5 1
    12    4   29 1
    13    4   30 1
    14    5    6 1
    15    5    8 1
    16    6    7 1
    17    6   31 1
    18    6   32 1
    19    7   33 1
    20    7   34 1
    21    8   18 1
    22    8    9 2
    23    9   10 1
    24   10   15 ar
    25   10   11 ar
    26   11   12 ar
    27   11   35 1
    28   12   13 ar
    29   12   23 1
    30   13   14 ar
    31   13   36 1
    32   14   15 ar
    33   14   37 1
    34   15   16 1
    35   16   17 1
    36   16   38 1
    37   17   22 ar
    38   17   18 ar
    39   18   19 ar
    40   19   20 ar
    41   19   39 1
    42   20   21 ar
    43   20   40 1
    44   21   22 ar
    45   21   41 1
    46   22   42 1
@<TRIPOS>MOLECULE
ZINC21981285
   43    46     0     0     0
SMALL
USER_CHARGES
2-methyl-4-(4-methyl-4-oxido-piperazin-4-ium-1-yl)-10H-thieno[2,3-b][1,5]benzodiazepine
@<TRIPOS>ATOM
      1 C1          2.9038    6.4918    5.1713 C.3       1 <0>        -0.0743
      2 C2          2.5841    5.9872    3.7877 C.2       1 <0>        -0.1570
      3 C3          1.6203    6.4061    2.9476 C.2       1 <0>        -0.1226
      4 C4          1.5187    5.7561    1.6557 C.2       1 <0>        -0.2098
      5 C5          2.4401    4.7329    1.4382 C.2       1 <0>         0.1289
      6 S1          3.3908    4.6901    2.8686 S.3       1 <0>         0.0930
      7 N1          2.5080    3.9286    0.3147 N.pl3     1 <0>        -0.6777
      8 C6          1.3315    3.2142   -0.0160 C.ar      1 <0>         0.1031
      9 C7          1.3808    1.8362   -0.0928 C.ar      1 <0>        -0.1116
     10 C8          0.2284    1.1107   -0.3528 C.ar      1 <0>        -0.1294
     11 C9         -0.9707    1.7703   -0.5405 C.ar      1 <0>        -0.1061
     12 C10        -1.0299    3.1476   -0.4724 C.ar      1 <0>        -0.1148
     13 C11         0.1267    3.8974   -0.2224 C.ar      1 <0>         0.1662
     14 N2          0.0187    5.2530   -0.2091 N.2       1 <0>        -0.6188
     15 C12         0.5397    6.1123    0.6013 C.2       1 <0>         0.5357
     16 N3          0.1661    7.4315    0.4793 N.pl3     1 <0>        -0.5959
     17 C13        -0.9003    7.8326   -0.4514 C.3       1 <0>         0.1204
     18 C14        -0.3898    8.9864   -1.3135 C.3       1 <0>         0.0049
     19 N4          0.0980   10.0673   -0.4475 N.4       1 <0>        -0.1193
     20 O1         -0.9664   10.4715    0.4712 O.3       1 <0>        -0.6424
     21 C15         1.2586    9.6048    0.3239 C.3       1 <0>         0.0037
     22 C16         0.8259    8.4809    1.2713 C.3       1 <0>         0.1099
     23 C17         0.4891   11.2153   -1.2764 C.3       1 <0>        -0.0176
     24 H1          2.2086    7.3022    5.4358 H         1 <0>         0.0841
     25 H2          3.9357    6.8721    5.1935 H         1 <0>         0.0783
     26 H3          2.8005    5.6694    5.8945 H         1 <0>         0.0780
     27 H4          0.9445    7.2010    3.2265 H         1 <0>         0.1434
     28 H5          3.4409    3.8717   -0.2654 H         1 <0>         0.4409
     29 H6          2.3200    1.3223    0.0498 H         1 <0>         0.1236
     30 H7          0.2689    0.0331   -0.4128 H         1 <0>         0.1263
     31 H8         -1.8690    1.2041   -0.7380 H         1 <0>         0.1261
     32 H9         -1.9741    3.6513   -0.6176 H         1 <0>         0.1273
     33 H10        -1.1691    6.9789   -1.0909 H         1 <0>         0.1157
     34 H11        -1.7833    8.1552    0.1198 H         1 <0>         0.0911
     35 H12         0.4314    8.6307   -1.9532 H         1 <0>         0.0895
     36 H13        -1.2087    9.3634   -1.9438 H         1 <0>         0.1146
     37 H14         2.0298    9.2283   -0.3642 H         1 <0>         0.0899
     38 H15         1.6668   10.4417    0.9095 H         1 <0>         0.1156
     39 H16         0.1220    8.8717    2.0209 H         1 <0>         0.0971
     40 H17         1.7054    8.0585    1.7793 H         1 <0>         0.1104
     41 H18         0.8550   12.0266   -0.6299 H         1 <0>         0.0993
     42 H19        -0.3814   11.5673   -1.8494 H         1 <0>         0.1000
     43 H20         1.2866   10.9116   -1.9705 H         1 <0>         0.0805
@<TRIPOS>BOND
     1    1    2 1
     2    1   24 1
     3    1   25 1
     4    1   26 1
     5    2    6 1
     6    2    3 2
     7    3    4 1
     8    3   27 1
     9    4   15 1
    10    4    5 2
    11    5    6 1
    12    5    7 1
    13    7    8 1
    14    7   28 1
    15    8   13 ar
    16    8    9 ar
    17    9   10 ar
    18    9   29 1
    19   10   11 ar
    20   10   30 1
    21   11   12 ar
    22   11   31 1
    23   12   13 ar
    24   12   32 1
    25   13   14 1
    26   14   15 2
    27   15   16 1
    28   16   22 1
    29   16   17 1
    30   17   18 1
    31   17   33 1
    32   17   34 1
    33   18   19 1
    34   18   35 1
    35   18   36 1
    36   19   20 1
    37   19   21 1
    38   19   23 1
    39   21   22 1
    40   21   37 1
    41   21   38 1
    42   22   39 1
    43   22   40 1
    44   23   41 1
    45   23   42 1
    46   23   43 1
@<TRIPOS>MOLECULE
ZINC04234801
   25    26     0     0     0
SMALL
USER_CHARGES
(2R)-2-(5-methyl-2-furyl)pyrrolidine
@<TRIPOS>ATOM
      1 C1          6.4565    0.8860    1.5275 C.3       1 <0>        -0.0878
      2 C2          5.4467    0.8400    0.4098 C.2       1 <0>         0.0387
      3 C3          5.7246    0.6658   -0.8948 C.2       1 <0>        -0.2152
      4 C4          4.4898    0.6873   -1.5831 C.2       1 <0>        -0.1276
      5 C5          3.5312    0.8733   -0.6579 C.2       1 <0>        -0.1082
      6 O1          4.1170    0.9709    0.5466 O.3       1 <0>        -0.1832
      7 C6          2.0513    0.9634   -0.9281 C.3       1 <0>         0.1378
      8 H1          1.8716    1.2505   -1.9641 H         1 <0>         0.1650
      9 C7          1.3640   -0.3831   -0.6154 C.3       1 <0>        -0.1450
     10 C8          0.0021   -0.0041    0.0020 C.3       1 <0>        -0.1498
     11 C9         -0.0189    1.5396    0.0105 C.3       1 <0>        -0.0072
     12 H2          6.7840    1.9145    1.6790 H         1 <0>         0.0931
     13 H3          6.0013    0.5109    2.4440 H         1 <0>         0.0841
     14 H4          7.3145    0.2660    1.2677 H         1 <0>         0.1015
     15 H5          6.7032    0.5344   -1.3324 H         1 <0>         0.1632
     16 H6          4.3441    0.5753   -2.6473 H         1 <0>         0.1615
     17 H7          1.9574   -0.9543    0.0984 H         1 <0>         0.1023
     18 H8          1.2182   -0.9569   -1.5306 H         1 <0>         0.1176
     19 H9         -0.0729   -0.3893    1.0189 H         1 <0>         0.1018
     20 H10        -0.8122   -0.3904   -0.6110 H         1 <0>         0.1148
     21 H11        -0.5243    1.9178   -0.8781 H         1 <0>         0.1377
     22 H12        -0.5072    1.9082    0.9126 H         1 <0>         0.1436
     23 N1          1.3976    1.9062   -0.0194 N.4       1 <0>        -0.5156
     24 H13         1.5083    2.8667   -0.3649 H         1 <0>         0.4386
     25 H14         1.8033    1.8318    0.9209 H         1 <0>         0.4382
@<TRIPOS>BOND
     1    1    2 1
     2    1   12 1
     3    1   13 1
     4    1   14 1
     5    2    6 1
     6    2    3 2
     7    3    4 1
     8    3   15 1
     9    4    5 2
    10    4   16 1
    11    5    6 1
    12    5    7 1
    13    7    8 1
    14    7    9 1
    15    7   23 1
    16    9   10 1
    17    9   17 1
    18    9   18 1
    19   10   11 1
    20   10   19 1
    21   10   20 1
    22   11   21 1
    23   11   22 1
    24   11   23 1
    25   23   24 1
    26   23   25 1
@<TRIPOS>MOLECULE
ZINC34866289
   53    54     0     0     0
SMALL
USER_CHARGES

@<TRIPOS>ATOM
      1 C1         -0.0187    1.5258    0.0104 C.3       1 <0>        -0.1544
      2 C2          0.0021   -0.0041    0.0020 C.3       1 <0>        -0.0602
      3 C3          0.7421   -0.5109    1.2415 C.3       1 <0>        -0.1554
      4 C4         -1.4333   -0.5336    0.0129 C.3       1 <0>        -0.1487
      5 C5          0.7182   -0.4975   -1.2568 C.3       1 <0>        -0.1395
      6 C6          2.1536    0.0321   -1.2676 C.3       1 <0>        -0.0175
      7 N1          2.8412   -0.4417   -2.4763 N.4       1 <0>        -0.3843
      8 C7          2.1965    0.1353   -3.6620 C.3       1 <0>        -0.0127
      9 C8          2.8571   -0.4182   -4.9265 C.3       1 <0>        -0.1412
     10 C9          4.3437   -0.0506   -4.9220 C.3       1 <0>        -0.1394
     11 H1          4.4511    1.0337   -4.9522 H         1 <0>         0.1175
     12 C10         4.9899   -0.5938   -3.6443 C.3       1 <0>         0.0742
     13 H2          6.0356   -0.2883   -3.6071 H         1 <0>         0.1276
     14 C11         4.2503   -0.0338   -2.4274 C.3       1 <0>        -0.0326
     15 F1          4.9107   -1.9905   -3.6381 F         1 <0>        -0.1879
     16 C12         5.0268   -0.6667   -6.1446 C.3       1 <0>         0.1220
     17 N2          6.4198   -0.2169   -6.2040 N.am      1 <0>        -0.7343
     18 C13         7.2209   -0.6353   -7.2039 C.2       1 <0>         0.5691
     19 O1          6.7876   -1.3857   -8.0563 O.2       1 <0>        -0.5113
     20 C14         8.6267   -0.1814   -7.2639 C.ar      1 <0>        -0.1162
     21 C15         9.1286    0.6756   -6.2834 C.ar      1 <0>        -0.0781
     22 C16        10.4425    1.0962   -6.3448 C.ar      1 <0>        -0.0314
     23 C17        11.2614    0.6693   -7.3763 C.ar      1 <0>        -0.0721
     24 C18        10.7690   -0.1805   -8.3521 C.ar      1 <0>        -0.0288
     25 C19         9.4587   -0.6128   -8.2980 C.ar      1 <0>        -0.0444
     26 Cl1        11.8031   -0.7095   -9.6423 Cl        1 <0>        -0.0331
     27 Cl2        11.0685    2.1627   -5.1265 Cl        1 <0>        -0.0416
     28 H3          1.0039    1.9031    0.0027 H         1 <0>         0.0539
     29 H4         -0.5459    1.8868   -0.8726 H         1 <0>         0.0619
     30 H5         -0.5289    1.8773    0.9072 H         1 <0>         0.0697
     31 H6          0.2319   -0.1594    2.1383 H         1 <0>         0.0697
     32 H7          0.7568   -1.6008    1.2356 H         1 <0>         0.0626
     33 H8          1.7647   -0.1336    1.2338 H         1 <0>         0.0542
     34 H9         -1.9605   -0.1726   -0.8702 H         1 <0>         0.0606
     35 H10        -1.4185   -1.6235    0.0069 H         1 <0>         0.0611
     36 H11        -1.9435   -0.1821    0.9097 H         1 <0>         0.0680
     37 H12         0.7330   -1.5874   -1.2628 H         1 <0>         0.0891
     38 H13         0.1910   -0.1364   -2.1398 H         1 <0>         0.0891
     39 H14         2.1388    1.1220   -1.2617 H         1 <0>         0.1345
     40 H15         2.6808   -0.3290   -0.3846 H         1 <0>         0.1350
     41 H16         1.1379   -0.1245   -3.6621 H         1 <0>         0.1402
     42 H17         2.3035    1.2198   -3.6417 H         1 <0>         0.1337
     43 H18         2.7504   -1.5028   -4.9479 H         1 <0>         0.1001
     44 H19         2.3782    0.0127   -5.8057 H         1 <0>         0.1255
     45 H20         4.3136    1.0544   -2.4334 H         1 <0>         0.1492
     46 H21         4.7080   -0.4184   -1.5159 H         1 <0>         0.1449
     47 H22         4.9988   -1.7535   -6.0672 H         1 <0>         0.0867
     48 H23         4.5049   -0.3533   -7.0488 H         1 <0>         0.0896
     49 H24         6.7655    0.3819   -5.5238 H         1 <0>         0.3985
     50 H25         8.4907    1.0096   -5.4785 H         1 <0>         0.1381
     51 H26        12.2883    1.0009   -7.4201 H         1 <0>         0.1549
     52 H27         9.0771   -1.2796   -9.0570 H         1 <0>         0.1570
     53 H28         2.7848   -1.4481   -2.5214 H         1 <0>         0.4271
@<TRIPOS>BOND
     1    1    2 1
     2    1   28 1
     3    1   29 1
     4    1   30 1
     5    2    3 1
     6    2    4 1
     7    2    5 1
     8    3   31 1
     9    3   32 1
    10    3   33 1
    11    4   34 1
    12    4   35 1
    13    4   36 1
    14    5    6 1
    15    5   37 1
    16    5   38 1
    17    6    7 1
    18    6   39 1
    19    6   40 1
    20    7   14 1
    21    7    8 1
    22    7   53 1
    23    8    9 1
    24    8   41 1
    25    8   42 1
    26    9   10 1
    27    9   43 1
    28    9   44 1
    29   10   11 1
    30   10   12 1
    31   10   16 1
    32   12   13 1
    33   12   14 1
    34   12   15 1
    35   14   45 1
    36   14   46 1
    37   16   17 1
    38   16   47 1
    39   16   48 1
    40   17   18 am
    41   17   49 1
    42   18   19 2
    43   18   20 1
    44   20   25 ar
    45   20   21 ar
    46   21   22 ar
    47   21   50 1
    48   22   23 ar
    49   22   27 1
    50   23   24 ar
    51   23   51 1
    52   24   25 ar
    53   24   26 1
    54   25   52 1
@<TRIPOS>MOLECULE
ZINC04234800
   25    26     0     0     0
SMALL
USER_CHARGES
(2S)-2-(5-methyl-2-furyl)pyrrolidine
@<TRIPOS>ATOM
      1 C1          1.7170   -1.8750   -0.0240 C.3       1 <0>        -0.0880
      2 C2          1.2742   -0.4346   -0.0124 C.2       1 <0>         0.0383
      3 C3          2.0859    0.6380   -0.0144 C.2       1 <0>        -0.2158
      4 C4          1.2541    1.7812   -0.0004 C.2       1 <0>        -0.1274
      5 C5         -0.0161    1.3388    0.0094 C.2       1 <0>        -0.1133
      6 O1          0.0021   -0.0041    0.0020 O.3       1 <0>        -0.1825
      7 C6         -1.2504    2.2034    0.0202 C.3       1 <0>         0.1348
      8 H1         -1.0047    3.2047   -0.3337 H         1 <0>         0.1638
      9 C7         -1.8287    2.2751    1.4491 C.3       1 <0>        -0.1384
     10 C8         -3.3609    2.2420    1.2082 C.3       1 <0>        -0.1438
     11 C9         -3.4659    1.2876   -0.0074 C.3       1 <0>        -0.0090
     12 H2          0.8415   -2.5243   -0.0192 H         1 <0>         0.0819
     13 H3          2.3067   -2.0667   -0.9204 H         1 <0>         0.0984
     14 H4          2.3231   -2.0758    0.8594 H         1 <0>         0.0989
     15 H5          3.1658    0.6279   -0.0253 H         1 <0>         0.1632
     16 H6          1.5768    2.8119    0.0021 H         1 <0>         0.1615
     17 H7         -1.5122    1.4133    2.0367 H         1 <0>         0.1026
     18 H8         -1.5353    3.2045    1.9374 H         1 <0>         0.1198
     19 H9         -3.7386    3.2338    0.9597 H         1 <0>         0.1028
     20 H10        -3.8839    1.8326    2.0725 H         1 <0>         0.1202
     21 H11        -4.3855    1.4777   -0.5607 H         1 <0>         0.1411
     22 H12        -3.4285    0.2484    0.3196 H         1 <0>         0.1335
     23 N1         -2.2883    1.6084   -0.8353 N.4       1 <0>        -0.5204
     24 H13        -1.9275    0.7501   -1.2682 H         1 <0>         0.4391
     25 H14        -2.5545    2.2759   -1.5687 H         1 <0>         0.4385
@<TRIPOS>BOND
     1    1    2 1
     2    1   12 1
     3    1   13 1
     4    1   14 1
     5    2    6 1
     6    2    3 2
     7    3    4 1
     8    3   15 1
     9    4    5 2
    10    4   16 1
    11    5    6 1
    12    5    7 1
    13    7    8 1
    14    7    9 1
    15    7   23 1
    16    9   10 1
    17    9   17 1
    18    9   18 1
    19   10   11 1
    20   10   19 1
    21   10   20 1
    22   11   21 1
    23   11   22 1
    24   11   23 1
    25   23   24 1
    26   23   25 1
@<TRIPOS>MOLECULE
ZINC13448098
   37    38     0     0     0
SMALL
USER_CHARGES
(5R)-5-methyl-1-(4-pyrrolidin-1-ylbut-2-ynyl)pyrrolidin-2-one
@<TRIPOS>ATOM
      1 C1         -0.7675    1.5976    1.2366 C.3       1 <0>        -0.1605
      2 C2         -0.0127    1.0858    0.0080 C.3       1 <0>         0.1249
      3 H1          0.0021   -0.0041    0.0020 H         1 <0>         0.0919
      4 C3          1.4292    1.6401   -0.0028 C.3       1 <0>        -0.1290
      5 C4          1.6751    1.8496   -1.5149 C.3       1 <0>        -0.1562
      6 C5          0.2890    2.0224   -2.0958 C.2       1 <0>         0.5212
      7 O1          0.0474    2.4817   -3.1919 O.2       1 <0>        -0.5212
      8 N1         -0.6360    1.5920   -1.2205 N.am      1 <0>        -0.6195
      9 C6         -2.0806    1.6242   -1.4618 C.3       1 <0>         0.2174
     10 C7         -2.6291    2.9049   -0.9866 C.1       1 <0>        -0.0609
     11 C8         -3.0665    3.9263   -0.6075 C.1       1 <0>        -0.2718
     12 C9         -3.6150    5.2069   -0.1323 C.3       1 <0>         0.1448
     13 C10        -3.0618    6.1114   -2.3241 C.3       1 <0>        -0.0047
     14 C11        -2.8426    7.5364   -2.8914 C.3       1 <0>        -0.1475
     15 C12        -3.5826    8.4321   -1.8715 C.3       1 <0>        -0.1462
     16 C13        -3.6596    7.5941   -0.5818 C.3       1 <0>        -0.0101
     17 H2         -0.7856    2.6874    1.2239 H         1 <0>         0.0583
     18 H3         -1.7887    1.2170    1.2202 H         1 <0>         0.0588
     19 H4         -0.2658    1.2530    2.1408 H         1 <0>         0.0802
     20 H5          1.4878    2.5854    0.5366 H         1 <0>         0.0846
     21 H6          2.1294    0.9137    0.4099 H         1 <0>         0.0988
     22 H7          2.2737    2.7448   -1.6836 H         1 <0>         0.1075
     23 H8          2.1635    0.9760   -1.9467 H         1 <0>         0.1126
     24 H9         -2.2730    1.5205   -2.5297 H         1 <0>         0.1202
     25 H10        -2.5569    0.8035   -0.9254 H         1 <0>         0.1184
     26 H11        -4.6898    5.2309   -0.3118 H         1 <0>         0.1441
     27 H12        -3.4226    5.3107    0.9356 H         1 <0>         0.1483
     28 H13        -2.2784    5.4358   -2.6677 H         1 <0>         0.1334
     29 H14        -4.0459    5.7339   -2.6018 H         1 <0>         0.1328
     30 H15        -3.2882    7.6301   -3.8817 H         1 <0>         0.1162
     31 H16        -1.7807    7.7809   -2.9204 H         1 <0>         0.0983
     32 H17        -4.5846    8.6664   -2.2308 H         1 <0>         0.1041
     33 H18        -3.0210    9.3492   -1.6938 H         1 <0>         0.1059
     34 H19        -4.7016    7.4088   -0.3211 H         1 <0>         0.1330
     35 H20        -3.1601    8.1163    0.2342 H         1 <0>         0.1361
     36 N2         -2.9730    6.3346   -0.8725 N.4       1 <0>        -0.3971
     37 H21        -1.9878    6.4040   -0.5918 H         1 <0>         0.4330
@<TRIPOS>BOND
     1    1    2 1
     2    1   17 1
     3    1   18 1
     4    1   19 1
     5    2    3 1
     6    2    8 1
     7    2    4 1
     8    4    5 1
     9    4   20 1
    10    4   21 1
    11    5    6 1
    12    5   22 1
    13    5   23 1
    14    6    7 2
    15    6    8 am
    16    8    9 1
    17    9   10 1
    18    9   24 1
    19    9   25 1
    20   10   11 3
    21   11   12 1
    22   12   26 1
    23   12   27 1
    24   12   36 1
    25   13   14 1
    26   13   28 1
    27   13   29 1
    28   13   36 1
    29   14   15 1
    30   14   30 1
    31   14   31 1
    32   15   16 1
    33   15   32 1
    34   15   33 1
    35   16   34 1
    36   16   35 1
    37   16   36 1
    38   36   37 1
@<TRIPOS>MOLECULE
ZINC13448101
   37    38     0     0     0
SMALL
USER_CHARGES
(5S)-5-methyl-1-(4-pyrrolidin-1-ylbut-2-ynyl)pyrrolidin-2-one
@<TRIPOS>ATOM
      1 C1          0.8633    4.0010   -1.4020 C.3       1 <0>        -0.1630
      2 C2          0.7114    3.4148    0.0030 C.3       1 <0>         0.1256
      3 H1          1.3337    3.9640    0.7096 H         1 <0>         0.0949
      4 C3         -0.7678    3.4598    0.4461 C.3       1 <0>        -0.1291
      5 C4         -1.2661    2.0581    0.0186 C.3       1 <0>        -0.1555
      6 C5         -0.0144    1.2086    0.0087 C.2       1 <0>         0.5215
      7 O1          0.0021   -0.0041    0.0020 O.2       1 <0>        -0.5208
      8 N1          1.0769    1.9934    0.0025 N.am      1 <0>        -0.6189
      9 C6          2.4542    1.4941   -0.0035 C.3       1 <0>         0.2175
     10 C7          2.9090    1.3257   -1.3933 C.1       1 <0>        -0.0622
     11 C8          3.2717    1.1914   -2.5018 C.1       1 <0>        -0.2710
     12 C9          3.7265    1.0230   -3.8916 C.3       1 <0>         0.1445
     13 C10         5.2364   -0.6941   -3.0551 C.3       1 <0>        -0.0050
     14 C11         6.5346   -1.3551   -3.5828 C.3       1 <0>        -0.1474
     15 C12         6.4634   -1.0904   -5.1043 C.3       1 <0>        -0.1464
     16 C13         5.5178    0.1151   -5.2590 C.3       1 <0>        -0.0101
     17 H2          0.2301    3.4488   -2.0965 H         1 <0>         0.0597
     18 H3          0.5643    5.0492   -1.3927 H         1 <0>         0.0780
     19 H4          1.9035    3.9227   -1.7179 H         1 <0>         0.0545
     20 H5         -0.8480    3.5940    1.5248 H         1 <0>         0.0901
     21 H6         -1.3101    4.2430   -0.0838 H         1 <0>         0.0977
     22 H7         -1.7097    2.0955   -0.9763 H         1 <0>         0.1080
     23 H8         -1.9834    1.6721    0.7429 H         1 <0>         0.1097
     24 H9          3.1015    2.2073    0.5067 H         1 <0>         0.1187
     25 H10         2.4948    0.5340    0.5109 H         1 <0>         0.1202
     26 H11         3.0792    0.3097   -4.4018 H         1 <0>         0.1441
     27 H12         3.6859    1.9831   -4.4060 H         1 <0>         0.1484
     28 H13         5.3416   -0.4248   -2.0041 H         1 <0>         0.1336
     29 H14         4.3818   -1.3550   -3.2002 H         1 <0>         0.1334
     30 H15         6.5336   -2.4255   -3.3770 H         1 <0>         0.1162
     31 H16         7.4155   -0.8812   -3.1497 H         1 <0>         0.0983
     32 H17         6.0560   -1.9596   -5.6208 H         1 <0>         0.1042
     33 H18         7.4520   -0.8484   -5.4944 H         1 <0>         0.1060
     34 H19         4.6417   -0.1723   -5.8404 H         1 <0>         0.1330
     35 H20         6.0369    0.9371   -5.7518 H         1 <0>         0.1362
     36 N2          5.1271    0.5033   -3.9030 N.4       1 <0>        -0.3962
     37 H21         5.7598    1.2335   -3.5555 H         1 <0>         0.4318
@<TRIPOS>BOND
     1    1    2 1
     2    1   17 1
     3    1   18 1
     4    1   19 1
     5    2    3 1
     6    2    8 1
     7    2    4 1
     8    4    5 1
     9    4   20 1
    10    4   21 1
    11    5    6 1
    12    5   22 1
    13    5   23 1
    14    6    7 2
    15    6    8 am
    16    8    9 1
    17    9   10 1
    18    9   24 1
    19    9   25 1
    20   10   11 3
    21   11   12 1
    22   12   26 1
    23   12   27 1
    24   12   36 1
    25   13   14 1
    26   13   28 1
    27   13   29 1
    28   13   36 1
    29   14   15 1
    30   14   30 1
    31   14   31 1
    32   15   16 1
    33   15   32 1
    34   15   33 1
    35   16   34 1
    36   16   35 1
    37   16   36 1
    38   36   37 1
@<TRIPOS>MOLECULE
ZINC40423557
   63    67     0     0     0
SMALL
USER_CHARGES

@<TRIPOS>ATOM
      1 C1         -0.0184    1.5028    0.0103 C.3       1 <0>        -0.1268
      2 C2          0.0021   -0.0041    0.0020 C.ar      1 <0>        -0.0625
      3 C3          0.0057   -0.6888   -1.1991 C.ar      1 <0>        -0.1137
      4 C4          0.0245   -2.0707   -1.2067 C.ar      1 <0>        -0.0800
      5 C5          0.0400   -2.7685   -0.0132 C.ar      1 <0>        -0.1189
      6 C6          0.0373   -2.0840    1.1875 C.ar      1 <0>        -0.0887
      7 C7          0.0229   -0.7015    1.1951 C.ar      1 <0>        -0.1622
      8 C8          0.0252    0.0449    2.5043 C.3       1 <0>         0.0434
      9 N1         -1.3417    0.4779    2.8235 N.4       1 <0>        -0.3840
     10 C9         -2.1887   -0.7011    3.0406 C.3       1 <0>        -0.0058
     11 C10        -3.6313   -0.2580    3.2937 C.3       1 <0>        -0.1443
     12 C11        -3.6739    0.6386    4.5345 C.3       1 <0>         0.0742
     13 C12        -2.7299    1.8263    4.3266 C.3       1 <0>        -0.1443
     14 C13        -1.3207    1.3059    4.0353 C.3       1 <0>        -0.0049
     15 N2         -5.0433    1.1294    4.7390 N.3       1 <0>        -0.5293
     16 C14        -5.9936    0.0139    4.8331 C.3       1 <0>         0.0579
     17 C15        -7.4209    0.5621    4.8993 C.3       1 <0>        -0.1344
     18 C16        -7.5553    1.4759    6.1206 C.3       1 <0>         0.1676
     19 C17        -6.5221    2.6017    6.0220 C.3       1 <0>        -0.1348
     20 C18        -5.1209    1.9943    5.9232 C.3       1 <0>         0.0588
     21 N3         -8.9027    2.0498    6.1567 N.am      1 <0>        -0.5359
     22 C19        -9.8278    1.8937    7.1863 C.ar      1 <0>         0.0867
     23 C20        -9.7992    1.2183    8.3969 C.ar      1 <0>        -0.1069
     24 C21       -10.9020    1.2494    9.2276 C.ar      1 <0>        -0.1058
     25 C22       -12.0359    1.9516    8.8565 C.ar      1 <0>        -0.1060
     26 C23       -12.0740    2.6270    7.6525 C.ar      1 <0>        -0.1022
     27 C24       -10.9713    2.6023    6.8122 C.ar      1 <0>         0.0883
     28 N4        -10.7055    3.1670    5.5669 N.am      1 <0>        -0.6441
     29 H1        -11.3154    3.7178    5.0516 H         1 <0>         0.4361
     30 C25        -9.4558    2.8227    5.2031 C.2       1 <0>         0.6837
     31 O1         -8.9102    3.1566    4.1679 O.2       1 <0>        -0.5515
     32 H2          1.0042    1.8801    0.0026 H         1 <0>         0.0896
     33 H3         -0.5455    1.8639   -0.8728 H         1 <0>         0.0862
     34 H4         -0.5286    1.8543    0.9071 H         1 <0>         0.0473
     35 H5         -0.0064   -0.1437   -2.1314 H         1 <0>         0.1358
     36 H6          0.0266   -2.6056   -2.1449 H         1 <0>         0.1361
     37 H7          0.0540   -3.8484   -0.0191 H         1 <0>         0.1358
     38 H8          0.0491   -2.6290    2.1199 H         1 <0>         0.1314
     39 H9          0.3931   -0.6092    3.2948 H         1 <0>         0.1356
     40 H10         0.6733    0.9176    2.4238 H         1 <0>         0.1365
     41 H11        -2.1548   -1.3398    2.1580 H         1 <0>         0.1328
     42 H12        -1.8229   -1.2566    3.9042 H         1 <0>         0.1278
     43 H13        -3.9981    0.2975    2.4305 H         1 <0>         0.0987
     44 H14        -4.2581   -1.1347    3.4564 H         1 <0>         0.1128
     45 H15        -3.3556    0.0684    5.4072 H         1 <0>         0.0598
     46 H16        -3.0780    2.4250    3.4849 H         1 <0>         0.0995
     47 H17        -2.7124    2.4394    5.2277 H         1 <0>         0.1136
     48 H18        -0.9734    0.7077    4.8777 H         1 <0>         0.1296
     49 H19        -0.6459    2.1491    3.8870 H         1 <0>         0.1335
     50 H20        -5.8906   -0.6259    3.9566 H         1 <0>         0.0864
     51 H21        -5.7852   -0.5659    5.7322 H         1 <0>         0.0420
     52 H22        -7.6347    1.1306    3.9942 H         1 <0>         0.0950
     53 H23        -8.1250   -0.2655    4.9848 H         1 <0>         0.0766
     54 H24        -7.3796    0.8988    7.0284 H         1 <0>         0.0948
     55 H25        -6.7218    3.2022    5.1345 H         1 <0>         0.0953
     56 H26        -6.5841    3.2313    6.9096 H         1 <0>         0.0766
     57 H27        -4.9166    1.4052    6.8173 H         1 <0>         0.0420
     58 H28        -4.3840    2.7930    5.8385 H         1 <0>         0.0858
     59 H29        -8.9166    0.6689    8.6894 H         1 <0>         0.1269
     60 H30       -10.8798    0.7234   10.1706 H         1 <0>         0.1354
     61 H31       -12.8946    1.9711    9.5113 H         1 <0>         0.1367
     62 H32       -12.9606    3.1731    7.3661 H         1 <0>         0.1338
     63 H33        -1.7107    1.0176    2.0550 H         1 <0>         0.4209
@<TRIPOS>BOND
     1    1    2 1
     2    1   32 1
     3    1   33 1
     4    1   34 1
     5    2    7 ar
     6    2    3 ar
     7    3    4 ar
     8    3   35 1
     9    4    5 ar
    10    4   36 1
    11    5    6 ar
    12    5   37 1
    13    6    7 ar
    14    6   38 1
    15    7    8 1
    16    8    9 1
    17    8   39 1
    18    8   40 1
    19    9   14 1
    20    9   10 1
    21    9   63 1
    22   10   11 1
    23   10   41 1
    24   10   42 1
    25   11   12 1
    26   11   43 1
    27   11   44 1
    28   12   13 1
    29   12   15 1
    30   12   45 1
    31   13   14 1
    32   13   46 1
    33   13   47 1
    34   14   48 1
    35   14   49 1
    36   15   20 1
    37   15   16 1
    38   16   17 1
    39   16   50 1
    40   16   51 1
    41   17   18 1
    42   17   52 1
    43   17   53 1
    44   18   19 1
    45   18   21 1
    46   18   54 1
    47   19   20 1
    48   19   55 1
    49   19   56 1
    50   20   57 1
    51   20   58 1
    52   21   30 am
    53   21   22 1
    54   22   27 ar
    55   22   23 ar
    56   23   24 ar
    57   23   59 1
    58   24   25 ar
    59   24   60 1
    60   25   26 ar
    61   25   61 1
    62   26   27 ar
    63   26   62 1
    64   27   28 1
    65   28   29 1
    66   28   30 am
    67   30   31 2
