@<TRIPOS>MOLECULE
ZINC03995626
   84    87     0     0     0
SMALL
USER_CHARGES
3-(1,3-dioxoisoindolin-2-yl)propyl-[6-[3-(1,3-dioxoisoindolin-2-yl)propyl-dimethyl-ammonio]hexyl]-dimethyl-ammonium
@<TRIPOS>ATOM
      1 C1          6.2893   12.1014   -1.1925 C.3       1 <0>        -0.0568
      2 N1          6.9998   11.6148   -0.0024 N.4       1 <0>        -0.2675
      3 C2          6.3122   12.0885    1.2062 C.3       1 <0>        -0.0569
      4 C3          7.0197   10.1459   -0.0105 C.3       1 <0>        -0.0080
      5 C4          5.5843    9.6163    0.0004 C.3       1 <0>        -0.1517
      6 C5          5.6051    8.0865   -0.0080 C.3       1 <0>        -0.1181
      7 C6          4.1697    7.5569    0.0028 C.3       1 <0>        -0.1181
      8 C7          4.1905    6.0271   -0.0056 C.3       1 <0>        -0.1517
      9 C8          2.7551    5.4975    0.0053 C.3       1 <0>        -0.0080
     10 N2          2.7750    4.0287   -0.0028 N.4       1 <0>        -0.2675
     11 C9          3.4855    3.5420    1.1873 C.3       1 <0>        -0.0568
     12 C10         3.4626    3.5549   -1.2114 C.3       1 <0>        -0.0569
     13 C11         1.3968    3.5202    0.0076 C.3       1 <0>        -0.0030
     14 C12         1.4176    1.9904   -0.0008 C.3       1 <0>        -0.1723
     15 C13        -0.0178    1.4608    0.0101 C.3       1 <0>         0.1168
     16 N3          0.0021   -0.0041    0.0020 N.am      1 <0>        -0.5821
     17 C14        -0.0040   -0.7593   -1.1112 C.2       1 <0>         0.5789
     18 O1         -0.0260   -0.3413   -2.2513 O.2       1 <0>        -0.4587
     19 C15         0.0235   -2.1830   -0.7147 C.ar      1 <0>        -0.1501
     20 C16         0.0324   -3.3813   -1.4103 C.ar      1 <0>        -0.0384
     21 C17         0.0549   -4.5798   -0.7143 C.ar      1 <0>        -0.0876
     22 C18         0.0686   -4.5872    0.6679 C.ar      1 <0>        -0.0876
     23 C19         0.0600   -3.3963    1.3771 C.ar      1 <0>        -0.0384
     24 C20         0.0375   -2.1906    0.6947 C.ar      1 <0>        -0.1500
     25 C21         0.0230   -0.7711    1.1069 C.2       1 <0>         0.5788
     26 O2          0.0289   -0.3653    2.2516 O.2       1 <0>        -0.4588
     27 C22         8.3780   12.1232   -0.0128 C.3       1 <0>        -0.0030
     28 C23         8.3572   13.6531   -0.0044 C.3       1 <0>        -0.1723
     29 C24         9.7926   14.1826   -0.0153 C.3       1 <0>         0.1169
     30 N4          9.7727   15.6475   -0.0072 N.am      1 <0>        -0.5822
     31 C25         9.7577   16.4146   -1.1122 C.2       1 <0>         0.5789
     32 O3          9.7578   16.0089   -2.2569 O.2       1 <0>        -0.4587
     33 C26         9.7378   17.8340   -0.6999 C.ar      1 <0>        -0.1501
     34 C27         9.7158   19.0397   -1.3824 C.ar      1 <0>        -0.0385
     35 C28         9.7067   20.2307   -0.6732 C.ar      1 <0>        -0.0875
     36 C29         9.7194   20.2232    0.7090 C.ar      1 <0>        -0.0876
     37 C30         9.7414   19.0248    1.4051 C.ar      1 <0>        -0.0384
     38 C31         9.7508   17.8264    0.7095 C.ar      1 <0>        -0.1501
     39 C32         9.7730   16.4026    1.1061 C.2       1 <0>         0.5789
     40 O4          9.7889   15.9846    2.2462 O.2       1 <0>        -0.4587
     41 H1          5.2667   11.7241   -1.1848 H         1 <0>         0.1239
     42 H2          6.2745   13.1913   -1.1865 H         1 <0>         0.1248
     43 H3          6.7995   11.7499   -2.0893 H         1 <0>         0.1248
     44 H4          6.8394   11.7274    2.0893 H         1 <0>         0.1248
     45 H5          6.2974   13.1784    1.2122 H         1 <0>         0.1248
     46 H6          5.2896   11.7112    1.2140 H         1 <0>         0.1239
     47 H7          7.5469    9.7848    0.8726 H         1 <0>         0.1297
     48 H8          7.5299    9.7944   -0.9073 H         1 <0>         0.1297
     49 H9          5.0572    9.9774   -0.8827 H         1 <0>         0.0903
     50 H10         5.0742    9.9679    0.8972 H         1 <0>         0.0903
     51 H11         6.1323    7.7254    0.8750 H         1 <0>         0.0779
     52 H12         6.1153    7.7350   -0.9048 H         1 <0>         0.0779
     53 H13         3.6425    7.9180   -0.8802 H         1 <0>         0.0779
     54 H14         3.6595    7.9084    0.8996 H         1 <0>         0.0779
     55 H15         4.7176    5.6660    0.8775 H         1 <0>         0.0903
     56 H16         4.7007    5.6756   -0.9024 H         1 <0>         0.0903
     57 H17         2.2279    5.8586   -0.8778 H         1 <0>         0.1297
     58 H18         2.2449    5.8490    0.9021 H         1 <0>         0.1297
     59 H19         3.5003    2.4521    1.1813 H         1 <0>         0.1248
     60 H20         4.5081    3.9193    1.1796 H         1 <0>         0.1239
     61 H21         2.9753    3.8936    2.0841 H         1 <0>         0.1248
     62 H22         2.9354    3.9160   -2.0945 H         1 <0>         0.1248
     63 H23         4.4852    3.9322   -1.2192 H         1 <0>         0.1239
     64 H24         3.4774    2.4650   -1.2174 H         1 <0>         0.1248
     65 H25         0.8697    3.8813   -0.8754 H         1 <0>         0.1350
     66 H26         0.8867    3.8717    0.9044 H         1 <0>         0.1350
     67 H27         1.9448    1.6293    0.8823 H         1 <0>         0.0965
     68 H28         1.9278    1.6388   -0.8976 H         1 <0>         0.0964
     69 H29        -0.5450    1.8219   -0.8730 H         1 <0>         0.1079
     70 H30        -0.5280    1.8123    0.9069 H         1 <0>         0.1078
     71 H31         0.0214   -3.3816   -2.4903 H         1 <0>         0.1457
     72 H32         0.0614   -5.5143   -1.2556 H         1 <0>         0.1493
     73 H33         0.0858   -5.5275    1.1990 H         1 <0>         0.1493
     74 H34         0.0711   -3.4081    2.4570 H         1 <0>         0.1457
     75 H35         8.9052   11.7622    0.8702 H         1 <0>         0.1350
     76 H36         8.8882   11.7717   -0.9096 H         1 <0>         0.1350
     77 H37         7.8300   14.0141   -0.8875 H         1 <0>         0.0964
     78 H38         7.8470   14.0046    0.8924 H         1 <0>         0.0965
     79 H39        10.3198   13.8216    0.8678 H         1 <0>         0.1078
     80 H40        10.3028   13.8311   -0.9121 H         1 <0>         0.1079
     81 H41         9.7062   19.0516   -2.4623 H         1 <0>         0.1457
     82 H42         9.6899   21.1709   -1.2043 H         1 <0>         0.1493
     83 H43         9.7125   21.1577    1.2504 H         1 <0>         0.1493
     84 H44         9.7509   19.0250    2.4851 H         1 <0>         0.1457
@<TRIPOS>BOND
     1    1    2 1
     2    1   41 1
     3    1   42 1
     4    1   43 1
     5    2    3 1
     6    2    4 1
     7    2   27 1
     8    3   44 1
     9    3   45 1
    10    3   46 1
    11    4    5 1
    12    4   47 1
    13    4   48 1
    14    5    6 1
    15    5   49 1
    16    5   50 1
    17    6    7 1
    18    6   51 1
    19    6   52 1
    20    7    8 1
    21    7   53 1
    22    7   54 1
    23    8    9 1
    24    8   55 1
    25    8   56 1
    26    9   10 1
    27    9   57 1
    28    9   58 1
    29   10   11 1
    30   10   12 1
    31   10   13 1
    32   11   59 1
    33   11   60 1
    34   11   61 1
    35   12   62 1
    36   12   63 1
    37   12   64 1
    38   13   14 1
    39   13   65 1
    40   13   66 1
    41   14   15 1
    42   14   67 1
    43   14   68 1
    44   15   16 1
    45   15   69 1
    46   15   70 1
    47   16   25 am
    48   16   17 am
    49   17   18 2
    50   17   19 1
    51   19   24 ar
    52   19   20 ar
    53   20   21 ar
    54   20   71 1
    55   21   22 ar
    56   21   72 1
    57   22   23 ar
    58   22   73 1
    59   23   24 ar
    60   23   74 1
    61   24   25 1
    62   25   26 2
    63   27   28 1
    64   27   75 1
    65   27   76 1
    66   28   29 1
    67   28   77 1
    68   28   78 1
    69   29   30 1
    70   29   79 1
    71   29   80 1
    72   30   39 am
    73   30   31 am
    74   31   32 2
    75   31   33 1
    76   33   38 ar
    77   33   34 ar
    78   34   35 ar
    79   34   81 1
    80   35   36 ar
    81   35   82 1
    82   36   37 ar
    83   36   83 1
    84   37   38 ar
    85   37   84 1
    86   38   39 1
    87   39   40 2
@<TRIPOS>MOLECULE
ZINC03830882
   96    96     0     0     0
SMALL
USER_CHARGES

@<TRIPOS>ATOM
      1 C1         -3.0524   -1.5219   -1.0085 C.3       1 <0>        -0.1902
      2 C2         -3.7225   -1.1930    0.3271 C.3       1 <0>        -0.0263
      3 N1         -3.4874    0.2187    0.6583 N.4       1 <0>        -0.2613
      4 C3         -4.1044    1.0714   -0.3664 C.3       1 <0>        -0.0163
      5 C4         -5.6098    0.8027   -0.4146 C.3       1 <0>        -0.1917
      6 C5         -4.0807    0.5197    1.9680 C.3       1 <0>        -0.0250
      7 C6         -3.8359    1.9900    2.3130 C.3       1 <0>        -0.1884
      8 C7         -2.0419    0.4766    0.7046 C.3       1 <0>        -0.0169
      9 C8         -1.3903   -0.4545    1.7289 C.3       1 <0>         0.0300
     10 O1          0.0253   -0.2592    1.7174 O.3       1 <0>        -0.3041
     11 C9          0.7674   -1.0732    2.5150 C.ar      1 <0>         0.1493
     12 C10         0.1581   -2.1056    3.2120 C.ar      1 <0>        -0.2175
     13 C11         0.9115   -2.9335    4.0230 C.ar      1 <0>        -0.0205
     14 C12         2.2744   -2.7361    4.1428 C.ar      1 <0>        -0.2147
     15 C13         2.8913   -1.7060    3.4492 C.ar      1 <0>         0.1504
     16 C14         2.1383   -0.8749    2.6283 C.ar      1 <0>         0.0269
     17 O2          2.7409    0.1338    1.9415 O.3       1 <0>        -0.3031
     18 C15         2.8548    1.3936    2.6063 C.3       1 <0>         0.0265
     19 C16         3.5296    2.4025    1.6748 C.3       1 <0>        -0.0165
     20 N2          2.6229    2.7274    0.5656 N.4       1 <0>        -0.2613
     21 C17         3.2067    3.8048   -0.2446 C.3       1 <0>        -0.0209
     22 C18         2.2623    4.1431   -1.3998 C.3       1 <0>        -0.1876
     23 C19         2.4270    1.5363   -0.2716 C.3       1 <0>        -0.0217
     24 C20         3.7872    1.0022   -0.7249 C.3       1 <0>        -0.1803
     25 C21         1.3283    3.1659    1.1038 C.3       1 <0>        -0.0226
     26 C22         1.5425    4.3553    2.0421 C.3       1 <0>        -0.1918
     27 O3          4.2322   -1.5123    3.5681 O.3       1 <0>        -0.3067
     28 C23         4.9435   -2.4078    4.4249 C.3       1 <0>         0.0237
     29 C24         6.4277   -2.0362    4.4315 C.3       1 <0>        -0.0130
     30 N3          6.6040   -0.7357    5.0915 N.4       1 <0>        -0.2645
     31 C25         8.0376   -0.4405    5.2168 C.3       1 <0>        -0.0209
     32 C26         8.2212    0.9140    5.9042 C.3       1 <0>        -0.1877
     33 C27         5.9565    0.3117    4.2905 C.3       1 <0>        -0.0246
     34 C28         6.5064    0.2753    2.8632 C.3       1 <0>        -0.1822
     35 C29         5.9942   -0.7779    6.4273 C.3       1 <0>        -0.0220
     36 C30         6.6685   -1.8688    7.2616 C.3       1 <0>        -0.1928
     37 H1         -3.1749   -2.5832   -1.2249 H         1 <0>         0.1113
     38 H2         -3.5146   -0.9338   -1.8014 H         1 <0>         0.0871
     39 H3         -1.9905   -1.2830   -0.9508 H         1 <0>         0.0759
     40 H4         -4.7945   -1.3746    0.2502 H         1 <0>         0.1421
     41 H5         -3.3022   -1.8247    1.1096 H         1 <0>         0.1260
     42 H6         -3.9299    2.1189   -0.1206 H         1 <0>         0.1316
     43 H7         -3.6641    0.8481   -1.3382 H         1 <0>         0.1322
     44 H8         -6.0677    1.4355   -1.1750 H         1 <0>         0.1120
     45 H9         -5.7843   -0.2448   -0.6604 H         1 <0>         0.0847
     46 H10        -6.0501    1.0261    0.5572 H         1 <0>         0.0841
     47 H11        -5.1532    0.3283    1.9337 H         1 <0>         0.1414
     48 H12        -3.6229   -0.1131    2.7284 H         1 <0>         0.1258
     49 H13        -4.2761    2.2134    3.2848 H         1 <0>         0.1110
     50 H14        -2.7633    2.1814    2.3474 H         1 <0>         0.0731
     51 H15        -4.2937    2.6228    1.5527 H         1 <0>         0.0872
     52 H16        -1.6087    0.2949   -0.2789 H         1 <0>         0.1422
     53 H17        -1.8669    1.5132    0.9928 H         1 <0>         0.1375
     54 H18        -1.7797   -0.2313    2.7223 H         1 <0>         0.0925
     55 H19        -1.6163   -1.4899    1.4742 H         1 <0>         0.0943
     56 H20        -0.9065   -2.2629    3.1213 H         1 <0>         0.1400
     57 H21         0.4340   -3.7365    4.5647 H         1 <0>         0.1489
     58 H22         2.8595   -3.3849    4.7777 H         1 <0>         0.1456
     59 H23         1.8617    1.7542    2.8743 H         1 <0>         0.0824
     60 H24         3.4542    1.2752    3.5090 H         1 <0>         0.0905
     61 H25         3.7634    3.3104    2.2308 H         1 <0>         0.1463
     62 H26         4.4492    1.9724    1.2783 H         1 <0>         0.1423
     63 H27         3.3520    4.6886    0.3767 H         1 <0>         0.1310
     64 H28         4.1673    3.4794   -0.6439 H         1 <0>         0.1320
     65 H29         2.6955    4.9426   -2.0010 H         1 <0>         0.1103
     66 H30         2.1170    3.2594   -2.0210 H         1 <0>         0.0814
     67 H31         1.3017    4.4685   -1.0005 H         1 <0>         0.0790
     68 H32         1.9088    0.7691    0.3036 H         1 <0>         0.1469
     69 H33         1.8309    1.8003   -1.1452 H         1 <0>         0.1229
     70 H34         3.6419    0.1184   -1.3461 H         1 <0>         0.1026
     71 H35         4.3055    1.7694   -1.3001 H         1 <0>         0.0763
     72 H36         4.3834    0.7383    0.1487 H         1 <0>         0.0809
     73 H37         0.6756    3.4636    0.2831 H         1 <0>         0.1309
     74 H38         0.8677    2.3463    1.6554 H         1 <0>         0.1246
     75 H39         2.0031    5.1749    1.4905 H         1 <0>         0.0875
     76 H40         0.5819    4.6807    2.4414 H         1 <0>         0.1057
     77 H41         2.1951    4.0576    2.8628 H         1 <0>         0.0777
     78 H42         4.5461   -2.3346    5.4372 H         1 <0>         0.0955
     79 H43         4.8262   -3.4287    4.0614 H         1 <0>         0.1173
     80 H44         6.9904   -2.7973    4.9722 H         1 <0>         0.1557
     81 H45         6.7916   -1.9755    3.4059 H         1 <0>         0.1468
     82 H46         8.5180   -1.2177    5.8112 H         1 <0>         0.1353
     83 H47         8.4900   -0.4093    4.2256 H         1 <0>         0.1317
     84 H48         9.2849    1.1330    5.9971 H         1 <0>         0.1105
     85 H49         7.7407    1.6912    5.3098 H         1 <0>         0.0778
     86 H50         7.7687    0.8827    6.8953 H         1 <0>         0.0825
     87 H51         4.8803    0.1401    4.2697 H         1 <0>         0.1336
     88 H52         6.1605    1.2863    4.7337 H         1 <0>         0.1263
     89 H53         6.3024   -0.6994    2.4199 H         1 <0>         0.0880
     90 H54         6.0260    1.0524    2.2688 H         1 <0>         0.0894
     91 H55         7.5826    0.4468    2.8839 H         1 <0>         0.0829
     92 H56         6.1250    0.1871    6.9170 H         1 <0>         0.1346
     93 H57         4.9305   -0.9969    6.3344 H         1 <0>         0.1227
     94 H58         6.5377   -2.8337    6.7719 H         1 <0>         0.0801
     95 H59         7.7323   -1.6497    7.3546 H         1 <0>         0.0879
     96 H60         6.2161   -1.9000    8.2528 H         1 <0>         0.1100
@<TRIPOS>BOND
     1    1    2 1
     2    1   37 1
     3    1   38 1
     4    1   39 1
     5    2    3 1
     6    2   40 1
     7    2   41 1
     8    3    4 1
     9    3    6 1
    10    3    8 1
    11    4    5 1
    12    4   42 1
    13    4   43 1
    14    5   44 1
    15    5   45 1
    16    5   46 1
    17    6    7 1
    18    6   47 1
    19    6   48 1
    20    7   49 1
    21    7   50 1
    22    7   51 1
    23    8    9 1
    24    8   52 1
    25    8   53 1
    26    9   10 1
    27    9   54 1
    28    9   55 1
    29   10   11 1
    30   11   16 ar
    31   11   12 ar
    32   12   13 ar
    33   12   56 1
    34   13   14 ar
    35   13   57 1
    36   14   15 ar
    37   14   58 1
    38   15   16 ar
    39   15   27 1
    40   16   17 1
    41   17   18 1
    42   18   19 1
    43   18   59 1
    44   18   60 1
    45   19   20 1
    46   19   61 1
    47   19   62 1
    48   20   21 1
    49   20   23 1
    50   20   25 1
    51   21   22 1
    52   21   63 1
    53   21   64 1
    54   22   65 1
    55   22   66 1
    56   22   67 1
    57   23   24 1
    58   23   68 1
    59   23   69 1
    60   24   70 1
    61   24   71 1
    62   24   72 1
    63   25   26 1
    64   25   73 1
    65   25   74 1
    66   26   75 1
    67   26   76 1
    68   26   77 1
    69   27   28 1
    70   28   29 1
    71   28   78 1
    72   28   79 1
    73   29   30 1
    74   29   80 1
    75   29   81 1
    76   30   31 1
    77   30   33 1
    78   30   35 1
    79   31   32 1
    80   31   82 1
    81   31   83 1
    82   32   84 1
    83   32   85 1
    84   32   86 1
    85   33   34 1
    86   33   87 1
    87   33   88 1
    88   34   89 1
    89   34   90 1
    90   34   91 1
    91   35   36 1
    92   35   92 1
    93   35   93 1
    94   36   94 1
    95   36   95 1
    96   36   96 1
@<TRIPOS>MOLECULE
ZINC00016827
   30    32     0     0     0
SMALL
USER_CHARGES
1,2,3,4-tetrahydroacridin-9-amine
@<TRIPOS>ATOM
      1 C1         -2.2590   -4.1734    0.7266 C.ar      1 <0>        -0.1151
      2 C2         -1.1015   -4.8453    0.3414 C.ar      1 <0>        -0.0282
      3 C3          0.0181   -4.1626   -0.0240 C.ar      1 <0>        -0.1547
      4 C4          0.0125   -2.7569   -0.0146 C.ar      1 <0>         0.1855
      5 C5         -1.1660   -2.0778    0.3770 C.ar      1 <0>        -0.1377
      6 C6         -2.3011   -2.8116    0.7474 C.ar      1 <0>        -0.0565
      7 C7         -1.1623   -0.6653    0.3817 C.ar      1 <0>         0.3675
      8 C8          0.0021   -0.0041    0.0020 C.ar      1 <0>        -0.2105
      9 C9          1.1175   -0.7361   -0.3646 C.ar      1 <0>         0.2712
     10 C10         2.4120   -0.0754   -0.7701 C.3       1 <0>        -0.1168
     11 C11         2.1762    1.3865   -1.1417 C.3       1 <0>        -0.1213
     12 C12         1.4039    2.0583   -0.0003 C.3       1 <0>        -0.1267
     13 C13        -0.0183    1.5015    0.0103 C.3       1 <0>        -0.0727
     14 N1         -2.2920    0.0458    0.7563 N.pl3     1 <0>        -0.7940
     15 H1         -3.1340   -4.7385    1.0119 H         1 <0>         0.1511
     16 H2         -1.0919   -5.9252    0.3327 H         1 <0>         0.1529
     17 H3          0.9072   -4.6991   -0.3207 H         1 <0>         0.1539
     18 H4         -3.2041   -2.3007    1.0473 H         1 <0>         0.1465
     19 H5          3.1167   -0.1260    0.0600 H         1 <0>         0.1184
     20 H6          2.8304   -0.6013   -1.6283 H         1 <0>         0.1086
     21 H7          3.1338    1.8881   -1.2812 H         1 <0>         0.0939
     22 H8          1.5929    1.4414   -2.0609 H         1 <0>         0.0797
     23 H9          1.3752    3.1361   -0.1607 H         1 <0>         0.0897
     24 H10         1.8906    1.8408    0.9505 H         1 <0>         0.0760
     25 H11        -0.5506    1.8586   -0.8713 H         1 <0>         0.0921
     26 H12        -0.5337    1.8490    0.9057 H         1 <0>         0.0852
     27 H13        -2.2768    1.0157    0.7558 H         1 <0>         0.4265
     28 H14        -3.0975   -0.4265    1.0190 H         1 <0>         0.4221
     29 N2          1.1637   -2.1007   -0.3898 N.ar      1 <0>        -0.5514
     30 H15         2.0097   -2.6092   -0.6727 H         1 <0>         0.4649
@<TRIPOS>BOND
     1    1    6 ar
     2    1    2 ar
     3    1   15 1
     4    2    3 ar
     5    2   16 1
     6    3    4 ar
     7    3   17 1
     8    4    5 ar
     9    4   29 ar
    10    5    6 ar
    11    5    7 ar
    12    6   18 1
    13    7    8 ar
    14    7   14 1
    15    8   13 1
    16    8    9 ar
    17    9   10 1
    18    9   29 ar
    19   10   11 1
    20   10   19 1
    21   10   20 1
    22   11   12 1
    23   11   21 1
    24   11   22 1
    25   12   13 1
    26   12   23 1
    27   12   24 1
    28   13   25 1
    29   13   26 1
    30   14   27 1
    31   14   28 1
    32   29   30 1
