@<TRIPOS>MOLECULE
ZINC05160057
   40    41     0     0     0
SMALL
USER_CHARGES
1-[2-(3-pyrrolidin-1-ylprop-1-ynyl)-1-piperidyl]ethanone
@<TRIPOS>ATOM
      1 C1          7.8536    1.1026    2.1619 C.3       1 <0>        -0.1818
      2 C2          7.1213    2.1564    1.3718 C.2       1 <0>         0.5181
      3 O1          7.3539    2.2993    0.1901 O.2       1 <0>        -0.5360
      4 N1          6.2079    2.9401    1.9784 N.am      1 <0>        -0.6121
      5 C3          5.8368    2.7092    3.3812 C.3       1 <0>         0.0993
      6 C4          6.0130    4.0169    4.1594 C.3       1 <0>        -0.1407
      7 C5          5.2137    5.1265    3.4723 C.3       1 <0>        -0.1226
      8 C6          5.7438    5.3346    2.0518 C.3       1 <0>        -0.1261
      9 C7          5.5646    4.0418    1.2497 C.3       1 <0>         0.2329
     10 H1          6.0271    4.1532    0.2689 H         1 <0>         0.1337
     11 C8          4.1297    3.7558    1.0889 C.1       1 <0>        -0.0464
     12 C9          2.9852    3.5276    0.9607 C.1       1 <0>        -0.2749
     13 C10         1.5503    3.2415    0.7999 C.3       1 <0>         0.1452
     14 C11        -0.0278    1.5530    0.0507 C.3       1 <0>        -0.0091
     15 C12        -0.0119    0.0132    0.0482 C.3       1 <0>        -0.1466
     16 C13         1.4845   -0.3751    0.0574 C.3       1 <0>        -0.1468
     17 C14         2.1679    0.8926    0.6287 C.3       1 <0>        -0.0049
     18 H2          7.4475    1.0584    3.1725 H         1 <0>         0.0859
     19 H3          7.7296    0.1339    1.6778 H         1 <0>         0.0993
     20 H4          8.9135    1.3532    2.2069 H         1 <0>         0.1040
     21 H5          6.4811    1.9405    3.8078 H         1 <0>         0.1023
     22 H6          4.7965    2.3887    3.4360 H         1 <0>         0.0663
     23 H7          7.0684    4.2885    4.1804 H         1 <0>         0.0765
     24 H8          5.6507    3.8857    5.1791 H         1 <0>         0.0833
     25 H9          5.3175    6.0524    4.0379 H         1 <0>         0.0779
     26 H10         4.1621    4.8430    3.4295 H         1 <0>         0.0614
     27 H11         6.8018    5.5937    2.0926 H         1 <0>         0.0893
     28 H12         5.1897    6.1408    1.5711 H         1 <0>         0.0848
     29 H13         1.0726    4.0657    0.2702 H         1 <0>         0.1504
     30 H14         1.0907    3.1255    1.7814 H         1 <0>         0.1444
     31 H15        -0.5472    1.9204   -0.8343 H         1 <0>         0.1365
     32 H16        -0.5207    1.9178    0.9519 H         1 <0>         0.1335
     33 H17        -0.5080   -0.3717    0.9391 H         1 <0>         0.1040
     34 H18        -0.4979   -0.3687   -0.8496 H         1 <0>         0.1061
     35 H19         1.6566   -1.2325    0.7080 H         1 <0>         0.1158
     36 H20         1.8359   -0.5802   -0.9538 H         1 <0>         0.0982
     37 H21         2.0949    0.9121    1.7160 H         1 <0>         0.1315
     38 H22         3.2101    0.9431    0.3134 H         1 <0>         0.1315
     39 N2          1.3778    1.9738    0.0285 N.4       1 <0>        -0.3970
     40 H23         1.6796    2.1261   -0.9410 H         1 <0>         0.4329
@<TRIPOS>BOND
     1    1    2 1
     2    1   18 1
     3    1   19 1
     4    1   20 1
     5    2    3 2
     6    2    4 am
     7    4    9 1
     8    4    5 1
     9    5    6 1
    10    5   21 1
    11    5   22 1
    12    6    7 1
    13    6   23 1
    14    6   24 1
    15    7    8 1
    16    7   25 1
    17    7   26 1
    18    8    9 1
    19    8   27 1
    20    8   28 1
    21    9   10 1
    22    9   11 1
    23   11   12 3
    24   12   13 1
    25   13   29 1
    26   13   30 1
    27   13   39 1
    28   14   15 1
    29   14   31 1
    30   14   32 1
    31   14   39 1
    32   15   16 1
    33   15   33 1
    34   15   34 1
    35   16   17 1
    36   16   35 1
    37   16   36 1
    38   17   37 1
    39   17   38 1
    40   17   39 1
    41   39   40 1
@<TRIPOS>MOLECULE
ZINC05160067
   40    41     0     0     0
SMALL
USER_CHARGES
1-[2-(3-pyrrolidin-1-ylprop-1-ynyl)-1-piperidyl]ethanone
@<TRIPOS>ATOM
      1 C1         -4.6353    2.4818   -1.2400 C.3       1 <0>        -0.1852
      2 C2         -4.0129    2.0178    0.0517 C.2       1 <0>         0.5251
      3 O1         -4.5822    2.2149    1.1043 O.2       1 <0>        -0.5553
      4 N1         -2.8236    1.3839    0.0372 N.am      1 <0>        -0.6089
      5 C3         -2.1802    1.0285   -1.2350 C.3       1 <0>         0.0978
      6 C4         -0.7561    1.5929   -1.2419 C.3       1 <0>        -0.1410
      7 C5         -0.0098    1.0987   -0.0005 C.3       1 <0>        -0.1231
      8 C6         -0.7222    1.5998    1.2579 C.3       1 <0>        -0.1268
      9 C7         -2.1457    1.0355    1.2932 C.3       1 <0>         0.2445
     10 H1         -2.1065   -0.0487    1.3988 H         1 <0>         0.1072
     11 C8         -2.8815    1.6156    2.4285 C.1       1 <0>        -0.0380
     12 C9         -3.4684    2.0782    3.3340 C.1       1 <0>        -0.2555
     13 C10        -4.2042    2.6583    4.4692 C.3       1 <0>         0.1520
     14 C11        -2.0858    2.6746    5.6694 C.3       1 <0>         0.0005
     15 C12        -1.6801    2.7397    7.1632 C.3       1 <0>        -0.1474
     16 C13        -2.9315    3.3501    7.8351 C.3       1 <0>        -0.1456
     17 C14        -4.0902    3.0644    6.8619 C.3       1 <0>        -0.0105
     18 H2         -4.0304    2.1377   -2.0789 H         1 <0>         0.0882
     19 H3         -5.6419    2.0726   -1.3259 H         1 <0>         0.0988
     20 H4         -4.6837    3.5707   -1.2495 H         1 <0>         0.0999
     21 H5         -2.7465    1.4556   -2.0627 H         1 <0>         0.1025
     22 H6         -2.1440   -0.0560   -1.3382 H         1 <0>         0.0809
     23 H7         -0.7964    2.6821   -1.2326 H         1 <0>         0.0716
     24 H8         -0.2353    1.2553   -2.1379 H         1 <0>         0.0875
     25 H9          0.0086    0.0089    0.0022 H         1 <0>         0.0724
     26 H10         1.0115    1.4791   -0.0154 H         1 <0>         0.0796
     27 H11        -0.1773    1.2671    2.1413 H         1 <0>         0.0856
     28 H12        -0.7628    2.6890    1.2436 H         1 <0>         0.0747
     29 H13        -4.2379    3.7427    4.3644 H         1 <0>         0.1381
     30 H14        -5.2199    2.2629    4.4840 H         1 <0>         0.1433
     31 H15        -1.5130    1.9076    5.1482 H         1 <0>         0.1332
     32 H16        -1.9538    3.6457    5.1922 H         1 <0>         0.1288
     33 H17        -0.8142    3.3876    7.2999 H         1 <0>         0.1139
     34 H18        -1.4814    1.7413    7.5528 H         1 <0>         0.0965
     35 H19        -2.8041    4.4246    7.9666 H         1 <0>         0.1029
     36 H20        -3.1172    2.8700    8.7959 H         1 <0>         0.1042
     37 H21        -4.5183    4.0025    6.5086 H         1 <0>         0.1316
     38 H22        -4.8550    2.4684    7.3599 H         1 <0>         0.1336
     39 N2         -3.5103    2.3145    5.7468 N.4       1 <0>        -0.3937
     40 H23        -3.6045    1.3069    5.9204 H         1 <0>         0.4358
@<TRIPOS>BOND
     1    1    2 1
     2    1   18 1
     3    1   19 1
     4    1   20 1
     5    2    3 2
     6    2    4 am
     7    4    9 1
     8    4    5 1
     9    5    6 1
    10    5   21 1
    11    5   22 1
    12    6    7 1
    13    6   23 1
    14    6   24 1
    15    7    8 1
    16    7   25 1
    17    7   26 1
    18    8    9 1
    19    8   27 1
    20    8   28 1
    21    9   10 1
    22    9   11 1
    23   11   12 3
    24   12   13 1
    25   13   29 1
    26   13   30 1
    27   13   39 1
    28   14   15 1
    29   14   31 1
    30   14   32 1
    31   14   39 1
    32   15   16 1
    33   15   33 1
    34   15   34 1
    35   16   17 1
    36   16   35 1
    37   16   36 1
    38   17   37 1
    39   17   38 1
    40   17   39 1
    41   39   40 1
@<TRIPOS>MOLECULE
ZINC11616188
   54    58     0     0     0
SMALL
USER_CHARGES
[(3R)-quinuclidin-3-yl] (1R)-1-phenyl-3,4-dihydro-1H-isoquinoline-2-carboxylate
@<TRIPOS>ATOM
      1 C1          6.0497    1.4844    2.8274 C.ar      1 <0>        -0.1142
      2 C2          6.2524    1.7300    1.4822 C.ar      1 <0>        -0.1136
      3 C3          5.4896    1.0708    0.5366 C.ar      1 <0>        -0.1050
      4 C4          4.5243    0.1654    0.9360 C.ar      1 <0>        -0.0583
      5 C5          4.3180   -0.0764    2.2813 C.ar      1 <0>        -0.0763
      6 C6          5.0838    0.5797    3.2269 C.ar      1 <0>        -0.1193
      7 C7          3.6927   -0.5534   -0.0949 C.3       1 <0>         0.2460
      8 H1          3.9318   -0.1677   -1.0860 H         1 <0>         0.0987
      9 C8          2.2299   -0.3259    0.1928 C.ar      1 <0>        -0.0967
     10 C9          1.8114    0.9765    0.4296 C.ar      1 <0>        -0.0982
     11 C10         0.4835    1.2498    0.6853 C.ar      1 <0>        -0.1144
     12 C11        -0.4370    0.2183    0.7055 C.ar      1 <0>        -0.1080
     13 C12        -0.0217   -1.0763    0.4745 C.ar      1 <0>        -0.1193
     14 C13         1.3161   -1.3552    0.2215 C.ar      1 <0>        -0.0744
     15 C14         1.7002   -2.7951    0.0046 C.3       1 <0>        -0.0958
     16 C15         3.0432   -2.8972   -0.7167 C.3       1 <0>         0.1103
     17 N1          3.9882   -1.9893   -0.0456 N.am      1 <0>        -0.5843
     18 C16         5.0806   -2.4588    0.5890 C.2       1 <0>         0.6458
     19 O1          5.8045   -1.6958    1.1975 O.2       1 <0>        -0.5314
     20 O2          5.3697   -3.7731    0.5486 O.3       1 <0>        -0.3586
     21 C17         6.5618   -4.2078    1.2546 C.3       1 <0>         0.1017
     22 H2          7.2998   -3.4056    1.2536 H         1 <0>         0.1241
     23 C18         6.1999   -4.5703    2.6978 C.3       1 <0>        -0.0188
     24 C19         7.9704   -6.2214    2.7855 C.3       1 <0>        -0.0045
     25 C20         8.3830   -5.9051    1.3452 C.3       1 <0>        -0.1339
     26 C21         7.1448   -5.4472    0.5642 C.3       1 <0>        -0.0975
     27 C22         6.0982   -6.5678    0.6055 C.3       1 <0>        -0.1347
     28 C23         5.7495   -6.8654    2.0665 C.3       1 <0>        -0.0015
     29 H3          6.6461    1.9989    3.5662 H         1 <0>         0.1186
     30 H4          7.0070    2.4368    1.1701 H         1 <0>         0.1208
     31 H5          5.6480    1.2627   -0.5144 H         1 <0>         0.1171
     32 H6          3.5609   -0.7804    2.5936 H         1 <0>         0.1038
     33 H7          4.9256    0.3875    4.2778 H         1 <0>         0.1146
     34 H8          2.5308    1.7819    0.4136 H         1 <0>         0.1255
     35 H9          0.1643    2.2651    0.8686 H         1 <0>         0.1284
     36 H10        -1.4793    0.4265    0.8971 H         1 <0>         0.1272
     37 H11        -0.7423   -1.8806    0.4907 H         1 <0>         0.1244
     38 H12         1.7729   -3.2960    0.9700 H         1 <0>         0.0773
     39 H13         0.9329   -3.2843   -0.5954 H         1 <0>         0.0935
     40 H14         2.9252   -2.6017   -1.7592 H         1 <0>         0.0852
     41 H15         3.4143   -3.9207   -0.6635 H         1 <0>         0.0974
     42 H16         6.7657   -3.9400    3.3839 H         1 <0>         0.1413
     43 H17         5.1329   -4.4131    2.8556 H         1 <0>         0.1346
     44 H18         8.5235   -5.5798    3.4714 H         1 <0>         0.1310
     45 H19         8.1910   -7.2658    3.0060 H         1 <0>         0.1332
     46 H20         8.7984   -6.7989    0.8796 H         1 <0>         0.1115
     47 H21         9.1302   -5.1115    1.3432 H         1 <0>         0.1051
     48 H22         7.4037   -5.2139   -0.4686 H         1 <0>         0.1253
     49 H23         6.5045   -7.4643    0.1371 H         1 <0>         0.1040
     50 H24         5.2011   -6.2521    0.0729 H         1 <0>         0.1062
     51 H25         5.9883   -7.9045    2.2931 H         1 <0>         0.1310
     52 H26         4.6856   -6.6929    2.2293 H         1 <0>         0.1277
     53 N2          6.5225   -5.9874    2.9708 N.4       1 <0>        -0.3889
     54 H27         6.2712   -6.2052    3.9422 H         1 <0>         0.4361
@<TRIPOS>BOND
     1    1    6 ar
     2    1    2 ar
     3    1   29 1
     4    2    3 ar
     5    2   30 1
     6    3    4 ar
     7    3   31 1
     8    4    5 ar
     9    4    7 1
    10    5    6 ar
    11    5   32 1
    12    6   33 1
    13    7    8 1
    14    7   17 1
    15    7    9 1
    16    9   14 ar
    17    9   10 ar
    18   10   11 ar
    19   10   34 1
    20   11   12 ar
    21   11   35 1
    22   12   13 ar
    23   12   36 1
    24   13   14 ar
    25   13   37 1
    26   14   15 1
    27   15   16 1
    28   15   38 1
    29   15   39 1
    30   16   17 1
    31   16   40 1
    32   16   41 1
    33   17   18 am
    34   18   19 2
    35   18   20 1
    36   20   21 1
    37   21   22 1
    38   21   26 1
    39   21   23 1
    40   23   42 1
    41   23   43 1
    42   23   53 1
    43   24   25 1
    44   24   44 1
    45   24   45 1
    46   24   53 1
    47   25   26 1
    48   25   46 1
    49   25   47 1
    50   26   27 1
    51   26   48 1
    52   27   28 1
    53   27   49 1
    54   27   50 1
    55   28   51 1
    56   28   52 1
    57   28   53 1
    58   53   54 1
@<TRIPOS>MOLECULE
ZINC01530751
   58    59     0     0     0
SMALL
USER_CHARGES

@<TRIPOS>ATOM
      1 C1          0.2991    1.0752   -0.2917 C.3       1 <0>        -0.1878
      2 C2          0.2487   -0.4286   -0.0143 C.3       1 <0>        -0.0180
      3 N1          0.7545   -0.6942    1.3391 N.4       1 <0>        -0.3873
      4 C3         -0.1471   -0.0863    2.3268 C.3       1 <0>        -0.0176
      5 C4         -1.5739   -0.5857    2.0902 C.3       1 <0>        -0.1896
      6 C5          0.8186   -2.1448    1.5620 C.3       1 <0>         0.1283
      7 C6          1.4440   -2.4134    2.8672 C.1       1 <0>        -0.2437
      8 C7          1.9427   -2.6277    3.9081 C.1       1 <0>        -0.0537
      9 C8          2.5681   -2.8964    5.2133 C.3       1 <0>         0.1556
     10 O1          2.6305   -4.3075    5.4302 O.3       1 <0>        -0.3355
     11 C9          3.1776   -4.7232    6.5833 C.2       1 <0>         0.4488
     12 O2          3.5898   -3.9158    7.3820 O.2       1 <0>        -0.4789
     13 C10         3.2776   -6.1970    6.8816 C.3       1 <0>         0.2093
     14 C11         4.5302   -6.7526    6.2545 C.ar      1 <0>        -0.0984
     15 C12         5.7129   -6.7686    6.9701 C.ar      1 <0>        -0.0971
     16 C13         6.8619   -7.2782    6.3949 C.ar      1 <0>        -0.1209
     17 C14         6.8282   -7.7722    5.1043 C.ar      1 <0>        -0.1021
     18 C15         5.6454   -7.7571    4.3890 C.ar      1 <0>        -0.1258
     19 C16         4.4953   -7.2514    4.9658 C.ar      1 <0>        -0.0793
     20 C17         3.3284   -6.4085    8.3961 C.3       1 <0>        -0.1010
     21 C18         3.4299   -7.9047    8.6989 C.3       1 <0>        -0.1097
     22 C19         3.4807   -8.1162   10.2134 C.3       1 <0>        -0.1205
     23 C20         2.2089   -7.5522   10.8501 C.3       1 <0>        -0.1228
     24 C21         2.1074   -6.0559   10.5472 C.3       1 <0>        -0.1149
     25 C22         2.0566   -5.8444    9.0327 C.3       1 <0>        -0.1247
     26 O3          2.1371   -6.8701    6.3446 O.3       1 <0>        -0.5261
     27 H1          1.3286    1.4247   -0.2135 H         1 <0>         0.0810
     28 H2         -0.0762    1.2722   -1.2959 H         1 <0>         0.1084
     29 H3         -0.3191    1.5999    0.4367 H         1 <0>         0.0808
     30 H4         -0.7808   -0.7782   -0.0925 H         1 <0>         0.1359
     31 H5          0.8669   -0.9534   -0.7427 H         1 <0>         0.1340
     32 H6          0.1734   -0.3644    3.3308 H         1 <0>         0.1267
     33 H7         -0.1201    0.9985    2.2242 H         1 <0>         0.1343
     34 H8         -1.5833   -1.6756    2.0977 H         1 <0>         0.0801
     35 H9         -2.2254   -0.2113    2.8798 H         1 <0>         0.1065
     36 H10        -1.9293   -0.2258    1.1247 H         1 <0>         0.0853
     37 H11        -0.1895   -2.5591    1.5500 H         1 <0>         0.1522
     38 H12         1.4112   -2.6078    0.7730 H         1 <0>         0.1531
     39 H13         3.5762   -2.4820    5.2254 H         1 <0>         0.1078
     40 H14         1.9755   -2.4334    6.0023 H         1 <0>         0.1076
     41 H15         5.7392   -6.3826    7.9784 H         1 <0>         0.1298
     42 H16         7.7860   -7.2900    6.9537 H         1 <0>         0.1301
     43 H17         7.7261   -8.1698    4.6546 H         1 <0>         0.1278
     44 H18         5.6191   -8.1428    3.3806 H         1 <0>         0.1272
     45 H19         3.5704   -7.2430    4.4083 H         1 <0>         0.1315
     46 H20         4.1982   -5.8950    8.8056 H         1 <0>         0.0970
     47 H21         2.5600   -8.4182    8.2894 H         1 <0>         0.0730
     48 H22         4.3359   -8.3066    8.2454 H         1 <0>         0.0711
     49 H23         3.5530   -9.1822   10.4292 H         1 <0>         0.0680
     50 H24         4.3506   -7.6028   10.6230 H         1 <0>         0.0632
     51 H25         1.3390   -8.0656   10.4405 H         1 <0>         0.0633
     52 H26         2.2451   -7.7028   11.9290 H         1 <0>         0.0655
     53 H27         1.2014   -5.6540   11.0007 H         1 <0>         0.0657
     54 H28         2.9773   -5.5424   10.9568 H         1 <0>         0.0657
     55 H29         1.9843   -4.7784    8.8169 H         1 <0>         0.0646
     56 H30         1.1867   -6.3579    8.6231 H         1 <0>         0.0644
     57 H31         1.2937   -6.5628    6.7041 H         1 <0>         0.3842
     58 H32         1.6771   -0.2977    1.4371 H         1 <0>         0.4275
@<TRIPOS>BOND
     1    1    2 1
     2    1   27 1
     3    1   28 1
     4    1   29 1
     5    2    3 1
     6    2   30 1
     7    2   31 1
     8    3    4 1
     9    3    6 1
    10    3   58 1
    11    4    5 1
    12    4   32 1
    13    4   33 1
    14    5   34 1
    15    5   35 1
    16    5   36 1
    17    6    7 1
    18    6   37 1
    19    6   38 1
    20    7    8 3
    21    8    9 1
    22    9   10 1
    23    9   39 1
    24    9   40 1
    25   10   11 1
    26   11   12 2
    27   11   13 1
    28   13   14 1
    29   13   20 1
    30   13   26 1
    31   14   19 ar
    32   14   15 ar
    33   15   16 ar
    34   15   41 1
    35   16   17 ar
    36   16   42 1
    37   17   18 ar
    38   17   43 1
    39   18   19 ar
    40   18   44 1
    41   19   45 1
    42   20   25 1
    43   20   21 1
    44   20   46 1
    45   21   22 1
    46   21   47 1
    47   21   48 1
    48   22   23 1
    49   22   49 1
    50   22   50 1
    51   23   24 1
    52   23   51 1
    53   23   52 1
    54   24   25 1
    55   24   53 1
    56   24   54 1
    57   25   55 1
    58   25   56 1
    59   26   57 1
@<TRIPOS>MOLECULE
ZINC01530751
   57    58     0     0     0
SMALL
USER_CHARGES

@<TRIPOS>ATOM
      1 C1         -1.3393   -0.9465    0.0937 C.3       1 <0>        -0.1938
      2 C2         -0.0615   -0.1096    0.0057 C.3       1 <0>         0.0454
      3 N1          0.7423   -0.5619   -1.1377 N.3       1 <0>        -0.5361
      4 C3          1.0055   -2.0050   -1.0581 C.3       1 <0>         0.0450
      5 C4          1.8971   -2.2949    0.1510 C.3       1 <0>        -0.1498
      6 C5          0.0922   -0.2147   -2.4084 C.3       1 <0>         0.1567
      7 C6          0.2750    1.2211   -2.6767 C.1       1 <0>        -0.1196
      8 C7          0.4208    2.3662   -2.8907 C.1       1 <0>        -0.1918
      9 C8          0.6035    3.8019   -3.1591 C.3       1 <0>         0.1841
     10 O1         -0.0288    4.1398   -4.3952 O.3       1 <0>        -0.3348
     11 C9          0.0461    5.4212   -4.7878 C.2       1 <0>         0.4444
     12 O2          0.6293    6.2292   -4.1046 O.2       1 <0>        -0.4887
     13 C10        -0.5971    5.8519   -6.0808 C.3       1 <0>         0.2057
     14 C11        -2.0520    6.1618   -5.8393 C.ar      1 <0>        -0.0924
     15 C12        -2.4377    7.4438   -5.4950 C.ar      1 <0>        -0.0985
     16 C13        -3.7722    7.7281   -5.2735 C.ar      1 <0>        -0.1236
     17 C14        -4.7211    6.7304   -5.3966 C.ar      1 <0>        -0.1058
     18 C15        -4.3355    5.4486   -5.7417 C.ar      1 <0>        -0.1251
     19 C16        -3.0014    5.1653   -5.9675 C.ar      1 <0>        -0.0771
     20 C17         0.1094    7.1015   -6.6103 C.3       1 <0>        -0.0996
     21 C18        -0.5436    7.5388   -7.9230 C.3       1 <0>        -0.1098
     22 C19         0.1629    8.7884   -8.4526 C.3       1 <0>        -0.1192
     23 C20         1.6400    8.4738   -8.6978 C.3       1 <0>        -0.1218
     24 C21         2.2930    8.0364   -7.3851 C.3       1 <0>        -0.1141
     25 C22         1.5865    6.7869   -6.8555 C.3       1 <0>        -0.1261
     26 O3         -0.4873    4.7996   -7.0412 O.3       1 <0>        -0.5275
     27 H1         -1.8650   -0.9086   -0.8604 H         1 <0>         0.0562
     28 H2         -1.0816   -1.9799    0.3257 H         1 <0>         0.0612
     29 H3         -1.9818   -0.5474    0.8786 H         1 <0>         0.0646
     30 H4         -0.3232    0.9402   -0.1267 H         1 <0>         0.0755
     31 H5          0.5140   -0.2276    0.9238 H         1 <0>         0.0815
     32 H6          0.0625   -2.5410   -0.9510 H         1 <0>         0.0441
     33 H7          1.5087   -2.3332   -1.9676 H         1 <0>         0.0758
     34 H8          1.3939   -1.9667    1.0605 H         1 <0>         0.0556
     35 H9          2.0924   -3.3656    0.2100 H         1 <0>         0.0609
     36 H10         2.8401   -1.7589    0.0439 H         1 <0>         0.0634
     37 H11         0.5392   -0.7949   -3.2156 H         1 <0>         0.1002
     38 H12        -0.9724   -0.4399   -2.3454 H         1 <0>         0.0714
     39 H13         0.1566    4.3822   -2.3518 H         1 <0>         0.0936
     40 H14         1.6681    4.0271   -3.2221 H         1 <0>         0.0926
     41 H15        -1.6964    8.2233   -5.3988 H         1 <0>         0.1285
     42 H16        -4.0735    8.7296   -5.0039 H         1 <0>         0.1274
     43 H17        -5.7637    6.9523   -5.2228 H         1 <0>         0.1253
     44 H18        -5.0768    4.6690   -5.8376 H         1 <0>         0.1263
     45 H19        -2.7006    4.1647   -6.2407 H         1 <0>         0.1330
     46 H20         0.0256    7.9042   -5.8777 H         1 <0>         0.0957
     47 H21        -0.4599    6.7361   -8.6556 H         1 <0>         0.0723
     48 H22        -1.5959    7.7630   -7.7484 H         1 <0>         0.0703
     49 H23        -0.3024    9.1000   -9.3878 H         1 <0>         0.0653
     50 H24         0.0791    9.5911   -7.7200 H         1 <0>         0.0621
     51 H25         1.7237    7.6710   -9.4304 H         1 <0>         0.0626
     52 H26         2.1433    9.3640   -9.0751 H         1 <0>         0.0629
     53 H27         3.3453    7.8123   -7.5598 H         1 <0>         0.0646
     54 H28         2.2092    8.8391   -6.6525 H         1 <0>         0.0648
     55 H29         2.0517    6.4753   -5.9204 H         1 <0>         0.0680
     56 H30         1.6703    5.9842   -7.5882 H         1 <0>         0.0641
     57 H31         0.4235    4.5473   -7.2458 H         1 <0>         0.3843
@<TRIPOS>BOND
     1    1    2 1
     2    1   27 1
     3    1   28 1
     4    1   29 1
     5    2    3 1
     6    2   30 1
     7    2   31 1
     8    3    4 1
     9    3    6 1
    10    4    5 1
    11    4   32 1
    12    4   33 1
    13    5   34 1
    14    5   35 1
    15    5   36 1
    16    6    7 1
    17    6   37 1
    18    6   38 1
    19    7    8 3
    20    8    9 1
    21    9   10 1
    22    9   39 1
    23    9   40 1
    24   10   11 1
    25   11   12 2
    26   11   13 1
    27   13   14 1
    28   13   20 1
    29   13   26 1
    30   14   19 ar
    31   14   15 ar
    32   15   16 ar
    33   15   41 1
    34   16   17 ar
    35   16   42 1
    36   17   18 ar
    37   17   43 1
    38   18   19 ar
    39   18   44 1
    40   19   45 1
    41   20   25 1
    42   20   21 1
    43   20   46 1
    44   21   22 1
    45   21   47 1
    46   21   48 1
    47   22   23 1
    48   22   49 1
    49   22   50 1
    50   23   24 1
    51   23   51 1
    52   23   52 1
    53   24   25 1
    54   24   53 1
    55   24   54 1
    56   25   55 1
    57   25   56 1
    58   26   57 1
@<TRIPOS>MOLECULE
ZINC01530752
   58    59     0     0     0
SMALL
USER_CHARGES

@<TRIPOS>ATOM
      1 C1          0.2991    1.0752   -0.2917 C.3       1 <0>        -0.1878
      2 C2          0.2487   -0.4286   -0.0143 C.3       1 <0>        -0.0180
      3 N1          0.7545   -0.6942    1.3391 N.4       1 <0>        -0.3872
      4 C3         -0.1471   -0.0863    2.3268 C.3       1 <0>        -0.0177
      5 C4         -1.5739   -0.5857    2.0902 C.3       1 <0>        -0.1897
      6 C5          0.8186   -2.1448    1.5620 C.3       1 <0>         0.1283
      7 C6          1.4440   -2.4134    2.8672 C.1       1 <0>        -0.2437
      8 C7          1.9427   -2.6277    3.9081 C.1       1 <0>        -0.0537
      9 C8          2.5681   -2.8964    5.2133 C.3       1 <0>         0.1556
     10 O1          2.6305   -4.3075    5.4302 O.3       1 <0>        -0.3355
     11 C9          3.1776   -4.7232    6.5833 C.2       1 <0>         0.4488
     12 O2          3.5898   -3.9158    7.3820 O.2       1 <0>        -0.4789
     13 C10         3.2776   -6.1970    6.8816 C.3       1 <0>         0.2092
     14 C11         1.9845   -6.6752    7.4902 C.ar      1 <0>        -0.0978
     15 C12         1.8111   -6.6395    8.8612 C.ar      1 <0>        -0.0973
     16 C13         0.6250   -7.0782    9.4194 C.ar      1 <0>        -0.1208
     17 C14        -0.3878   -7.5520    8.6067 C.ar      1 <0>        -0.1023
     18 C15        -0.2147   -7.5869    7.2357 C.ar      1 <0>        -0.1256
     19 C16         0.9697   -7.1442    6.6771 C.ar      1 <0>        -0.0796
     20 C17         4.4248   -6.4418    7.8638 C.3       1 <0>        -0.1009
     21 C18         4.5263   -7.9381    8.1667 C.3       1 <0>        -0.1096
     22 C19         5.6736   -8.1829    9.1490 C.3       1 <0>        -0.1204
     23 C20         6.9864   -7.6974    8.5311 C.3       1 <0>        -0.1229
     24 C21         6.8848   -6.2011    8.2282 C.3       1 <0>        -0.1149
     25 C22         5.7376   -5.9563    7.2459 C.3       1 <0>        -0.1248
     26 O3          3.5270   -6.9124    5.6700 O.3       1 <0>        -0.5262
     27 H1          1.3286    1.4247   -0.2135 H         1 <0>         0.0810
     28 H2         -0.0762    1.2722   -1.2959 H         1 <0>         0.1083
     29 H3         -0.3191    1.5999    0.4367 H         1 <0>         0.0808
     30 H4         -0.7808   -0.7782   -0.0925 H         1 <0>         0.1359
     31 H5          0.8669   -0.9534   -0.7427 H         1 <0>         0.1340
     32 H6          0.1734   -0.3644    3.3308 H         1 <0>         0.1267
     33 H7         -0.1201    0.9985    2.2242 H         1 <0>         0.1344
     34 H8         -1.5833   -1.6756    2.0977 H         1 <0>         0.0801
     35 H9         -2.2254   -0.2113    2.8798 H         1 <0>         0.1066
     36 H10        -1.9293   -0.2258    1.1247 H         1 <0>         0.0853
     37 H11        -0.1895   -2.5591    1.5500 H         1 <0>         0.1521
     38 H12         1.4112   -2.6078    0.7730 H         1 <0>         0.1532
     39 H13         3.5762   -2.4820    5.2254 H         1 <0>         0.1081
     40 H14         1.9755   -2.4334    6.0023 H         1 <0>         0.1074
     41 H15         2.6024   -6.2693    9.4961 H         1 <0>         0.1297
     42 H16         0.4898   -7.0510   10.4906 H         1 <0>         0.1300
     43 H17        -1.3142   -7.8954    9.0429 H         1 <0>         0.1277
     44 H18        -1.0059   -7.9574    6.6007 H         1 <0>         0.1271
     45 H19         1.1036   -7.1679    5.6057 H         1 <0>         0.1315
     46 H20         4.2345   -5.8961    8.7880 H         1 <0>         0.0969
     47 H21         3.5911   -8.2840    8.6069 H         1 <0>         0.0710
     48 H22         4.7166   -8.4838    7.2425 H         1 <0>         0.0730
     49 H23         5.4833   -7.6372   10.0731 H         1 <0>         0.0631
     50 H24         5.7459   -9.2489    9.3647 H         1 <0>         0.0680
     51 H25         7.8037   -7.8718    9.2308 H         1 <0>         0.0655
     52 H26         7.1766   -8.2431    7.6069 H         1 <0>         0.0633
     53 H27         6.6946   -5.6554    9.1524 H         1 <0>         0.0657
     54 H28         7.8201   -5.8552    7.7880 H         1 <0>         0.0658
     55 H29         5.9279   -6.5020    6.3218 H         1 <0>         0.0644
     56 H30         5.6653   -4.8903    7.0302 H         1 <0>         0.0647
     57 H31         4.3451   -6.6556    5.2229 H         1 <0>         0.3845
     58 H32         1.6771   -0.2977    1.4371 H         1 <0>         0.4274
@<TRIPOS>BOND
     1    1    2 1
     2    1   27 1
     3    1   28 1
     4    1   29 1
     5    2    3 1
     6    2   30 1
     7    2   31 1
     8    3    4 1
     9    3    6 1
    10    3   58 1
    11    4    5 1
    12    4   32 1
    13    4   33 1
    14    5   34 1
    15    5   35 1
    16    5   36 1
    17    6    7 1
    18    6   37 1
    19    6   38 1
    20    7    8 3
    21    8    9 1
    22    9   10 1
    23    9   39 1
    24    9   40 1
    25   10   11 1
    26   11   12 2
    27   11   13 1
    28   13   14 1
    29   13   20 1
    30   13   26 1
    31   14   19 ar
    32   14   15 ar
    33   15   16 ar
    34   15   41 1
    35   16   17 ar
    36   16   42 1
    37   17   18 ar
    38   17   43 1
    39   18   19 ar
    40   18   44 1
    41   19   45 1
    42   20   25 1
    43   20   21 1
    44   20   46 1
    45   21   22 1
    46   21   47 1
    47   21   48 1
    48   22   23 1
    49   22   49 1
    50   22   50 1
    51   23   24 1
    52   23   51 1
    53   23   52 1
    54   24   25 1
    55   24   53 1
    56   24   54 1
    57   25   55 1
    58   25   56 1
    59   26   57 1
@<TRIPOS>MOLECULE
ZINC01530752
   57    58     0     0     0
SMALL
USER_CHARGES

@<TRIPOS>ATOM
      1 C1         -1.3393   -0.9465    0.0937 C.3       1 <0>        -0.1940
      2 C2         -0.0615   -0.1096    0.0057 C.3       1 <0>         0.0454
      3 N1          0.7423   -0.5619   -1.1377 N.3       1 <0>        -0.5360
      4 C3          1.0055   -2.0050   -1.0581 C.3       1 <0>         0.0448
      5 C4          1.8971   -2.2949    0.1510 C.3       1 <0>        -0.1497
      6 C5          0.0922   -0.2147   -2.4084 C.3       1 <0>         0.1566
      7 C6          0.2750    1.2211   -2.6767 C.1       1 <0>        -0.1195
      8 C7          0.4208    2.3662   -2.8907 C.1       1 <0>        -0.1918
      9 C8          0.6035    3.8019   -3.1591 C.3       1 <0>         0.1841
     10 O1         -0.0288    4.1398   -4.3952 O.3       1 <0>        -0.3348
     11 C9          0.0461    5.4212   -4.7878 C.2       1 <0>         0.4444
     12 O2          0.6293    6.2292   -4.1046 O.2       1 <0>        -0.4887
     13 C10        -0.5971    5.8519   -6.0808 C.3       1 <0>         0.2057
     14 C11         0.3520    5.5971   -7.2233 C.ar      1 <0>        -0.0920
     15 C12         1.2505    6.5752   -7.6067 C.ar      1 <0>        -0.0986
     16 C13         2.1211    6.3415   -8.6547 C.ar      1 <0>        -0.1235
     17 C14         2.0935    5.1295   -9.3191 C.ar      1 <0>        -0.1061
     18 C15         1.1956    4.1511   -8.9351 C.ar      1 <0>        -0.1253
     19 C16         0.3279    4.3833   -7.8843 C.ar      1 <0>        -0.0776
     20 C17        -0.9260    7.3447   -6.0142 C.3       1 <0>        -0.0995
     21 C18        -1.5790    7.7820   -7.3269 C.3       1 <0>        -0.1096
     22 C19        -1.9079    9.2748   -7.2604 C.3       1 <0>        -0.1192
     23 C20        -2.8715    9.5335   -6.1004 C.3       1 <0>        -0.1218
     24 C21        -2.2185    9.0961   -4.7877 C.3       1 <0>        -0.1141
     25 C22        -1.8896    7.6034   -4.8543 C.3       1 <0>        -0.1262
     26 O3         -1.7997    5.1079   -6.2856 O.3       1 <0>        -0.5275
     27 H1         -1.8650   -0.9086   -0.8604 H         1 <0>         0.0562
     28 H2         -1.0816   -1.9799    0.3257 H         1 <0>         0.0612
     29 H3         -1.9818   -0.5474    0.8786 H         1 <0>         0.0647
     30 H4         -0.3232    0.9402   -0.1267 H         1 <0>         0.0756
     31 H5          0.5140   -0.2276    0.9238 H         1 <0>         0.0815
     32 H6          0.0625   -2.5410   -0.9510 H         1 <0>         0.0441
     33 H7          1.5087   -2.3332   -1.9676 H         1 <0>         0.0758
     34 H8          1.3939   -1.9667    1.0605 H         1 <0>         0.0557
     35 H9          2.0924   -3.3656    0.2100 H         1 <0>         0.0609
     36 H10         2.8401   -1.7589    0.0439 H         1 <0>         0.0634
     37 H11         0.5392   -0.7949   -3.2156 H         1 <0>         0.1003
     38 H12        -0.9724   -0.4399   -2.3454 H         1 <0>         0.0714
     39 H13         0.1566    4.3822   -2.3518 H         1 <0>         0.0939
     40 H14         1.6681    4.0271   -3.2221 H         1 <0>         0.0922
     41 H15         1.2721    7.5220   -7.0877 H         1 <0>         0.1286
     42 H16         2.8226    7.1058   -8.9547 H         1 <0>         0.1274
     43 H17         2.7732    4.9472  -10.1383 H         1 <0>         0.1253
     44 H18         1.1737    3.2044   -9.4543 H         1 <0>         0.1263
     45 H19        -0.3711    3.6175   -7.5819 H         1 <0>         0.1332
     46 H20        -0.0086    7.9123   -5.8580 H         1 <0>         0.0956
     47 H21        -0.8926    7.5977   -8.1533 H         1 <0>         0.0701
     48 H22        -2.4964    7.2145   -7.4831 H         1 <0>         0.0723
     49 H23        -0.9906    9.8424   -7.1042 H         1 <0>         0.0621
     50 H24        -2.3732    9.5864   -8.1956 H         1 <0>         0.0653
     51 H25        -3.1058   10.5969   -6.0530 H         1 <0>         0.0629
     52 H26        -3.7889    8.9659   -6.2566 H         1 <0>         0.0627
     53 H27        -1.3011    9.6637   -4.6315 H         1 <0>         0.0647
     54 H28        -2.9049    9.2804   -3.9613 H         1 <0>         0.0647
     55 H29        -2.8069    7.0358   -5.0105 H         1 <0>         0.0642
     56 H30        -1.4243    7.2918   -3.9191 H         1 <0>         0.0681
     57 H31        -2.4580    5.2241   -5.5868 H         1 <0>         0.3845
@<TRIPOS>BOND
     1    1    2 1
     2    1   27 1
     3    1   28 1
     4    1   29 1
     5    2    3 1
     6    2   30 1
     7    2   31 1
     8    3    4 1
     9    3    6 1
    10    4    5 1
    11    4   32 1
    12    4   33 1
    13    5   34 1
    14    5   35 1
    15    5   36 1
    16    6    7 1
    17    6   37 1
    18    6   38 1
    19    7    8 3
    20    8    9 1
    21    9   10 1
    22    9   39 1
    23    9   40 1
    24   10   11 1
    25   11   12 2
    26   11   13 1
    27   13   14 1
    28   13   20 1
    29   13   26 1
    30   14   19 ar
    31   14   15 ar
    32   15   16 ar
    33   15   41 1
    34   16   17 ar
    35   16   42 1
    36   17   18 ar
    37   17   43 1
    38   18   19 ar
    39   18   44 1
    40   19   45 1
    41   20   25 1
    42   20   21 1
    43   20   46 1
    44   21   22 1
    45   21   47 1
    46   21   48 1
    47   22   23 1
    48   22   49 1
    49   22   50 1
    50   23   24 1
    51   23   51 1
    52   23   52 1
    53   24   25 1
    54   24   53 1
    55   24   54 1
    56   25   55 1
    57   25   56 1
    58   26   57 1
@<TRIPOS>MOLECULE
ZINC01996117
   63    67     0     0     0
SMALL
USER_CHARGES

@<TRIPOS>ATOM
      1 C1          6.2679   -0.9746   -3.4775 C.ar      1 <0>        -0.1035
      2 C2          6.2774    0.1494   -2.6728 C.ar      1 <0>        -0.1058
      3 C3          5.4460    0.2173   -1.5705 C.ar      1 <0>        -0.1005
      4 C4          4.6049   -0.8386   -1.2731 C.ar      1 <0>        -0.1025
      5 C5          4.5947   -1.9622   -2.0782 C.ar      1 <0>        -0.1272
      6 C6          5.4271   -2.0307   -3.1798 C.ar      1 <0>        -0.1102
      7 C7          3.6993   -0.7650   -0.0708 C.3       1 <0>         0.0236
      8 C8          2.6283    0.2677   -0.3111 C.ar      1 <0>        -0.0909
      9 C9          2.5129    0.8682   -1.5508 C.ar      1 <0>        -0.0999
     10 C10         1.5305    1.8154   -1.7712 C.ar      1 <0>        -0.1205
     11 C11         0.6633    2.1618   -0.7520 C.ar      1 <0>        -0.1024
     12 C12         0.7781    1.5607    0.4875 C.ar      1 <0>        -0.1224
     13 C13         1.7578    0.6103    0.7066 C.ar      1 <0>        -0.0890
     14 C14         3.0485   -2.1300    0.1619 C.3       1 <0>        -0.0907
     15 H1          2.4325   -2.4056   -0.6941 H         1 <0>         0.1334
     16 C15         2.1954   -2.1050    1.4509 C.3       1 <0>        -0.1547
     17 C16         2.4706   -3.4959    2.0755 C.3       1 <0>        -0.0075
     18 N1          3.9085   -3.7227    1.7802 N.4       1 <0>        -0.3960
     19 C17         4.1269   -3.2007    0.4113 C.3       1 <0>        -0.0193
     20 C18         4.2152   -5.1585    1.8284 C.3       1 <0>        -0.0052
     21 C19         4.0516   -5.6671    3.2621 C.3       1 <0>        -0.0913
     22 C20         4.3663   -7.1400    3.3116 C.ar      1 <0>        -0.1400
     23 C21         3.3641   -8.0709    3.1080 C.ar      1 <0>        -0.0707
     24 C22         3.6475   -9.4201    3.1480 C.ar      1 <0>        -0.1359
     25 C23         4.9469   -9.8570    3.3944 C.ar      1 <0>         0.1259
     26 C24         5.9434   -8.9127    3.6046 C.ar      1 <0>        -0.1703
     27 C25         5.6599   -7.5657    3.5551 C.ar      1 <0>        -0.0581
     28 C26         7.2284   -9.6738    3.8681 C.3       1 <0>        -0.1145
     29 C27         6.7019  -11.0988    4.1605 C.3       1 <0>         0.0488
     30 O1          5.4442  -11.1223    3.4644 O.3       1 <0>        -0.2994
     31 C28         4.5056   -0.3795    1.1426 C.2       1 <0>         0.5197
     32 O2          4.1054    0.4924    1.8847 O.2       1 <0>        -0.4969
     33 N2          5.6714   -1.0036    1.4031 N.am      1 <0>        -0.8651
     34 H2          6.9142   -1.0258   -4.3412 H         1 <0>         0.1309
     35 H3          6.9346    0.9743   -2.9052 H         1 <0>         0.1313
     36 H4          5.4539    1.0951   -0.9414 H         1 <0>         0.1238
     37 H5          3.9381   -2.7874   -1.8455 H         1 <0>         0.1247
     38 H6          5.4195   -2.9087   -3.8086 H         1 <0>         0.1306
     39 H7          3.1904    0.5975   -2.3471 H         1 <0>         0.1262
     40 H8          1.4408    2.2851   -2.7396 H         1 <0>         0.1264
     41 H9         -0.1038    2.9024   -0.9240 H         1 <0>         0.1267
     42 H10         0.1008    1.8317    1.2839 H         1 <0>         0.1264
     43 H11         1.8452    0.1380    1.6739 H         1 <0>         0.1274
     44 H12         2.5281   -1.3099    2.1182 H         1 <0>         0.1084
     45 H13         1.1380   -1.9920    1.2116 H         1 <0>         0.1282
     46 H14         2.2974   -3.4756    3.1515 H         1 <0>         0.1396
     47 H15         1.8551   -4.2597    1.6001 H         1 <0>         0.1404
     48 H16         4.0251   -4.0065   -0.3156 H         1 <0>         0.1453
     49 H17         5.1182   -2.7535    0.3375 H         1 <0>         0.1318
     50 H18         3.5330   -5.6980    1.1714 H         1 <0>         0.1343
     51 H19         5.2415   -5.3220    1.4998 H         1 <0>         0.1314
     52 H20         4.7338   -5.1275    3.9191 H         1 <0>         0.0929
     53 H21         3.0253   -5.5036    3.5907 H         1 <0>         0.0956
     54 H22         2.3540   -7.7396    2.9170 H         1 <0>         0.1333
     55 H23         2.8591  -10.1405    2.9875 H         1 <0>         0.1358
     56 H24         6.4466   -6.8421    3.7101 H         1 <0>         0.1264
     57 H25         7.8714   -9.6690    2.9880 H         1 <0>         0.0954
     58 H26         7.7517   -9.2667    4.7333 H         1 <0>         0.0968
     59 H27         7.3802  -11.8512    3.7580 H         1 <0>         0.1142
     60 H28         6.5538  -11.2438    5.2306 H         1 <0>         0.0839
     61 H29         6.0369   -1.6350    0.7639 H         1 <0>         0.3981
     62 H30         6.1448   -0.8214    2.2299 H         1 <0>         0.4099
     63 H31         4.4827   -3.2205    2.4406 H         1 <0>         0.4229
@<TRIPOS>BOND
     1    1    6 ar
     2    1    2 ar
     3    1   34 1
     4    2    3 ar
     5    2   35 1
     6    3    4 ar
     7    3   36 1
     8    4    5 ar
     9    4    7 1
    10    5    6 ar
    11    5   37 1
    12    6   38 1
    13    7    8 1
    14    7   14 1
    15    7   31 1
    16    8   13 ar
    17    8    9 ar
    18    9   10 ar
    19    9   39 1
    20   10   11 ar
    21   10   40 1
    22   11   12 ar
    23   11   41 1
    24   12   13 ar
    25   12   42 1
    26   13   43 1
    27   14   15 1
    28   14   19 1
    29   14   16 1
    30   16   17 1
    31   16   44 1
    32   16   45 1
    33   17   18 1
    34   17   46 1
    35   17   47 1
    36   18   19 1
    37   18   20 1
    38   18   63 1
    39   19   48 1
    40   19   49 1
    41   20   21 1
    42   20   50 1
    43   20   51 1
    44   21   22 1
    45   21   52 1
    46   21   53 1
    47   22   27 ar
    48   22   23 ar
    49   23   24 ar
    50   23   54 1
    51   24   25 ar
    52   24   55 1
    53   25   30 1
    54   25   26 ar
    55   26   27 ar
    56   26   28 1
    57   27   56 1
    58   28   29 1
    59   28   57 1
    60   28   58 1
    61   29   30 1
    62   29   59 1
    63   29   60 1
    64   31   32 2
    65   31   33 am
    66   33   61 1
    67   33   62 1
@<TRIPOS>MOLECULE
ZINC00968336
   56    57     0     0     0
SMALL
USER_CHARGES

@<TRIPOS>ATOM
      1 C1          2.4412    1.0226    2.8896 C.3       1 <0>        -0.1195
      2 C2          1.9321   -0.3816    2.6890 C.ar      1 <0>        -0.0860
      3 C3          2.2025   -1.0521    1.5102 C.ar      1 <0>        -0.0980
      4 C4          1.7366   -2.3390    1.3238 C.ar      1 <0>        -0.1336
      5 C5          0.9971   -2.9590    2.3208 C.ar      1 <0>         0.1081
      6 C6          0.7276   -2.2845    3.5025 C.ar      1 <0>        -0.1060
      7 C7          1.2003   -0.9992    3.6861 C.ar      1 <0>        -0.1038
      8 C8         -0.0753   -2.9549    4.5873 C.3       1 <0>         0.0055
      9 H1         -0.4621   -3.9050    4.2187 H         1 <0>         0.1034
     10 C9         -1.2423   -2.0512    4.9906 C.3       1 <0>        -0.1451
     11 C10        -2.1281   -2.7827    6.0011 C.3       1 <0>        -0.0271
     12 N1         -3.3197   -1.9717    6.2849 N.4       1 <0>        -0.3808
     13 C11        -4.2493   -2.7431    7.1207 C.3       1 <0>         0.0221
     14 C12        -5.5502   -1.9570    7.2958 C.3       1 <0>        -0.1831
     15 C13        -4.5500   -4.0830    6.4460 C.3       1 <0>        -0.1853
     16 C14        -2.9220   -0.7489    6.9951 C.3       1 <0>         0.0164
     17 C15        -1.6530   -1.0198    7.8058 C.3       1 <0>        -0.1933
     18 C16        -2.6515    0.3647    5.9814 C.3       1 <0>        -0.1958
     19 C17         0.8058   -3.2019    5.7847 C.ar      1 <0>        -0.0910
     20 C18         1.2808   -2.1355    6.5250 C.ar      1 <0>        -0.1234
     21 C19         2.0891   -2.3620    7.6233 C.ar      1 <0>        -0.1125
     22 C20         2.4220   -3.6549    7.9815 C.ar      1 <0>        -0.1133
     23 C21         1.9462   -4.7214    7.2418 C.ar      1 <0>        -0.1102
     24 C22         1.1345   -4.4950    6.1460 C.ar      1 <0>        -0.1148
     25 O1          0.5372   -4.2249    2.1396 O.3       1 <0>        -0.4973
     26 H2          3.4315    0.9886    3.3438 H         1 <0>         0.0751
     27 H3          2.5007    1.5286    1.9259 H         1 <0>         0.0718
     28 H4          1.7598    1.5662    3.5439 H         1 <0>         0.0662
     29 H5          2.7781   -0.5690    0.7346 H         1 <0>         0.1310
     30 H6          1.9474   -2.8620    0.4027 H         1 <0>         0.1335
     31 H7          0.9942   -0.4751    4.6076 H         1 <0>         0.1224
     32 H8         -0.8552   -1.1374    5.4412 H         1 <0>         0.0993
     33 H9         -1.8295   -1.8003    4.1073 H         1 <0>         0.0930
     34 H10        -2.4330   -3.7442    5.5880 H         1 <0>         0.1355
     35 H11        -1.5703   -2.9439    6.9235 H         1 <0>         0.1395
     36 H12        -3.7981   -2.9210    8.0969 H         1 <0>         0.1344
     37 H13        -6.0337   -1.8342    6.3266 H         1 <0>         0.0821
     38 H14        -6.2152   -2.4999    7.9674 H         1 <0>         0.1060
     39 H15        -5.3284   -0.9769    7.7180 H         1 <0>         0.0803
     40 H16        -5.0012   -3.9051    5.4699 H         1 <0>         0.0816
     41 H17        -3.6233   -4.6431    6.3213 H         1 <0>         0.0831
     42 H18        -5.2398   -4.6554    7.0662 H         1 <0>         0.1054
     43 H19        -3.7236   -0.4419    7.6669 H         1 <0>         0.1390
     44 H20        -0.8183   -1.1939    7.1268 H         1 <0>         0.0923
     45 H21        -1.4343   -0.1585    8.4370 H         1 <0>         0.1025
     46 H22        -1.8024   -1.9000    8.4312 H         1 <0>         0.0786
     47 H23        -3.5595    0.5673    5.4134 H         1 <0>         0.0821
     48 H24        -2.3429    1.2680    6.5076 H         1 <0>         0.1057
     49 H25        -1.8595    0.0520    5.3009 H         1 <0>         0.0892
     50 H26         1.0207   -1.1253    6.2451 H         1 <0>         0.1201
     51 H27         2.4608   -1.5288    8.2012 H         1 <0>         0.1255
     52 H28         3.0540   -3.8319    8.8392 H         1 <0>         0.1264
     53 H29         2.2066   -5.7315    7.5215 H         1 <0>         0.1270
     54 H30         0.7597   -5.3284    5.5702 H         1 <0>         0.1239
     55 H31         1.1480   -4.9120    2.4395 H         1 <0>         0.3924
     56 H32        -3.7728   -1.7248    5.4178 H         1 <0>         0.4196
@<TRIPOS>BOND
     1    1    2 1
     2    1   26 1
     3    1   27 1
     4    1   28 1
     5    2    7 ar
     6    2    3 ar
     7    3    4 ar
     8    3   29 1
     9    4    5 ar
    10    4   30 1
    11    5    6 ar
    12    5   25 1
    13    6    7 ar
    14    6    8 1
    15    7   31 1
    16    8    9 1
    17    8   10 1
    18    8   19 1
    19   10   11 1
    20   10   32 1
    21   10   33 1
    22   11   12 1
    23   11   34 1
    24   11   35 1
    25   12   13 1
    26   12   16 1
    27   12   56 1
    28   13   14 1
    29   13   15 1
    30   13   36 1
    31   14   37 1
    32   14   38 1
    33   14   39 1
    34   15   40 1
    35   15   41 1
    36   15   42 1
    37   16   17 1
    38   16   18 1
    39   16   43 1
    40   17   44 1
    41   17   45 1
    42   17   46 1
    43   18   47 1
    44   18   48 1
    45   18   49 1
    46   19   24 ar
    47   19   20 ar
    48   20   21 ar
    49   20   50 1
    50   21   22 ar
    51   21   51 1
    52   22   23 ar
    53   22   52 1
    54   23   24 ar
    55   23   53 1
    56   24   54 1
    57   25   55 1
@<TRIPOS>MOLECULE
ZINC03079342
   25    24     0     0     0
SMALL
USER_CHARGES

@<TRIPOS>ATOM
      1 C1          0.5385    1.3265   -0.0156 C.3       1 <0>        -0.0552
      2 N1          0.0207   -0.0467    0.0478 N.4       1 <0>        -0.2722
      3 C2          0.5070   -0.6974    1.2718 C.3       1 <0>        -0.0471
      4 C3         -1.4480   -0.0161    0.0600 C.3       1 <0>        -0.0454
      5 C4          0.4850   -0.7999   -1.1248 C.3       1 <0>        -0.0017
      6 C5          2.0115   -0.7313   -1.2033 C.3       1 <0>         0.0515
      7 O1          2.5777   -1.4543   -0.1084 O.3       1 <0>        -0.3772
      8 C6          3.9213   -1.4920   -0.0303 C.2       1 <0>         0.6511
      9 O2          4.5947   -0.9264   -0.8688 O.2       1 <0>        -0.5552
     10 N2          4.5193   -2.1570    0.9780 N.am      1 <0>        -0.8167
     11 H1          1.6283    1.3038   -0.0246 H         1 <0>         0.1211
     12 H2          0.1776    1.8093   -0.9238 H         1 <0>         0.1253
     13 H3          0.1939    1.8853    0.8545 H         1 <0>         0.1262
     14 H4          0.0211   -0.2500    2.1388 H         1 <0>         0.1189
     15 H5          0.2750   -1.7618    1.2342 H         1 <0>         0.1224
     16 H6          1.5859   -0.5633    1.3504 H         1 <0>         0.1286
     17 H7         -1.8089    0.4667   -0.8482 H         1 <0>         0.1227
     18 H8         -1.8322   -1.0351    0.1071 H         1 <0>         0.1229
     19 H9         -1.7926    0.5427    0.9301 H         1 <0>         0.1241
     20 H10         0.1722   -1.8402   -1.0357 H         1 <0>         0.1419
     21 H11         0.0550   -0.3672   -2.0281 H         1 <0>         0.1522
     22 H12         2.3472   -1.1718   -2.1420 H         1 <0>         0.1171
     23 H13         2.3314    0.3096   -1.1555 H         1 <0>         0.0971
     24 H14         3.9817   -2.6085    1.6473 H         1 <0>         0.4117
     25 H15         5.4873   -2.1841    1.0343 H         1 <0>         0.4360
@<TRIPOS>BOND
     1    1    2 1
     2    1   11 1
     3    1   12 1
     4    1   13 1
     5    2    3 1
     6    2    4 1
     7    2    5 1
     8    3   14 1
     9    3   15 1
    10    3   16 1
    11    4   17 1
    12    4   18 1
    13    4   19 1
    14    5    6 1
    15    5   20 1
    16    5   21 1
    17    6    7 1
    18    6   22 1
    19    6   23 1
    20    7    8 1
    21    8    9 2
    22    8   10 am
    23   10   24 1
    24   10   25 1
@<TRIPOS>MOLECULE
ZINC01851873
   31    32     0     0     0
SMALL
USER_CHARGES
1-[4-(1-methyl-1-azoniacycloprop-1-yl)but-2-ynyl]pyrrolidin-2-one
@<TRIPOS>ATOM
      1 C1         -1.3361    2.9013   -1.0538 C.3       1 <0>        -0.0206
      2 N1         -0.7232    1.5724   -1.1821 N.4       1 <0>        -0.3499
      3 C2         -1.4464    0.5764   -1.9838 C.3       1 <0>        -0.0045
      4 C3         -0.1562    1.2204   -2.4907 C.3       1 <0>         0.0008
      5 C4         -0.0127    1.0858    0.0080 C.3       1 <0>         0.1609
      6 C5         -0.7017    1.5605    1.2191 C.1       1 <0>        -0.2588
      7 C6         -1.2512    1.9391    2.1850 C.1       1 <0>        -0.0718
      8 C7         -1.9402    2.4139    3.3961 C.3       1 <0>         0.2178
      9 N2         -1.2316    1.9286    4.5829 N.am      1 <0>        -0.6243
     10 C8         -1.5211    0.6581    5.2584 C.3       1 <0>         0.0986
     11 C9         -0.2830    0.3707    6.1396 C.3       1 <0>        -0.1325
     12 C10         0.2687    1.7952    6.3789 C.3       1 <0>        -0.1566
     13 C11        -0.2368    2.5923    5.1966 C.2       1 <0>         0.5206
     14 O1          0.1928    3.6731    4.8527 O.2       1 <0>        -0.5256
     15 H1         -0.5964    3.6668   -1.2885 H         1 <0>         0.1207
     16 H2         -2.1751    2.9827   -1.7448 H         1 <0>         0.1234
     17 H3         -1.6915    3.0405   -0.0328 H         1 <0>         0.1217
     18 H4         -1.3989   -0.4636   -1.6610 H         1 <0>         0.1682
     19 H5         -2.3825    0.8850   -2.4492 H         1 <0>         0.1678
     20 H6         -0.2385    1.9552   -3.2916 H         1 <0>         0.1699
     21 H7          0.7459    0.6087   -2.5028 H         1 <0>         0.1705
     22 H8          0.0021   -0.0041    0.0020 H         1 <0>         0.1469
     23 H9          1.0099    1.4631    0.0003 H         1 <0>         0.1451
     24 H10        -1.9550    3.5037    3.4021 H         1 <0>         0.1221
     25 H11        -2.9628    2.0366    3.4038 H         1 <0>         0.1232
     26 H12        -2.4134    0.7545    5.8769 H         1 <0>         0.0839
     27 H13        -1.6536   -0.1373    4.5251 H         1 <0>         0.0805
     28 H14         0.4436   -0.2450    5.6094 H         1 <0>         0.0829
     29 H15        -0.5758   -0.0972    7.0795 H         1 <0>         0.0993
     30 H16         1.3585    1.7847    6.3940 H         1 <0>         0.1067
     31 H17        -0.1209    2.2059    7.3104 H         1 <0>         0.1132
@<TRIPOS>BOND
     1    1    2 1
     2    1   15 1
     3    1   16 1
     4    1   17 1
     5    2    4 1
     6    2    3 1
     7    2    5 1
     8    3    4 1
     9    3   18 1
    10    3   19 1
    11    4   20 1
    12    4   21 1
    13    5    6 1
    14    5   22 1
    15    5   23 1
    16    6    7 3
    17    7    8 1
    18    8    9 1
    19    8   24 1
    20    8   25 1
    21    9   13 am
    22    9   10 1
    23   10   11 1
    24   10   26 1
    25   10   27 1
    26   11   12 1
    27   11   28 1
    28   11   29 1
    29   12   13 1
    30   12   30 1
    31   12   31 1
    32   13   14 2
@<TRIPOS>MOLECULE
ZINC22454198
   63    66     0     0     0
SMALL
USER_CHARGES

@<TRIPOS>ATOM
      1 C1          3.7363   -2.4652    4.4496 C.3       1 <0>        -0.1796
      2 C2          2.9845   -1.9903    3.2045 C.3       1 <0>        -0.0557
      3 N1          1.9173   -2.9469    2.8822 N.4       1 <0>        -0.3766
      4 C3          0.9693   -3.0185    4.0021 C.3       1 <0>        -0.0205
      5 C4         -0.0535   -4.1245    3.7345 C.3       1 <0>        -0.1879
      6 C5          1.2126   -2.5048    1.6715 C.3       1 <0>        -0.0145
      7 C6          2.1525   -2.6063    0.4685 C.3       1 <0>         0.0555
      8 H1          1.6017   -2.3748   -0.4432 H         1 <0>         0.0958
      9 C7          2.7136   -4.0272    0.3784 C.3       1 <0>        -0.1243
     10 C8          3.6690   -4.1187   -0.8148 C.3       1 <0>        -0.1226
     11 C9          4.7828   -3.0814   -0.6474 C.3       1 <0>        -0.1192
     12 C10         4.1616   -1.6879   -0.5275 C.3       1 <0>         0.0474
     13 N2          3.2569   -1.6519    0.6286 N.3       1 <0>        -0.5201
     14 C11         2.7491   -0.2926    0.8574 C.3       1 <0>         0.0145
     15 C12         3.8621    0.5778    1.3816 C.2       1 <0>         0.5305
     16 O1          4.9649    0.1075    1.5643 O.2       1 <0>        -0.4785
     17 N3          3.6318    1.8789    1.6473 N.am      1 <0>        -0.5093
     18 C13         4.6781    2.7203    2.0213 C.ar      1 <0>         0.1608
     19 C14         5.4159    2.4454    3.1637 C.ar      1 <0>        -0.1021
     20 C15         6.4274    3.2993    3.5569 C.ar      1 <0>        -0.0762
     21 C16         6.7098    4.4353    2.8164 C.ar      1 <0>        -0.1135
     22 C17         5.9968    4.7149    1.6709 C.ar      1 <0>        -0.0462
     23 C18         4.9822    3.8500    1.2493 C.ar      1 <0>        -0.1376
     24 C19         4.2858    4.1039   -0.0175 C.2       1 <0>         0.5680
     25 O2          4.9500    4.5470   -0.9343 O.2       1 <0>        -0.5066
     26 N4          2.9995    3.8935   -0.2523 N.am      1 <0>        -0.6555
     27 C20         2.0490    3.4215    0.6482 C.ar      1 <0>         0.1169
     28 C21         2.3415    2.4057    1.5464 C.ar      1 <0>         0.3044
     29 N5          1.3913    1.9274    2.3381 N.ar      1 <0>        -0.4788
     30 C22         0.1668    2.4167    2.3331 C.ar      1 <0>         0.1077
     31 C23        -0.1775    3.4577    1.4943 C.ar      1 <0>        -0.1319
     32 C24         0.7704    3.9710    0.6406 C.ar      1 <0>        -0.0799
     33 H2          4.0753   -3.4903    4.3003 H         1 <0>         0.0751
     34 H3          4.5972   -1.8193    4.6226 H         1 <0>         0.1013
     35 H4          3.0720   -2.4242    5.3128 H         1 <0>         0.0723
     36 H5          2.5481   -1.0099    3.3955 H         1 <0>         0.1151
     37 H6          3.6772   -1.9225    2.3656 H         1 <0>         0.1891
     38 H7          1.5102   -3.2387    4.9225 H         1 <0>         0.1325
     39 H8          0.4537   -2.0635    4.1033 H         1 <0>         0.1266
     40 H9          0.4559   -5.0870    3.6880 H         1 <0>         0.0801
     41 H10        -0.7892   -4.1412    4.5386 H         1 <0>         0.1052
     42 H11        -0.5559   -3.9331    2.7863 H         1 <0>         0.0778
     43 H12         0.3413   -3.1386    1.5064 H         1 <0>         0.1413
     44 H13         0.8913   -1.4706    1.7954 H         1 <0>         0.1304
     45 H14         3.2530   -4.2644    1.2954 H         1 <0>         0.0670
     46 H15         1.8948   -4.7340    0.2440 H         1 <0>         0.0883
     47 H16         4.1043   -5.1171   -0.8571 H         1 <0>         0.0798
     48 H17         3.1213   -3.9198   -1.7360 H         1 <0>         0.0707
     49 H18         5.3547   -3.3036    0.2535 H         1 <0>         0.0770
     50 H19         5.4423   -3.1125   -1.5147 H         1 <0>         0.0810
     51 H20         4.9513   -0.9486   -0.3939 H         1 <0>         0.0973
     52 H21         3.6013   -1.4608   -1.4345 H         1 <0>         0.0471
     53 H22         2.3772    0.1190   -0.0809 H         1 <0>         0.0811
     54 H23         1.9393   -0.3251    1.5862 H         1 <0>         0.1188
     55 H24         5.1986    1.5625    3.7465 H         1 <0>         0.1332
     56 H25         7.0006    3.0806    4.4458 H         1 <0>         0.1409
     57 H26         7.4928    5.1057    3.1388 H         1 <0>         0.1431
     58 H27         6.2215    5.6028    1.0986 H         1 <0>         0.1441
     59 H28         2.6857    4.0898   -1.1489 H         1 <0>         0.4167
     60 H29        -0.5772    1.9971    2.9940 H         1 <0>         0.1727
     61 H30        -1.1778    3.8645    1.5105 H         1 <0>         0.1559
     62 H31         0.5230    4.7829   -0.0272 H         1 <0>         0.1552
     63 H32         2.3196   -3.8585    2.7233 H         1 <0>         0.4189
@<TRIPOS>BOND
     1    1    2 1
     2    1   33 1
     3    1   34 1
     4    1   35 1
     5    2    3 1
     6    2   36 1
     7    2   37 1
     8    3    4 1
     9    3    6 1
    10    3   63 1
    11    4    5 1
    12    4   38 1
    13    4   39 1
    14    5   40 1
    15    5   41 1
    16    5   42 1
    17    6    7 1
    18    6   43 1
    19    6   44 1
    20    7    8 1
    21    7   13 1
    22    7    9 1
    23    9   10 1
    24    9   45 1
    25    9   46 1
    26   10   11 1
    27   10   47 1
    28   10   48 1
    29   11   12 1
    30   11   49 1
    31   11   50 1
    32   12   13 1
    33   12   51 1
    34   12   52 1
    35   13   14 1
    36   14   15 1
    37   14   53 1
    38   14   54 1
    39   15   16 2
    40   15   17 am
    41   17   28 1
    42   17   18 1
    43   18   23 ar
    44   18   19 ar
    45   19   20 ar
    46   19   55 1
    47   20   21 ar
    48   20   56 1
    49   21   22 ar
    50   21   57 1
    51   22   23 ar
    52   22   58 1
    53   23   24 1
    54   24   25 2
    55   24   26 am
    56   26   27 1
    57   26   59 1
    58   27   32 ar
    59   27   28 ar
    60   28   29 ar
    61   29   30 ar
    62   30   31 ar
    63   30   60 1
    64   31   32 ar
    65   31   61 1
    66   32   62 1
@<TRIPOS>MOLECULE
ZINC22454203
   63    66     0     0     0
SMALL
USER_CHARGES

@<TRIPOS>ATOM
      1 C1          2.3844   -0.5288    2.8835 C.3       1 <0>        -0.1884
      2 C2          2.6615   -2.0249    2.7225 C.3       1 <0>        -0.0230
      3 N1          1.3938   -2.7384    2.5180 N.4       1 <0>        -0.3829
      4 C3          0.5122   -2.5105    3.6707 C.3       1 <0>        -0.0177
      5 C4          1.1417   -3.1234    4.9233 C.3       1 <0>        -0.1865
      6 C5          0.7434   -2.2414    1.2982 C.3       1 <0>        -0.0210
      7 C6          1.6030   -2.5930    0.0824 C.3       1 <0>         0.0658
      8 H1          2.5922   -2.1497    0.1965 H         1 <0>         0.0673
      9 C7          1.7351   -4.1138   -0.0261 C.3       1 <0>        -0.1263
     10 C8          2.5792   -4.4615   -1.2554 C.3       1 <0>        -0.1208
     11 C9          1.9227   -3.8616   -2.5018 C.3       1 <0>        -0.1199
     12 C10         1.7851   -2.3481   -2.3216 C.3       1 <0>         0.0567
     13 N2          0.9688   -2.0678   -1.1335 N.3       1 <0>        -0.5060
     14 C11         0.6997   -0.6292   -1.0075 C.3       1 <0>         0.0280
     15 C12        -0.2574   -0.2005   -2.0898 C.2       1 <0>         0.5313
     16 O1         -0.7602   -1.0298   -2.8180 O.2       1 <0>        -0.4731
     17 N3         -0.5547    1.1045   -2.2484 N.am      1 <0>        -0.5141
     18 C13        -1.5127    1.5036   -3.1787 C.ar      1 <0>         0.1642
     19 C14        -1.3406    1.2078   -4.5233 C.ar      1 <0>        -0.1026
     20 C15        -2.2693    1.6364   -5.4511 C.ar      1 <0>        -0.0744
     21 C16        -3.3753    2.3657   -5.0466 C.ar      1 <0>        -0.1154
     22 C17        -3.5691    2.6549   -3.7134 C.ar      1 <0>        -0.0474
     23 C18        -2.6476    2.2115   -2.7597 C.ar      1 <0>        -0.1411
     24 C19        -2.9034    2.4447   -1.3334 C.2       1 <0>         0.5707
     25 O2         -4.0572    2.3654   -0.9585 O.2       1 <0>        -0.5104
     26 N4         -1.9910    2.7332   -0.4177 N.am      1 <0>        -0.6551
     27 C20        -0.6242    2.9005   -0.6197 C.ar      1 <0>         0.1102
     28 C21         0.0889    2.0770   -1.4786 C.ar      1 <0>         0.3092
     29 N5          1.4031    2.2148   -1.5897 N.ar      1 <0>        -0.4700
     30 C22         2.0649    3.1482   -0.9342 C.ar      1 <0>         0.1109
     31 C23         1.4081    4.0281   -0.0975 C.ar      1 <0>        -0.1366
     32 C24         0.0479    3.9086    0.0649 C.ar      1 <0>        -0.0827
     33 H2          1.7033   -0.3735    3.7202 H         1 <0>         0.0839
     34 H3          3.3207   -0.0045    3.0750 H         1 <0>         0.1078
     35 H4          1.9320   -0.1427    1.9701 H         1 <0>         0.0745
     36 H5          3.3107   -2.1836    1.8614 H         1 <0>         0.1300
     37 H6          3.1503   -2.4026    3.6205 H         1 <0>         0.1356
     38 H7          0.3775   -1.4391    3.8189 H         1 <0>         0.1313
     39 H8         -0.4558   -2.9762    3.4855 H         1 <0>         0.1320
     40 H9          2.0590   -2.5880    5.1681 H         1 <0>         0.0811
     41 H10         0.4427   -3.0463    5.7561 H         1 <0>         0.1073
     42 H11         1.3718   -4.1726    4.7380 H         1 <0>         0.0805
     43 H12        -0.2381   -2.7042    1.1954 H         1 <0>         0.1434
     44 H13         0.6298   -1.1592    1.3622 H         1 <0>         0.1301
     45 H14         2.2199   -4.5017    0.8698 H         1 <0>         0.0627
     46 H15         0.7452   -4.5588   -0.1266 H         1 <0>         0.0911
     47 H16         3.5814   -4.0495   -1.1375 H         1 <0>         0.0652
     48 H17         2.6397   -5.5447   -1.3611 H         1 <0>         0.0790
     49 H18         2.5414   -4.0694   -3.3748 H         1 <0>         0.0795
     50 H19         0.9357   -4.3027   -2.6413 H         1 <0>         0.0802
     51 H20         2.7734   -1.9060   -2.1960 H         1 <0>         0.0424
     52 H21         1.3050   -1.9198   -3.2015 H         1 <0>         0.0945
     53 H22         0.2590   -0.4261   -0.0315 H         1 <0>         0.0980
     54 H23         1.6328   -0.0748   -1.1073 H         1 <0>         0.0911
     55 H24        -0.4789    0.6417   -4.8448 H         1 <0>         0.1348
     56 H25        -2.1325    1.4023   -6.4965 H         1 <0>         0.1412
     57 H26        -4.0894    2.7097   -5.7802 H         1 <0>         0.1425
     58 H27        -4.4332    3.2246   -3.4048 H         1 <0>         0.1431
     59 H28        -2.3100    2.8396    0.4921 H         1 <0>         0.4138
     60 H29         3.1355    3.2250   -1.0532 H         1 <0>         0.1728
     61 H30         1.9558    4.8012    0.4208 H         1 <0>         0.1545
     62 H31        -0.4866    4.5833    0.7172 H         1 <0>         0.1534
     63 H32         1.5754   -3.7264    2.4236 H         1 <0>         0.4239
@<TRIPOS>BOND
     1    1    2 1
     2    1   33 1
     3    1   34 1
     4    1   35 1
     5    2    3 1
     6    2   36 1
     7    2   37 1
     8    3    4 1
     9    3    6 1
    10    3   63 1
    11    4    5 1
    12    4   38 1
    13    4   39 1
    14    5   40 1
    15    5   41 1
    16    5   42 1
    17    6    7 1
    18    6   43 1
    19    6   44 1
    20    7    8 1
    21    7   13 1
    22    7    9 1
    23    9   10 1
    24    9   45 1
    25    9   46 1
    26   10   11 1
    27   10   47 1
    28   10   48 1
    29   11   12 1
    30   11   49 1
    31   11   50 1
    32   12   13 1
    33   12   51 1
    34   12   52 1
    35   13   14 1
    36   14   15 1
    37   14   53 1
    38   14   54 1
    39   15   16 2
    40   15   17 am
    41   17   28 1
    42   17   18 1
    43   18   23 ar
    44   18   19 ar
    45   19   20 ar
    46   19   55 1
    47   20   21 ar
    48   20   56 1
    49   21   22 ar
    50   21   57 1
    51   22   23 ar
    52   22   58 1
    53   23   24 1
    54   24   25 2
    55   24   26 am
    56   26   27 1
    57   26   59 1
    58   27   32 ar
    59   27   28 ar
    60   28   29 ar
    61   29   30 ar
    62   30   31 ar
    63   30   60 1
    64   31   32 ar
    65   31   61 1
    66   32   62 1
@<TRIPOS>MOLECULE
ZINC03936683
   54    58     0     0     0
SMALL
USER_CHARGES

@<TRIPOS>ATOM
      1 C1         -0.0161    1.3791    0.0139 C.ar      1 <0>        -0.1072
      2 C2          0.0881    0.1354    0.6081 C.ar      1 <0>        -0.1195
      3 C3          1.2942   -0.5398    0.5913 C.ar      1 <0>        -0.1025
      4 C4          2.3960    0.0285   -0.0201 C.ar      1 <0>        -0.1067
      5 C5          2.2916    1.2719   -0.6151 C.ar      1 <0>        -0.0987
      6 C6          1.0859    1.9477   -0.5971 C.ar      1 <0>        -0.1176
      7 C7          3.7112   -0.7071   -0.0376 C.3       1 <0>         0.2465
      8 H1          4.4779   -0.0690   -0.4769 H         1 <0>         0.1178
      9 C8          4.1045   -1.0655    1.3735 C.ar      1 <0>        -0.0920
     10 C9          4.5143   -0.0380    2.2125 C.ar      1 <0>        -0.1011
     11 C10         4.8763   -0.3016    3.5174 C.ar      1 <0>        -0.1131
     12 C11         4.8295   -1.5990    3.9930 C.ar      1 <0>        -0.1088
     13 C12         4.4268   -2.6211    3.1592 C.ar      1 <0>        -0.1180
     14 C13         4.0668   -2.3593    1.8427 C.ar      1 <0>        -0.0760
     15 C14         3.6633   -3.5285    0.9836 C.3       1 <0>        -0.0959
     16 C15         2.8595   -3.0609   -0.2287 C.3       1 <0>         0.0988
     17 N1          3.5762   -1.9293   -0.8374 N.am      1 <0>        -0.5753
     18 C16         4.0877   -2.0127   -2.0815 C.2       1 <0>         0.6539
     19 O1          4.6747   -1.0635   -2.5620 O.2       1 <0>        -0.5591
     20 O2          3.9482   -3.1478   -2.7920 O.3       1 <0>        -0.3491
     21 C17         4.5151   -3.1660   -4.1036 C.3       1 <0>         0.0967
     22 H2          4.5010   -2.1594   -4.5216 H         1 <0>         0.1228
     23 C18         5.9577   -3.6714   -4.0318 C.3       1 <0>        -0.0270
     24 N2          6.1041   -4.8865   -4.8366 N.4       1 <0>        -0.3731
     25 C19         5.8050   -4.6120   -6.2441 C.3       1 <0>        -0.0108
     26 C20         4.3573   -4.1377   -6.3893 C.3       1 <0>        -0.1360
     27 C21         3.7020   -4.1071   -5.0022 C.3       1 <0>        -0.0973
     28 C22         3.7681   -5.5203   -4.4080 C.3       1 <0>        -0.1345
     29 C23         5.2396   -5.9520   -4.3237 C.3       1 <0>        -0.0080
     30 H3         -0.9595    1.9047    0.0231 H         1 <0>         0.1263
     31 H4         -0.7727   -0.3087    1.0858 H         1 <0>         0.1258
     32 H5          1.3758   -1.5113    1.0562 H         1 <0>         0.1232
     33 H6          3.1526    1.7161   -1.0925 H         1 <0>         0.1247
     34 H7          1.0044    2.9193   -1.0616 H         1 <0>         0.1271
     35 H8          4.5496    0.9754    1.8408 H         1 <0>         0.1252
     36 H9          5.1952    0.5021    4.1646 H         1 <0>         0.1288
     37 H10         5.1079   -1.8116    5.0146 H         1 <0>         0.1274
     38 H11         4.3905   -3.6338    3.5328 H         1 <0>         0.1247
     39 H12         4.5586   -4.0478    0.6415 H         1 <0>         0.0793
     40 H13         3.0556   -4.2143    1.5739 H         1 <0>         0.0939
     41 H14         2.7730   -3.8739   -0.9496 H         1 <0>         0.0977
     42 H15         1.8668   -2.7410    0.0882 H         1 <0>         0.0907
     43 H16         6.6298   -2.9023   -4.4126 H         1 <0>         0.1437
     44 H17         6.2128   -3.8912   -2.9952 H         1 <0>         0.1372
     45 H18         6.4779   -3.8377   -6.6124 H         1 <0>         0.1331
     46 H19         5.9481   -5.5210   -6.8282 H         1 <0>         0.1353
     47 H20         4.3424   -3.1366   -6.8203 H         1 <0>         0.1049
     48 H21         3.8112   -4.8242   -7.0363 H         1 <0>         0.1117
     49 H22         2.6711   -3.7610   -5.0768 H         1 <0>         0.1268
     50 H23         3.3318   -5.5173   -3.4091 H         1 <0>         0.1060
     51 H24         3.2181   -6.2112   -5.0469 H         1 <0>         0.1046
     52 H25         5.3858   -6.8540   -4.9180 H         1 <0>         0.1332
     53 H26         5.4982   -6.1592   -3.2853 H         1 <0>         0.1301
     54 H27         7.0625   -5.1961   -4.7760 H         1 <0>         0.4295
@<TRIPOS>BOND
     1    1    6 ar
     2    1    2 ar
     3    1   30 1
     4    2    3 ar
     5    2   31 1
     6    3    4 ar
     7    3   32 1
     8    4    5 ar
     9    4    7 1
    10    5    6 ar
    11    5   33 1
    12    6   34 1
    13    7    8 1
    14    7   17 1
    15    7    9 1
    16    9   14 ar
    17    9   10 ar
    18   10   11 ar
    19   10   35 1
    20   11   12 ar
    21   11   36 1
    22   12   13 ar
    23   12   37 1
    24   13   14 ar
    25   13   38 1
    26   14   15 1
    27   15   16 1
    28   15   39 1
    29   15   40 1
    30   16   17 1
    31   16   41 1
    32   16   42 1
    33   17   18 am
    34   18   19 2
    35   18   20 1
    36   20   21 1
    37   21   22 1
    38   21   27 1
    39   21   23 1
    40   23   24 1
    41   23   43 1
    42   23   44 1
    43   24   29 1
    44   24   25 1
    45   24   54 1
    46   25   26 1
    47   25   45 1
    48   25   46 1
    49   26   27 1
    50   26   47 1
    51   26   48 1
    52   27   28 1
    53   27   49 1
    54   28   29 1
    55   28   50 1
    56   28   51 1
    57   29   52 1
    58   29   53 1
@<TRIPOS>MOLECULE
ZINC13674440
   55    59     0     0     0
SMALL
USER_CHARGES
[(3R)-quinuclidin-3-yl] (1S,4R)-4-hydroxy-1-phenyl-3,4-dihydro-1H-isoquinoline-2-carboxylate
@<TRIPOS>ATOM
      1 C1          1.0999    5.7537    4.5798 C.ar      1 <0>        -0.1059
      2 C2          0.3558    4.9302    3.7558 C.ar      1 <0>        -0.1187
      3 C3          0.9861    4.1627    2.7942 C.ar      1 <0>        -0.1019
      4 C4          2.3605    4.2184    2.6570 C.ar      1 <0>        -0.1091
      5 C5          3.1051    5.0377    3.4848 C.ar      1 <0>        -0.0977
      6 C6          2.4743    5.8091    4.4429 C.ar      1 <0>        -0.1180
      7 C7          3.0477    3.3814    1.6091 C.3       1 <0>         0.2440
      8 H1          4.1278    3.4851    1.7128 H         1 <0>         0.1211
      9 C8          2.6634    1.9344    1.7911 C.ar      1 <0>        -0.0814
     10 C9          3.1723    1.2633    2.8948 C.ar      1 <0>        -0.1007
     11 C10         2.8495   -0.0588    3.1208 C.ar      1 <0>        -0.1064
     12 C11         2.0121   -0.7198    2.2412 C.ar      1 <0>        -0.1070
     13 C12         1.5094   -0.0554    1.1423 C.ar      1 <0>        -0.1139
     14 C13         1.8362    1.2753    0.9099 C.ar      1 <0>        -0.1146
     15 C14         1.2583    1.9321   -0.3160 C.3       1 <0>         0.1378
     16 H2          1.8381    1.6328   -1.1892 H         1 <0>         0.0684
     17 C15         1.2948    3.4540   -0.1862 C.3       1 <0>         0.1079
     18 N1          2.6394    3.8366    0.2757 N.am      1 <0>        -0.5746
     19 C16         3.4621    4.5749   -0.4955 C.2       1 <0>         0.6574
     20 O1          4.5669    4.8767   -0.0897 O.2       1 <0>        -0.5560
     21 O2          3.0596    4.9779   -1.7154 O.3       1 <0>        -0.3529
     22 C17         3.9976    5.7699   -2.4907 C.3       1 <0>         0.0990
     23 H3          4.6289    6.3504   -1.8180 H         1 <0>         0.1257
     24 C18         4.8707    4.8434   -3.3420 C.3       1 <0>        -0.0201
     25 C19         5.1029    6.5428   -5.0527 C.3       1 <0>        -0.0048
     26 C20         4.2372    7.5178   -4.2497 C.3       1 <0>        -0.1337
     27 C21         3.2266    6.7155   -3.4203 C.3       1 <0>        -0.0982
     28 C22         2.3701    5.8730   -4.3740 C.3       1 <0>        -0.1357
     29 C23         3.2882    4.9440   -5.1734 C.3       1 <0>        -0.0020
     30 O3         -0.0958    1.5070   -0.4828 O.3       1 <0>        -0.5530
     31 H4          0.6074    6.3536    5.3308 H         1 <0>         0.1268
     32 H5         -0.7180    4.8866    3.8630 H         1 <0>         0.1264
     33 H6          0.4048    3.5192    2.1504 H         1 <0>         0.1247
     34 H7          4.1793    5.0779    3.3805 H         1 <0>         0.1252
     35 H8          3.0556    6.4523    5.0869 H         1 <0>         0.1275
     36 H9          3.8261    1.7802    3.5817 H         1 <0>         0.1282
     37 H10         3.2488   -0.5751    3.9811 H         1 <0>         0.1315
     38 H11         1.7527   -1.7538    2.4142 H         1 <0>         0.1301
     39 H12         0.8557   -0.5736    0.4564 H         1 <0>         0.1232
     40 H13         1.0934    3.9117   -1.1548 H         1 <0>         0.1046
     41 H14         0.5484    3.7804    0.5381 H         1 <0>         0.1007
     42 H15         5.9180    4.9828   -3.0738 H         1 <0>         0.1432
     43 H16         4.5842    3.8072   -3.1622 H         1 <0>         0.1357
     44 H17         6.1487    6.6698   -4.7729 H         1 <0>         0.1316
     45 H18         4.9840    6.7431   -6.1175 H         1 <0>         0.1337
     46 H19         3.7052    8.1808   -4.9319 H         1 <0>         0.1124
     47 H20         4.8700    8.1059   -3.5851 H         1 <0>         0.1056
     48 H21         2.5918    7.3810   -2.8353 H         1 <0>         0.1265
     49 H22         1.8307    6.5294   -5.0568 H         1 <0>         0.1052
     50 H23         1.6603    5.2785   -3.7988 H         1 <0>         0.1069
     51 H24         3.1843    5.1573   -6.2372 H         1 <0>         0.1317
     52 H25         3.0128    3.9070   -4.9817 H         1 <0>         0.1282
     53 H26        -0.1993    0.5497   -0.5723 H         1 <0>         0.3874
     54 N2          4.6983    5.1474   -4.7789 N.4       1 <0>        -0.3887
     55 H27         5.2925    4.5143   -5.3270 H         1 <0>         0.4367
@<TRIPOS>BOND
     1    1    6 ar
     2    1    2 ar
     3    1   31 1
     4    2    3 ar
     5    2   32 1
     6    3    4 ar
     7    3   33 1
     8    4    5 ar
     9    4    7 1
    10    5    6 ar
    11    5   34 1
    12    6   35 1
    13    7    8 1
    14    7   18 1
    15    7    9 1
    16    9   14 ar
    17    9   10 ar
    18   10   11 ar
    19   10   36 1
    20   11   12 ar
    21   11   37 1
    22   12   13 ar
    23   12   38 1
    24   13   14 ar
    25   13   39 1
    26   14   15 1
    27   15   16 1
    28   15   17 1
    29   15   30 1
    30   17   18 1
    31   17   40 1
    32   17   41 1
    33   18   19 am
    34   19   20 2
    35   19   21 1
    36   21   22 1
    37   22   23 1
    38   22   27 1
    39   22   24 1
    40   24   42 1
    41   24   43 1
    42   24   54 1
    43   25   26 1
    44   25   44 1
    45   25   45 1
    46   25   54 1
    47   26   27 1
    48   26   46 1
    49   26   47 1
    50   27   28 1
    51   27   48 1
    52   28   29 1
    53   28   49 1
    54   28   50 1
    55   29   51 1
    56   29   52 1
    57   29   54 1
    58   30   53 1
    59   54   55 1
@<TRIPOS>MOLECULE
ZINC00492792
   28    29     0     0     0
SMALL
USER_CHARGES

@<TRIPOS>ATOM
      1 C1         -0.0184    1.5028    0.0103 C.3       1 <0>        -0.1507
      2 C2          0.0021   -0.0041    0.0020 C.2       1 <0>         0.4617
      3 O1          1.0565   -0.5939   -0.0112 O.2       1 <0>        -0.4976
      4 O2         -1.1511   -0.6910    0.0093 O.3       1 <0>        -0.3413
      5 C3         -1.0570   -2.1168    0.0008 C.3       1 <0>         0.0740
      6 H1         -0.1406   -2.4254    0.5039 H         1 <0>         0.1192
      7 C4         -1.0436   -2.6212   -1.4440 C.3       1 <0>        -0.0258
      8 N1         -2.1853   -3.5092   -1.6758 N.4       1 <0>        -0.3730
      9 C5         -2.1124   -4.6819   -0.8010 C.3       1 <0>        -0.0109
     10 C6         -2.1611   -4.2459    0.6651 C.3       1 <0>        -0.1372
     11 C7         -2.2688   -2.7165    0.7262 C.3       1 <0>        -0.0970
     12 C8         -3.5392   -2.2936   -0.0230 C.3       1 <0>        -0.1352
     13 C9         -3.4462   -2.7917   -1.4728 C.3       1 <0>        -0.0082
     14 H2          1.0042    1.8801    0.0026 H         1 <0>         0.1107
     15 H3         -0.5455    1.8639   -0.8728 H         1 <0>         0.1059
     16 H4         -0.5286    1.8543    0.9071 H         1 <0>         0.1083
     17 H5         -1.1023   -1.7716   -2.1242 H         1 <0>         0.1374
     18 H6         -0.1180   -3.1666   -1.6281 H         1 <0>         0.1421
     19 H7         -2.9541   -5.3420   -1.0102 H         1 <0>         0.1357
     20 H8         -1.1808   -5.2158   -0.9888 H         1 <0>         0.1328
     21 H9         -3.0288   -4.6929    1.1504 H         1 <0>         0.1116
     22 H10        -1.2510   -4.5667    1.1720 H         1 <0>         0.1041
     23 H11        -2.2938   -2.3788    1.7623 H         1 <0>         0.1265
     24 H12        -4.4119   -2.7319    0.4612 H         1 <0>         0.1047
     25 H13        -3.6227   -1.2068   -0.0162 H         1 <0>         0.1079
     26 H14        -3.4916   -1.9409   -2.1526 H         1 <0>         0.1310
     27 H15        -4.2808   -3.4619   -1.6787 H         1 <0>         0.1334
     28 H16        -2.1511   -3.8304   -2.6317 H         1 <0>         0.4298
@<TRIPOS>BOND
     1    1    2 1
     2    1   14 1
     3    1   15 1
     4    1   16 1
     5    2    3 2
     6    2    4 1
     7    4    5 1
     8    5    6 1
     9    5   11 1
    10    5    7 1
    11    7    8 1
    12    7   17 1
    13    7   18 1
    14    8   13 1
    15    8    9 1
    16    8   28 1
    17    9   10 1
    18    9   19 1
    19    9   20 1
    20   10   11 1
    21   10   21 1
    22   10   22 1
    23   11   12 1
    24   11   23 1
    25   12   13 1
    26   12   24 1
    27   12   25 1
    28   13   26 1
    29   13   27 1
@<TRIPOS>MOLECULE
ZINC01089661
   28    29     0     0     0
SMALL
USER_CHARGES

@<TRIPOS>ATOM
      1 C1         -0.0184    1.5028    0.0103 C.3       1 <0>        -0.1507
      2 C2          0.0021   -0.0041    0.0020 C.2       1 <0>         0.4617
      3 O1          1.0565   -0.5939   -0.0112 O.2       1 <0>        -0.4975
      4 O2         -1.1511   -0.6910    0.0093 O.3       1 <0>        -0.3414
      5 C3         -1.0570   -2.1168    0.0008 C.3       1 <0>         0.0738
      6 H1         -0.1504   -2.4199   -0.5230 H         1 <0>         0.1192
      7 C4         -1.0161   -2.6367    1.4395 C.3       1 <0>        -0.0258
      8 N1         -2.1528   -3.5279    1.6833 N.4       1 <0>        -0.3729
      9 C5         -3.4175   -2.8089    1.5124 C.3       1 <0>        -0.0083
     10 C6         -3.5382   -2.2946    0.0762 C.3       1 <0>        -0.1370
     11 C7         -2.2824   -2.7088   -0.7078 C.3       1 <0>        -0.0970
     12 C8         -2.1720   -4.2387   -0.6685 C.3       1 <0>        -0.1356
     13 C9         -2.0963   -4.6908    0.7944 C.3       1 <0>        -0.0107
     14 H2          1.0042    1.8801    0.0026 H         1 <0>         0.1107
     15 H3         -0.5455    1.8639   -0.8728 H         1 <0>         0.1083
     16 H4         -0.5286    1.8543    0.9071 H         1 <0>         0.1059
     17 H5         -0.0869   -3.1835    1.6002 H         1 <0>         0.1422
     18 H6         -1.0623   -1.7945    2.1299 H         1 <0>         0.1374
     19 H7         -4.2479   -3.4818    1.7266 H         1 <0>         0.1335
     20 H8         -3.4503   -1.9657    2.2025 H         1 <0>         0.1310
     21 H9         -4.4210   -2.7278   -0.3940 H         1 <0>         0.1044
     22 H10        -3.6217   -1.2078    0.0831 H         1 <0>         0.1080
     23 H11        -2.3372   -2.3458   -1.7341 H         1 <0>         0.1267
     24 H12        -3.0477   -4.6805   -1.1439 H         1 <0>         0.1117
     25 H13        -1.2706   -4.5534   -1.1944 H         1 <0>         0.1042
     26 H14        -1.1610   -5.2261    0.9583 H         1 <0>         0.1327
     27 H15        -2.9335   -5.3538    1.0125 H         1 <0>         0.1357
     28 H16        -2.1050   -3.8527    2.6374 H         1 <0>         0.4299
@<TRIPOS>BOND
     1    1    2 1
     2    1   14 1
     3    1   15 1
     4    1   16 1
     5    2    3 2
     6    2    4 1
     7    4    5 1
     8    5    6 1
     9    5   11 1
    10    5    7 1
    11    7    8 1
    12    7   17 1
    13    7   18 1
    14    8   13 1
    15    8    9 1
    16    8   28 1
    17    9   10 1
    18    9   19 1
    19    9   20 1
    20   10   11 1
    21   10   21 1
    22   10   22 1
    23   11   12 1
    24   11   23 1
    25   12   13 1
    26   12   24 1
    27   12   25 1
    28   13   26 1
    29   13   27 1
@<TRIPOS>MOLECULE
ZINC03921860
  108   109     0     0     0
SMALL
USER_CHARGES

@<TRIPOS>ATOM
      1 C1         -0.0173    1.4248    0.0099 C.3       1 <0>         0.0218
      2 O1          0.0021   -0.0041    0.0020 O.3       1 <0>        -0.3317
      3 C2          0.6258   -0.6184    1.0415 C.ar      1 <0>         0.1495
      4 C3          1.2023    0.1385    2.0514 C.ar      1 <0>        -0.2024
      5 C4          1.8353   -0.4882    3.1070 C.ar      1 <0>        -0.0386
      6 C5          1.8947   -1.8689    3.1579 C.ar      1 <0>        -0.1481
      7 C6          1.3214   -2.6252    2.1527 C.ar      1 <0>        -0.0531
      8 C7          0.6822   -2.0032    1.0975 C.ar      1 <0>        -0.2056
      9 C8          0.0521   -2.8284    0.0053 C.3       1 <0>         0.0590
     10 N1          0.9527   -2.8756   -1.1542 N.4       1 <0>        -0.5088
     11 C9          0.3385   -3.6800   -2.2189 C.3       1 <0>        -0.0101
     12 C10         1.2765   -3.7292   -3.4267 C.3       1 <0>        -0.1515
     13 C11         0.6368   -4.5670   -4.5356 C.3       1 <0>        -0.1189
     14 C12         1.5748   -4.6161   -5.7433 C.3       1 <0>        -0.1195
     15 C13         0.9351   -5.4540   -6.8522 C.3       1 <0>        -0.1520
     16 C14         1.8732   -5.5031   -8.0599 C.3       1 <0>        -0.0104
     17 N2          1.2589   -6.3075   -9.1246 N.4       1 <0>        -0.5109
     18 C15         2.1596   -6.3547  -10.2841 C.3       1 <0>        -0.0102
     19 C16         1.5199   -7.1926  -11.3930 C.3       1 <0>        -0.1514
     20 C17         2.4579   -7.2417  -12.6007 C.3       1 <0>        -0.1193
     21 C18         1.8182   -8.0795  -13.7096 C.3       1 <0>        -0.1229
     22 C19         2.7562   -8.1286  -14.9174 C.3       1 <0>        -0.1229
     23 C20         2.1165   -8.9665  -16.0263 C.3       1 <0>        -0.1193
     24 C21         3.0545   -9.0156  -17.2340 C.3       1 <0>        -0.1514
     25 C22         2.4148   -9.8535  -18.3429 C.3       1 <0>        -0.0102
     26 N3          3.3155   -9.9006  -19.5024 N.4       1 <0>        -0.5109
     27 C23         2.7012  -10.7051  -20.5671 C.3       1 <0>        -0.0104
     28 C24         3.6393  -10.7542  -21.7748 C.3       1 <0>        -0.1520
     29 C25         2.9995  -11.5920  -22.8837 C.3       1 <0>        -0.1195
     30 C26         3.9376  -11.6411  -24.0914 C.3       1 <0>        -0.1189
     31 C27         3.2979  -12.4790  -25.2004 C.3       1 <0>        -0.1516
     32 C28         4.2359  -12.5281  -26.4081 C.3       1 <0>        -0.0100
     33 N4          3.6217  -13.3325  -27.4728 N.4       1 <0>        -0.5088
     34 C29         4.5223  -13.3797  -28.6323 C.3       1 <0>         0.0590
     35 C30         3.8922  -14.2050  -29.7245 C.ar      1 <0>        -0.2056
     36 C31         4.2759  -15.5198  -29.9064 C.ar      1 <0>        -0.0530
     37 C32         3.6986  -16.2772  -30.9085 C.ar      1 <0>        -0.1481
     38 C33         2.7357  -15.7214  -31.7310 C.ar      1 <0>        -0.0386
     39 C34         2.3484  -14.4076  -31.5529 C.ar      1 <0>        -0.2024
     40 C35         2.9225  -13.6469  -30.5445 C.ar      1 <0>         0.1495
     41 O2          2.5391  -12.3557  -30.3637 O.3       1 <0>        -0.3317
     42 C36         1.5355  -11.8475  -31.2450 C.3       1 <0>         0.0219
     43 H1          1.0053    1.8021    0.0021 H         1 <0>         0.0655
     44 H2         -0.5445    1.7859   -0.8732 H         1 <0>         0.1108
     45 H3         -0.5275    1.7763    0.9067 H         1 <0>         0.0688
     46 H4          1.1565    1.2168    2.0119 H         1 <0>         0.1425
     47 H5          2.2845    0.1005    3.8932 H         1 <0>         0.1419
     48 H6          2.3900   -2.3570    3.9842 H         1 <0>         0.1408
     49 H7          1.3695   -3.7034    2.1946 H         1 <0>         0.1397
     50 H8         -0.1239   -3.8404    0.3701 H         1 <0>         0.1375
     51 H9         -0.8960   -2.3784   -0.2891 H         1 <0>         0.1383
     52 H10         1.1156   -1.9389   -1.4919 H         1 <0>         0.4288
     53 H11         0.1625   -4.6920   -1.8542 H         1 <0>         0.1322
     54 H12        -0.6096   -3.2300   -2.5134 H         1 <0>         0.1321
     55 H13         1.4525   -2.7172   -3.7914 H         1 <0>         0.0890
     56 H14         2.2246   -4.1792   -3.1322 H         1 <0>         0.0893
     57 H15         0.4608   -5.5790   -4.1708 H         1 <0>         0.0792
     58 H16        -0.3113   -4.1169   -4.8300 H         1 <0>         0.0791
     59 H17         1.7508   -3.6042   -6.1081 H         1 <0>         0.0789
     60 H18         2.5229   -5.0662   -5.4489 H         1 <0>         0.0790
     61 H19         0.7592   -6.4659   -6.4874 H         1 <0>         0.0903
     62 H20        -0.0130   -5.0039   -7.1466 H         1 <0>         0.0902
     63 H21         2.0491   -4.4911   -8.4247 H         1 <0>         0.1327
     64 H22         2.8212   -5.9532   -7.7655 H         1 <0>         0.1328
     65 H23         1.0961   -7.2443   -8.7869 H         1 <0>         0.4293
     66 H24         2.3355   -5.3428  -10.6489 H         1 <0>         0.1323
     67 H25         3.1077   -6.8048   -9.9897 H         1 <0>         0.1324
     68 H26         1.3439   -8.2045  -11.0282 H         1 <0>         0.0885
     69 H27         0.5718   -6.7425  -11.6874 H         1 <0>         0.0884
     70 H28         2.6339   -6.2297  -12.9655 H         1 <0>         0.0754
     71 H29         3.4060   -7.6918  -12.3063 H         1 <0>         0.0755
     72 H30         1.6422   -9.0915  -13.3449 H         1 <0>         0.0693
     73 H31         0.8701   -7.6294  -14.0041 H         1 <0>         0.0692
     74 H32         2.9322   -7.1167  -15.2821 H         1 <0>         0.0692
     75 H33         3.7043   -8.5787  -14.6229 H         1 <0>         0.0692
     76 H34         1.9405   -9.9784  -15.6615 H         1 <0>         0.0755
     77 H35         1.1684   -8.5164  -16.3207 H         1 <0>         0.0754
     78 H36         3.2305   -8.0037  -17.5988 H         1 <0>         0.0884
     79 H37         4.0026   -9.4657  -16.9396 H         1 <0>         0.0885
     80 H38         2.2389  -10.8654  -17.9781 H         1 <0>         0.1324
     81 H39         1.4667   -9.4034  -18.6373 H         1 <0>         0.1324
     82 H40         3.4783   -8.9639  -19.8401 H         1 <0>         0.4293
     83 H41         2.5253  -11.7170  -20.2023 H         1 <0>         0.1328
     84 H42         1.7531  -10.2550  -20.8615 H         1 <0>         0.1327
     85 H43         3.8152   -9.7422  -22.1396 H         1 <0>         0.0902
     86 H44         4.5874  -11.2043  -21.4804 H         1 <0>         0.0903
     87 H45         2.8236  -12.6040  -22.5189 H         1 <0>         0.0790
     88 H46         2.0515  -11.1419  -23.1781 H         1 <0>         0.0789
     89 H47         4.1135  -10.6292  -24.4562 H         1 <0>         0.0791
     90 H48         4.8857  -12.0912  -23.7970 H         1 <0>         0.0792
     91 H49         3.1219  -13.4909  -24.8356 H         1 <0>         0.0894
     92 H50         2.3498  -12.0289  -25.4948 H         1 <0>         0.0890
     93 H51         4.4119  -11.5162  -26.7729 H         1 <0>         0.1321
     94 H52         5.1840  -12.9782  -26.1137 H         1 <0>         0.1322
     95 H53         3.4588  -14.2693  -27.1351 H         1 <0>         0.4262
     96 H54         4.6983  -12.3678  -28.9971 H         1 <0>         0.1382
     97 H55         5.4704  -13.8298  -28.3379 H         1 <0>         0.1375
     98 H56         5.0276  -15.9561  -29.2654 H         1 <0>         0.1397
     99 H57         4.0003  -17.3045  -31.0496 H         1 <0>         0.1408
    100 H58         2.2865  -16.3151  -32.5134 H         1 <0>         0.1418
    101 H59         1.5964  -13.9741  -32.1955 H         1 <0>         0.1425
    102 H60         0.6267  -12.4402  -31.1410 H         1 <0>         0.0655
    103 H61         1.3227  -10.8087  -30.9927 H         1 <0>         0.1108
    104 H62         1.8917  -11.9060  -32.2735 H         1 <0>         0.0688
    105 H63         0.3813   -5.8909   -9.3971 H         1 <0>         0.4293
    106 H64         4.1931  -10.3172  -19.2299 H         1 <0>         0.4293
    107 H65         1.8303   -3.2922   -0.8817 H         1 <0>         0.4262
    108 H66         2.7441  -12.9159  -27.7453 H         1 <0>         0.4288
@<TRIPOS>BOND
     1    1    2 1
     2    1   43 1
     3    1   44 1
     4    1   45 1
     5    2    3 1
     6    3    8 ar
     7    3    4 ar
     8    4    5 ar
     9    4   46 1
    10    5    6 ar
    11    5   47 1
    12    6    7 ar
    13    6   48 1
    14    7    8 ar
    15    7   49 1
    16    8    9 1
    17    9   10 1
    18    9   50 1
    19    9   51 1
    20   10   11 1
    21   10   52 1
    22   10  107 1
    23   11   12 1
    24   11   53 1
    25   11   54 1
    26   12   13 1
    27   12   55 1
    28   12   56 1
    29   13   14 1
    30   13   57 1
    31   13   58 1
    32   14   15 1
    33   14   59 1
    34   14   60 1
    35   15   16 1
    36   15   61 1
    37   15   62 1
    38   16   17 1
    39   16   63 1
    40   16   64 1
    41   17   18 1
    42   17   65 1
    43   17  105 1
    44   18   19 1
    45   18   66 1
    46   18   67 1
    47   19   20 1
    48   19   68 1
    49   19   69 1
    50   20   21 1
    51   20   70 1
    52   20   71 1
    53   21   22 1
    54   21   72 1
    55   21   73 1
    56   22   23 1
    57   22   74 1
    58   22   75 1
    59   23   24 1
    60   23   76 1
    61   23   77 1
    62   24   25 1
    63   24   78 1
    64   24   79 1
    65   25   26 1
    66   25   80 1
    67   25   81 1
    68   26   27 1
    69   26   82 1
    70   26  106 1
    71   27   28 1
    72   27   83 1
    73   27   84 1
    74   28   29 1
    75   28   85 1
    76   28   86 1
    77   29   30 1
    78   29   87 1
    79   29   88 1
    80   30   31 1
    81   30   89 1
    82   30   90 1
    83   31   32 1
    84   31   91 1
    85   31   92 1
    86   32   33 1
    87   32   93 1
    88   32   94 1
    89   33   34 1
    90   33   95 1
    91   33  108 1
    92   34   35 1
    93   34   96 1
    94   34   97 1
    95   35   40 ar
    96   35   36 ar
    97   36   37 ar
    98   36   98 1
    99   37   38 ar
   100   37   99 1
   101   38   39 ar
   102   38  100 1
   103   39   40 ar
   104   39  101 1
   105   40   41 1
   106   41   42 1
   107   42  102 1
   108   42  103 1
   109   42  104 1
@<TRIPOS>MOLECULE
ZINC19796155
   42    45     0     0     0
SMALL
USER_CHARGES

@<TRIPOS>ATOM
      1 C1         -0.0670    1.4396   -0.3852 C.3       1 <0>         0.0243
      2 N1         -0.0229   -0.0169   -0.1987 N.3       1 <0>        -0.5428
      3 C2          0.3808   -0.6943   -1.4380 C.3       1 <0>         0.0399
      4 C3          0.2401   -2.2095   -1.2572 C.3       1 <0>         0.1263
      5 N2          0.9912   -2.6085   -0.0572 N.pl3     1 <0>        -0.5953
      6 C4          0.7394   -1.8803    1.1955 C.3       1 <0>         0.1122
      7 C5          0.8604   -0.3781    0.9181 C.3       1 <0>         0.0393
      8 C6          1.9051   -3.6365   -0.1053 C.2       1 <0>         0.5098
      9 N3          2.1670   -4.1290   -1.2643 N.2       1 <0>        -0.6041
     10 C7          3.0130   -5.1503   -1.5719 C.ar      1 <0>         0.1655
     11 C8          2.6280   -6.0848   -2.5372 C.ar      1 <0>        -0.1058
     12 C9          3.4872   -7.1047   -2.8991 C.ar      1 <0>        -0.0230
     13 C10         4.7348   -7.2069   -2.3106 C.ar      1 <0>        -0.1209
     14 C11         5.1212   -6.2977   -1.3402 C.ar      1 <0>        -0.1017
     15 C12         4.2618   -5.2835   -0.9546 C.ar      1 <0>         0.1117
     16 N4          4.6314   -4.4326    0.1003 N.pl3     1 <0>        -0.7261
     17 C13         3.8434   -4.4184    1.2519 C.ar      1 <0>         0.2140
     18 C14         2.4943   -4.0640    1.1729 C.ar      1 <0>        -0.1453
     19 C15         1.7072   -4.1133    2.3240 C.ar      1 <0>        -0.0723
     20 C16         2.2727   -4.4729    3.5311 C.ar      1 <0>        -0.1389
     21 C17         3.6189   -4.7825    3.6069 C.ar      1 <0>        -0.0765
     22 C18         4.3974   -4.7629    2.4751 C.ar      1 <0>        -0.1433
     23 Cl1         2.9987   -8.2627   -4.0966 Cl        1 <0>        -0.0679
     24 H1          0.9359    1.8090   -0.5992 H         1 <0>         0.0255
     25 H2         -0.7279    1.6794   -1.2181 H         1 <0>         0.0711
     26 H3         -0.4416    1.9111    0.5233 H         1 <0>         0.0709
     27 H4         -0.2581   -0.3649   -2.2574 H         1 <0>         0.0878
     28 H5          1.4186   -0.4499   -1.6647 H         1 <0>         0.0378
     29 H6         -0.8117   -2.4673   -1.1334 H         1 <0>         0.0720
     30 H7          0.6453   -2.7216   -2.1299 H         1 <0>         0.1060
     31 H8         -0.2645   -2.1065    1.5551 H         1 <0>         0.0792
     32 H9          1.4746   -2.1748    1.9444 H         1 <0>         0.0984
     33 H10         1.8915   -0.1381    0.6586 H         1 <0>         0.0379
     34 H11         0.5693    0.1807    1.8075 H         1 <0>         0.0892
     35 H12         1.6558   -6.0097   -3.0016 H         1 <0>         0.1375
     36 H13         5.4083   -7.9971   -2.6081 H         1 <0>         0.1357
     37 H14         6.0961   -6.3802   -0.8829 H         1 <0>         0.1326
     38 H15         5.4169   -3.8679    0.0299 H         1 <0>         0.4097
     39 H16         0.6563   -3.8699    2.2709 H         1 <0>         0.1344
     40 H17         1.6613   -4.5124    4.4205 H         1 <0>         0.1323
     41 H18         4.0571   -5.0467    4.5580 H         1 <0>         0.1317
     42 H19         5.4473   -5.0071    2.5424 H         1 <0>         0.1313
@<TRIPOS>BOND
     1    1    2 1
     2    1   24 1
     3    1   25 1
     4    1   26 1
     5    2    7 1
     6    2    3 1
     7    3    4 1
     8    3   27 1
     9    3   28 1
    10    4    5 1
    11    4   29 1
    12    4   30 1
    13    5    6 1
    14    5    8 1
    15    6    7 1
    16    6   31 1
    17    6   32 1
    18    7   33 1
    19    7   34 1
    20    8   18 1
    21    8    9 2
    22    9   10 1
    23   10   15 ar
    24   10   11 ar
    25   11   12 ar
    26   11   35 1
    27   12   13 ar
    28   12   23 1
    29   13   14 ar
    30   13   36 1
    31   14   15 ar
    32   14   37 1
    33   15   16 1
    34   16   17 1
    35   16   38 1
    36   17   22 ar
    37   17   18 ar
    38   18   19 ar
    39   19   20 ar
    40   19   39 1
    41   20   21 ar
    42   20   40 1
    43   21   22 ar
    44   21   41 1
    45   22   42 1
@<TRIPOS>MOLECULE
ZINC19796155
   44    47     0     0     0
SMALL
USER_CHARGES

@<TRIPOS>ATOM
      1 C1         -1.5703   -0.0018   -1.9302 C.3       1 <0>        -0.0497
      2 N1         -0.7527   -0.7171   -0.9414 N.4       1 <0>        -0.3854
      3 C2         -1.0498   -2.1535   -1.0104 C.3       1 <0>        -0.0252
      4 C3         -0.2839   -2.8861    0.0962 C.3       1 <0>         0.1048
      5 N2          1.1441   -2.5548   -0.0269 N.pl3     1 <0>        -0.7052
      6 C4          1.5202   -1.1363   -0.1296 C.3       1 <0>         0.1049
      7 C5          0.6692   -0.4862   -1.2256 C.3       1 <0>        -0.0251
      8 C6          2.0831   -3.5253   -0.0448 C.2       1 <0>         0.6309
      9 C7          2.6112   -3.9094    1.2074 C.ar      1 <0>        -0.2438
     10 C8          2.0495   -3.1929    2.2728 C.ar      1 <0>         0.0055
     11 C9          2.4602   -3.4528    3.5483 C.ar      1 <0>        -0.1817
     12 C10         3.4265   -4.4148    3.8208 C.ar      1 <0>         0.0489
     13 C11         4.0101   -5.1439    2.8276 C.ar      1 <0>        -0.2233
     14 C12         3.6302   -4.9235    1.4921 C.ar      1 <0>         0.3343
     15 N3          4.2865   -5.7106    0.6358 N.pl3     1 <0>        -0.6131
     16 C13         4.1767   -5.7728   -0.7271 C.ar      1 <0>         0.1589
     17 C14         5.0408   -6.7320   -1.2562 C.ar      1 <0>        -0.1157
     18 C15         5.0795   -6.9478   -2.6222 C.ar      1 <0>        -0.0495
     19 C16         4.2642   -6.2154   -3.4643 C.ar      1 <0>        -0.0338
     20 C17         3.4016   -5.2585   -2.9468 C.ar      1 <0>        -0.0846
     21 C18         3.3520   -5.0321   -1.5848 C.ar      1 <0>         0.0769
     22 N4          2.4115   -4.0290   -1.2719 N.pl3     1 <0>        -0.5773
     23 Cl1         4.3195   -6.4929   -5.1771 Cl        1 <0>        -0.0159
     24 H1         -1.3348   -0.3678   -2.9295 H         1 <0>         0.1246
     25 H2         -2.6262   -0.1724   -1.7203 H         1 <0>         0.1321
     26 H3         -1.3566    1.0656   -1.8745 H         1 <0>         0.1321
     27 H4         -2.1201   -2.3101   -0.8766 H         1 <0>         0.1569
     28 H5         -0.7442   -2.5415   -1.9820 H         1 <0>         0.1344
     29 H6         -0.6518   -2.5648    1.0707 H         1 <0>         0.1155
     30 H7         -0.4211   -3.9618   -0.0138 H         1 <0>         0.1302
     31 H8          1.3345   -0.6383    0.8220 H         1 <0>         0.1155
     32 H9          2.5758   -1.0551   -0.3891 H         1 <0>         0.1302
     33 H10         0.9228   -0.9247   -2.1907 H         1 <0>         0.1344
     34 H11         0.8655    0.5856   -1.2504 H         1 <0>         0.1569
     35 H12         1.2975   -2.4405    2.0860 H         1 <0>         0.1502
     36 H13         2.0243   -2.8976    4.3657 H         1 <0>         0.1496
     37 H14         3.7223   -4.5886    4.8448 H         1 <0>         0.1558
     38 H15         4.7590   -5.8851    3.0650 H         1 <0>         0.1623
     39 H16         5.6790   -7.3052   -0.6001 H         1 <0>         0.1677
     40 H17         5.7487   -7.6901   -3.0316 H         1 <0>         0.1653
     41 H18         2.7675   -4.6896   -3.6107 H         1 <0>         0.1565
     42 H19         1.9393   -3.6432   -2.0263 H         1 <0>         0.4255
     43 H20         4.9278   -6.3202    1.0333 H         1 <0>         0.4372
     44 H21        -0.9695   -0.3754   -0.0171 H         1 <0>         0.4310
@<TRIPOS>BOND
     1    1    2 1
     2    1   24 1
     3    1   25 1
     4    1   26 1
     5    2    7 1
     6    2    3 1
     7    2   44 1
     8    3    4 1
     9    3   27 1
    10    3   28 1
    11    4    5 1
    12    4   29 1
    13    4   30 1
    14    5    6 1
    15    5    8 1
    16    6    7 1
    17    6   31 1
    18    6   32 1
    19    7   33 1
    20    7   34 1
    21    8   22 1
    22    8    9 2
    23    9   14 ar
    24    9   10 ar
    25   10   11 ar
    26   10   35 1
    27   11   12 ar
    28   11   36 1
    29   12   13 ar
    30   12   37 1
    31   13   14 ar
    32   13   38 1
    33   14   15 2
    34   15   16 1
    35   15   43 1
    36   16   21 ar
    37   16   17 ar
    38   17   18 ar
    39   17   39 1
    40   18   19 ar
    41   18   40 1
    42   19   20 ar
    43   19   23 1
    44   20   21 ar
    45   20   41 1
    46   21   22 1
    47   22   42 1
@<TRIPOS>MOLECULE
ZINC19796155
   43    46     0     0     0
SMALL
USER_CHARGES

@<TRIPOS>ATOM
      1 C1         -0.0523    1.4387   -0.3863 C.3       1 <0>        -0.0469
      2 N1         -0.0147   -0.0168   -0.1908 N.4       1 <0>        -0.3852
      3 C2          0.4863   -0.6601   -1.4120 C.3       1 <0>        -0.0213
      4 C3          0.4181   -2.1823   -1.2510 C.3       1 <0>         0.1002
      5 N2          1.1441   -2.5548   -0.0269 N.pl3     1 <0>        -0.6180
      6 C4          0.8178   -1.8405    1.2170 C.3       1 <0>         0.0860
      7 C5          0.8671   -0.3344    0.9395 C.3       1 <0>        -0.0221
      8 C6          2.1017   -3.5432   -0.0451 C.2       1 <0>         0.5019
      9 N3          2.4234   -4.0210   -1.1951 N.2       1 <0>        -0.5760
     10 C7          3.3217   -5.0050   -1.4750 C.ar      1 <0>         0.1390
     11 C8          3.0096   -5.9522   -2.4541 C.ar      1 <0>        -0.0932
     12 C9          3.9229   -6.9340   -2.7877 C.ar      1 <0>        -0.0267
     13 C10         5.1529   -6.9852   -2.1572 C.ar      1 <0>        -0.1032
     14 C11         5.4673   -6.0631   -1.1730 C.ar      1 <0>        -0.1031
     15 C12         4.5533   -5.0871   -0.8155 C.ar      1 <0>         0.1235
     16 N4          4.8505   -4.2243    0.2524 N.pl3     1 <0>        -0.7273
     17 C13         4.0239   -4.2464    1.3765 C.ar      1 <0>         0.2173
     18 C14         2.6645   -3.9489    1.2520 C.ar      1 <0>        -0.1537
     19 C15         1.8414   -4.0345    2.3754 C.ar      1 <0>        -0.0841
     20 C16         2.3802   -4.3733    3.6007 C.ar      1 <0>        -0.1334
     21 C17         3.7349   -4.6261    3.7220 C.ar      1 <0>        -0.0692
     22 C18         4.5500   -4.5705    2.6174 C.ar      1 <0>        -0.1369
     23 Cl1         3.5248   -8.1083   -4.0027 Cl        1 <0>        -0.0551
     24 H1          0.9534    1.8033   -0.5956 H         1 <0>         0.1211
     25 H2         -0.7066    1.6758   -1.2253 H         1 <0>         0.1256
     26 H3         -0.4316    1.9169    0.5167 H         1 <0>         0.1252
     27 H4         -0.1269   -0.3565   -2.2605 H         1 <0>         0.1425
     28 H5          1.5196   -0.3587   -1.5839 H         1 <0>         0.1315
     29 H6         -0.6226   -2.4957   -1.1694 H         1 <0>         0.0898
     30 H7          0.8819   -2.6629   -2.1125 H         1 <0>         0.1431
     31 H8         -0.1827   -2.1194    1.5479 H         1 <0>         0.0960
     32 H9          1.5457   -2.0950    1.9873 H         1 <0>         0.1385
     33 H10         1.8889   -0.0428    0.6965 H         1 <0>         0.1320
     34 H11         0.5345    0.2092    1.8238 H         1 <0>         0.1439
     35 H12         2.0515   -5.9169   -2.9512 H         1 <0>         0.1396
     36 H13         5.8689   -7.7454   -2.4325 H         1 <0>         0.1422
     37 H14         6.4287   -6.1057   -0.6827 H         1 <0>         0.1382
     38 H15         5.6134   -3.6267    0.2096 H         1 <0>         0.4129
     39 H16         0.7836   -3.8354    2.2868 H         1 <0>         0.1314
     40 H17         1.7411   -4.4409    4.4686 H         1 <0>         0.1357
     41 H18         4.1512   -4.8742    4.6872 H         1 <0>         0.1370
     42 H19         5.6063   -4.7705    2.7202 H         1 <0>         0.1363
     43 H20        -0.9456   -0.3526    0.0057 H         1 <0>         0.4250
@<TRIPOS>BOND
     1    1    2 1
     2    1   24 1
     3    1   25 1
     4    1   26 1
     5    2    7 1
     6    2    3 1
     7    2   43 1
     8    3    4 1
     9    3   27 1
    10    3   28 1
    11    4    5 1
    12    4   29 1
    13    4   30 1
    14    5    6 1
    15    5    8 1
    16    6    7 1
    17    6   31 1
    18    6   32 1
    19    7   33 1
    20    7   34 1
    21    8   18 1
    22    8    9 2
    23    9   10 1
    24   10   15 ar
    25   10   11 ar
    26   11   12 ar
    27   11   35 1
    28   12   13 ar
    29   12   23 1
    30   13   14 ar
    31   13   36 1
    32   14   15 ar
    33   14   37 1
    34   15   16 1
    35   16   17 1
    36   16   38 1
    37   17   22 ar
    38   17   18 ar
    39   18   19 ar
    40   19   20 ar
    41   19   39 1
    42   20   21 ar
    43   20   40 1
    44   21   22 ar
    45   21   41 1
    46   22   42 1
@<TRIPOS>MOLECULE
ZINC03786156
   21    21     0     0     0
SMALL
USER_CHARGES
methyl 1,4,5,6-tetrahydropyrimidine-5-carboxylate
@<TRIPOS>ATOM
      1 C1         -0.0176    1.4478    0.0100 C.3       1 <0>         0.0338
      2 O1          0.0021   -0.0041    0.0020 O.3       1 <0>        -0.3519
      3 C2          0.6181   -0.6108    1.0287 C.2       1 <0>         0.4729
      4 O2          1.1242    0.0494    1.9050 O.2       1 <0>        -0.4790
      5 C3          0.6786   -2.1154    1.0883 C.3       1 <0>        -0.1161
      6 H1          1.1904   -2.4976    0.2051 H         1 <0>         0.1404
      7 C4          1.4325   -2.5533    2.3534 C.3       1 <0>         0.0888
      8 N1          1.4356   -4.0243    2.3746 N.pl3     1 <0>        -0.6512
      9 C5          0.2889   -4.6908    2.0332 C.cat     1 <0>         0.5013
     10 C6         -0.7400   -2.6864    1.1506 C.3       1 <0>         0.0711
     11 H2          1.0050    1.8251    0.0023 H         1 <0>         0.0730
     12 H3         -0.5448    1.8089   -0.8731 H         1 <0>         0.1143
     13 H4         -0.5278    1.7993    0.9068 H         1 <0>         0.0722
     14 H5          2.4564   -2.1808    2.3224 H         1 <0>         0.1344
     15 H6          0.9253   -2.1698    3.2387 H         1 <0>         0.1175
     16 H7          2.2349   -4.5131    2.6261 H         1 <0>         0.4550
     17 H8          0.2204   -5.7479    2.2436 H         1 <0>         0.2227
     18 H9         -1.3073   -2.1572    1.9162 H         1 <0>         0.1162
     19 H10        -1.2257   -2.5486    0.1845 H         1 <0>         0.1329
     20 N2         -0.7825   -4.1645    1.4520 N.pl3     1 <0>        -0.6270
     21 H11        -1.6023   -4.7368    1.2182 H         1 <0>         0.4786
@<TRIPOS>BOND
     1    1    2 1
     2    1   11 1
     3    1   12 1
     4    1   13 1
     5    2    3 1
     6    3    4 2
     7    3    5 1
     8    5    6 1
     9    5   10 1
    10    5    7 1
    11    7    8 1
    12    7   14 1
    13    7   15 1
    14    8    9 1
    15    8   16 1
    16    9   17 1
    17    9   20 2
    18   10   18 1
    19   10   19 1
    20   10   20 1
    21   20   21 1
@<TRIPOS>MOLECULE
ZINC13738330
   21    21     0     0     0
SMALL
USER_CHARGES
methyl (5R)-1,4,5,6-tetrahydropyrimidine-5-carboxylate
@<TRIPOS>ATOM
      1 C1         -3.7794    5.5037   -1.6828 C.3       1 <0>         0.0339
      2 O1         -2.5238    4.7758   -1.7294 O.3       1 <0>        -0.3519
      3 C2         -2.4251    3.6812   -0.9588 C.2       1 <0>         0.4731
      4 O2         -3.3570    3.3424   -0.2683 O.2       1 <0>        -0.4789
      5 C3         -1.1521    2.8747   -0.9550 C.3       1 <0>        -0.1161
      6 H1         -0.9533    2.4976   -1.9582 H         1 <0>         0.1402
      7 C4         -1.2871    1.6978    0.0173 C.3       1 <0>         0.0884
      8 N1         -0.0111    0.9658    0.0074 N.pl3     1 <0>        -0.6508
      9 C5          1.1579    1.6794    0.0000 C.cat     1 <0>         0.5011
     10 C6          0.0134    3.7533   -0.4942 C.3       1 <0>         0.0712
     11 H2         -3.9640    5.8449   -0.6642 H         1 <0>         0.0723
     12 H3         -3.7256    6.3640   -2.3500 H         1 <0>         0.1143
     13 H4         -4.5911    4.8486   -1.9993 H         1 <0>         0.0730
     14 H5         -2.0941    1.0406   -0.3066 H         1 <0>         0.1346
     15 H6         -1.4923    2.0716    1.0204 H         1 <0>         0.1170
     16 H7          0.0021   -0.0041    0.0020 H         1 <0>         0.4551
     17 H8          2.0845    1.1601    0.1957 H         1 <0>         0.2227
     18 H9         -0.2717    4.2800    0.4165 H         1 <0>         0.1162
     19 H10         0.2447    4.4808   -1.2722 H         1 <0>         0.1330
     20 N2          1.2826    2.9812   -0.2288 N.pl3     1 <0>        -0.6271
     21 H11         2.2004    3.4415   -0.2254 H         1 <0>         0.4786
@<TRIPOS>BOND
     1    1    2 1
     2    1   11 1
     3    1   12 1
     4    1   13 1
     5    2    3 1
     6    3    4 2
     7    3    5 1
     8    5    6 1
     9    5   10 1
    10    5    7 1
    11    7    8 1
    12    7   14 1
    13    7   15 1
    14    8    9 1
    15    8   16 1
    16    9   17 1
    17    9   20 2
    18   10   18 1
    19   10   19 1
    20   10   20 1
    21   20   21 1
@<TRIPOS>MOLECULE
ZINC03786169
   24    24     0     0     0
SMALL
USER_CHARGES
ethyl 1,4,5,6-tetrahydropyrimidine-5-carboxylate
@<TRIPOS>ATOM
      1 C1         -0.0187    1.5258    0.0104 C.3       1 <0>        -0.1573
      2 C2          0.0021   -0.0041    0.0020 C.3       1 <0>         0.0634
      3 O1         -1.3601   -0.5067    0.0123 O.3       1 <0>        -0.3518
      4 C3         -1.5179   -1.8396    0.0067 C.2       1 <0>         0.4747
      5 O2         -0.5499   -2.5625   -0.0065 O.2       1 <0>        -0.4803
      6 C4         -2.9025   -2.4345    0.0167 C.3       1 <0>        -0.1163
      7 H1         -3.4508   -2.1032   -0.8652 H         1 <0>         0.1400
      8 C5         -2.8070   -3.9679    0.0209 C.3       1 <0>         0.0888
      9 N1         -4.1808   -4.4926    0.0600 N.pl3     1 <0>        -0.6510
     10 C6         -5.0923   -3.8920    0.8872 C.cat     1 <0>         0.5010
     11 C7         -3.6441   -1.9934    1.2808 C.3       1 <0>         0.0713
     12 H2          1.0039    1.9031    0.0027 H         1 <0>         0.0898
     13 H3         -0.5459    1.8868   -0.8726 H         1 <0>         0.0705
     14 H4         -0.5289    1.8773    0.9072 H         1 <0>         0.0695
     15 H5          0.5123   -0.3556   -0.8948 H         1 <0>         0.0793
     16 H6          0.5293   -0.3651    0.8851 H         1 <0>         0.0787
     17 H7         -2.3049   -4.3106   -0.8839 H         1 <0>         0.1345
     18 H8         -2.2559   -4.3026    0.8998 H         1 <0>         0.1174
     19 H9         -4.4363   -5.2500   -0.4895 H         1 <0>         0.4549
     20 H10        -6.0310   -4.3918    1.0755 H         1 <0>         0.2226
     21 H11        -3.0027   -2.1521    2.1477 H         1 <0>         0.1160
     22 H12        -3.8873   -0.9337    1.2036 H         1 <0>         0.1328
     23 N2         -4.9458   -2.7246    1.5025 N.pl3     1 <0>        -0.6271
     24 H13        -5.6840   -2.3370    2.1016 H         1 <0>         0.4784
@<TRIPOS>BOND
     1    1    2 1
     2    1   12 1
     3    1   13 1
     4    1   14 1
     5    2    3 1
     6    2   15 1
     7    2   16 1
     8    3    4 1
     9    4    5 2
    10    4    6 1
    11    6    7 1
    12    6   11 1
    13    6    8 1
    14    8    9 1
    15    8   17 1
    16    8   18 1
    17    9   10 1
    18    9   19 1
    19   10   20 1
    20   10   23 2
    21   11   21 1
    22   11   22 1
    23   11   23 1
    24   23   24 1
@<TRIPOS>MOLECULE
ZINC13738331
   24    24     0     0     0
SMALL
USER_CHARGES
ethyl (5R)-1,4,5,6-tetrahydropyrimidine-5-carboxylate
@<TRIPOS>ATOM
      1 C1         -0.7527    1.5927   -1.2315 C.3       1 <0>        -0.1573
      2 C2         -0.0127    1.0858    0.0080 C.3       1 <0>         0.0634
      3 O1         -0.6923    1.5541    1.2026 O.3       1 <0>        -0.3518
      4 C3         -0.1661    1.1940    2.3838 C.2       1 <0>         0.4747
      5 O2          0.8294    0.5102    2.4184 O.2       1 <0>        -0.4803
      6 C4         -0.8170    1.6426    3.6668 C.3       1 <0>        -0.1163
      7 H1         -0.8326    2.7317    3.7093 H         1 <0>         0.1401
      8 C5         -0.0326    1.0891    4.8663 C.3       1 <0>         0.0888
      9 N1         -0.7262    1.5320    6.0857 N.pl3     1 <0>        -0.6510
     10 C6         -2.0944    1.4829    6.1204 C.cat     1 <0>         0.5011
     11 C7         -2.2478    1.1035    3.7351 C.3       1 <0>         0.0714
     12 H2         -1.7753    1.2154   -1.2238 H         1 <0>         0.0695
     13 H3         -0.7675    2.6825   -1.2255 H         1 <0>         0.0705
     14 H4         -0.2425    1.2411   -2.1283 H         1 <0>         0.0898
     15 H5          0.0021   -0.0041    0.0020 H         1 <0>         0.0787
     16 H6          1.0099    1.4631    0.0003 H         1 <0>         0.0793
     17 H7         -0.0130   -0.0000    4.8257 H         1 <0>         0.1172
     18 H8          0.9854    1.4786    4.8552 H         1 <0>         0.1346
     19 H9         -0.2238    1.8525    6.8511 H         1 <0>         0.4549
     20 H10        -2.5946    1.6067    7.0695 H         1 <0>         0.2226
     21 H11        -2.8656    1.6304    3.0080 H         1 <0>         0.1328
     22 H12        -2.2428    0.0396    3.4979 H         1 <0>         0.1160
     23 N2         -2.9007    1.2949    5.0824 N.pl3     1 <0>        -0.6271
     24 H13        -3.9216    1.2805    5.1912 H         1 <0>         0.4784
@<TRIPOS>BOND
     1    1    2 1
     2    1   12 1
     3    1   13 1
     4    1   14 1
     5    2    3 1
     6    2   15 1
     7    2   16 1
     8    3    4 1
     9    4    5 2
    10    4    6 1
    11    6    7 1
    12    6   11 1
    13    6    8 1
    14    8    9 1
    15    8   17 1
    16    8   18 1
    17    9   10 1
    18    9   19 1
    19   10   20 1
    20   10   23 2
    21   11   21 1
    22   11   22 1
    23   11   23 1
    24   23   24 1
@<TRIPOS>MOLECULE
ZINC13741159
   25    26     0     0     0
SMALL
USER_CHARGES
1-oxa-8-azaspiro[4.5]decan-3-one
@<TRIPOS>ATOM
      1 C1         -0.0127    1.0858    0.0080 C.3       1 <0>        -0.1390
      2 C2         -0.7309    1.5804    1.2665 C.3       1 <0>        -0.0004
      3 C3         -1.5448    3.5471    0.1045 C.3       1 <0>         0.0014
      4 C4         -0.8520    3.1169   -1.1913 C.3       1 <0>        -0.1609
      5 C5         -0.7532    1.5927   -1.2285 C.3       1 <0>         0.0894
      6 C6         -0.0119    1.1482   -2.5007 C.3       1 <0>        -0.2024
      7 C7         -1.0397    0.3202   -3.2644 C.2       1 <0>         0.3455
      8 O1         -0.8534   -0.5144   -4.1171 O.2       1 <0>        -0.3928
      9 C8         -2.3625    0.8093   -2.6816 C.3       1 <0>         0.0033
     10 O2         -2.0674    1.0177   -1.2831 O.3       1 <0>        -0.3437
     11 H1          0.0021   -0.0041    0.0020 H         1 <0>         0.1219
     12 H2          1.0097    1.4637    0.0003 H         1 <0>         0.1058
     13 H3         -1.7452    1.1818    1.2862 H         1 <0>         0.1372
     14 H4         -0.1902    1.2415    2.1502 H         1 <0>         0.1360
     15 H5         -1.5946    4.6352    0.1459 H         1 <0>         0.1350
     16 H6         -2.5539    3.1359    0.1307 H         1 <0>         0.1365
     17 H7          0.1487    3.5475   -1.2293 H         1 <0>         0.1037
     18 H8         -1.4306    3.4651   -2.0469 H         1 <0>         0.1175
     19 H9          0.2872    1.9545   -3.0111 H         1 <0>         0.1118
     20 H10         0.8543    0.5383   -2.2439 H         1 <0>         0.1164
     21 H11        -2.6423    1.6483   -3.1482 H         1 <0>         0.0955
     22 H12        -3.1367    0.0514   -2.8006 H         1 <0>         0.1285
     23 N1         -0.7771    3.0555    1.2651 N.4       1 <0>        -0.5164
     24 H13         0.1803    3.4235    1.2175 H         1 <0>         0.4312
     25 H14        -1.2260    3.3803    2.1295 H         1 <0>         0.4390
@<TRIPOS>BOND
     1    1    5 1
     2    1    2 1
     3    1   11 1
     4    1   12 1
     5    2   13 1
     6    2   14 1
     7    2   23 1
     8    3    4 1
     9    3   15 1
    10    3   16 1
    11    3   23 1
    12    4    5 1
    13    4   17 1
    14    4   18 1
    15    5   10 1
    16    5    6 1
    17    6    7 1
    18    6   19 1
    19    6   20 1
    20    7    8 2
    21    7    9 1
    22    9   10 1
    23    9   21 1
    24    9   22 1
    25   23   24 1
    26   23   25 1
@<TRIPOS>MOLECULE
ZINC00075008
   32    33     0     0     0
SMALL
USER_CHARGES

@<TRIPOS>ATOM
      1 C1         -0.0187    1.5258    0.0104 C.3       1 <0>        -0.1692
      2 C2          0.0021   -0.0041    0.0020 C.3       1 <0>        -0.1119
      3 C3          0.7421   -0.5109    1.2415 C.3       1 <0>        -0.1479
      4 H1          0.3057   -0.0870    2.1460 H         1 <0>         0.1287
      5 C4          0.7115   -2.0596    1.2975 C.3       1 <0>        -0.1233
      6 H2          0.6061   -2.4144    2.3227 H         1 <0>         0.1134
      7 C5          2.1164   -2.3969    0.7292 C.3       1 <0>         0.0516
      8 O1          2.9309   -1.3180    1.2350 O.3       1 <0>        -0.3401
      9 C6          2.2184   -0.1737    1.1547 C.2       1 <0>         0.4815
     10 O2          2.6790    0.9365    1.0319 O.2       1 <0>        -0.4208
     11 C7         -0.3962   -2.6229    0.4051 C.3       1 <0>        -0.0523
     12 C8         -0.4722   -4.1176    0.5817 C.2       1 <0>         0.0491
     13 C9         -1.1569   -4.7798    1.5337 C.2       1 <0>         0.0090
     14 N1         -0.9664   -6.0938    1.3437 N.pl3     1 <0>        -0.4734
     15 C10        -0.1897   -6.2711    0.3101 C.cat     1 <0>         0.2921
     16 N2          0.1367   -5.0634   -0.1984 N.pl3     1 <0>        -0.4081
     17 C11         0.9865   -4.8122   -1.3650 C.3       1 <0>         0.0465
     18 H3          1.0039    1.9031    0.0027 H         1 <0>         0.0730
     19 H4         -0.5459    1.8868   -0.8726 H         1 <0>         0.0645
     20 H5         -0.5289    1.8773    0.9072 H         1 <0>         0.0616
     21 H6         -1.0205   -0.3814    0.0098 H         1 <0>         0.0832
     22 H7          0.5123   -0.3556   -0.8948 H         1 <0>         0.0669
     23 H8          2.4668   -3.3565    1.1094 H         1 <0>         0.1088
     24 H9          2.1035   -2.3932   -0.3607 H         1 <0>         0.0818
     25 H10        -1.3502   -2.1752    0.6837 H         1 <0>         0.1267
     26 H11        -0.1766   -2.3909   -0.6370 H         1 <0>         0.1041
     27 H12        -1.7546   -4.3313    2.3135 H         1 <0>         0.2243
     28 H13         0.1349   -7.2257   -0.0769 H         1 <0>         0.2626
     29 H14         2.0244   -4.7197   -1.0453 H         1 <0>         0.1126
     30 H15         0.8950   -5.6415   -2.0664 H         1 <0>         0.1212
     31 H16         0.6724   -3.8887   -1.8512 H         1 <0>         0.1168
     32 H17        -1.3459   -6.8007    1.8888 H         1 <0>         0.4669
@<TRIPOS>BOND
     1    1    2 1
     2    1   18 1
     3    1   19 1
     4    1   20 1
     5    2    3 1
     6    2   21 1
     7    2   22 1
     8    3    4 1
     9    3    9 1
    10    3    5 1
    11    5    6 1
    12    5    7 1
    13    5   11 1
    14    7    8 1
    15    7   23 1
    16    7   24 1
    17    8    9 1
    18    9   10 2
    19   11   12 1
    20   11   25 1
    21   11   26 1
    22   12   16 1
    23   12   13 2
    24   13   14 1
    25   13   27 1
    26   14   15 2
    27   14   32 1
    28   15   16 1
    29   15   28 1
    30   16   17 1
    31   17   29 1
    32   17   30 1
    33   17   31 1
@<TRIPOS>MOLECULE
ZINC00075008
   31    32     0     0     0
SMALL
USER_CHARGES

@<TRIPOS>ATOM
      1 C1         -0.0187    1.5258    0.0104 C.3       1 <0>        -0.1655
      2 C2          0.0021   -0.0041    0.0020 C.3       1 <0>        -0.1099
      3 C3          0.7182   -0.4975   -1.2568 C.3       1 <0>        -0.1502
      4 H1          1.7087   -0.0489   -1.3325 H         1 <0>         0.1225
      5 C4          0.8208   -2.0441   -1.2529 C.3       1 <0>        -0.1162
      6 H2          1.7701   -2.3766   -1.6729 H         1 <0>         0.1082
      7 C5         -0.3648   -2.4146   -2.1843 C.3       1 <0>         0.0561
      8 O1         -0.3610   -1.3385   -3.1463 O.3       1 <0>        -0.3457
      9 C6         -0.1032   -0.1851   -2.4931 C.2       1 <0>         0.4842
     10 O2         -0.4675    0.9151   -2.8345 O.2       1 <0>        -0.4382
     11 C7          0.6159   -2.6078    0.1546 C.3       1 <0>        -0.0312
     12 C8          0.8442   -4.0973    0.1373 C.2       1 <0>        -0.0343
     13 C9          2.0273   -4.7295    0.2567 C.2       1 <0>        -0.0169
     14 N1          1.8006   -6.0499    0.1913 N.2       1 <0>        -0.4919
     15 C10         0.5220   -6.2599    0.0360 C.2       1 <0>         0.1849
     16 N2         -0.1117   -5.0679    0.0033 N.pl3     1 <0>        -0.4594
     17 C11        -1.5528   -4.8533   -0.1503 C.3       1 <0>         0.0647
     18 H3          1.0039    1.9031    0.0027 H         1 <0>         0.0585
     19 H4         -0.5459    1.8868   -0.8726 H         1 <0>         0.0703
     20 H5         -0.5289    1.8773    0.9072 H         1 <0>         0.0597
     21 H6          0.5293   -0.3651    0.8851 H         1 <0>         0.0843
     22 H7         -1.0205   -0.3814    0.0098 H         1 <0>         0.0649
     23 H8         -0.1867   -3.3717   -2.6745 H         1 <0>         0.1115
     24 H9         -1.3021   -2.4325   -1.6283 H         1 <0>         0.0791
     25 H10         1.3226   -2.1398    0.8399 H         1 <0>         0.1014
     26 H11        -0.4020   -2.4001    0.4846 H         1 <0>         0.0781
     27 H12         2.9898   -4.2563    0.3829 H         1 <0>         0.1692
     28 H13         0.0486   -7.2270   -0.0483 H         1 <0>         0.2058
     29 H14        -1.7970   -4.7706   -1.2094 H         1 <0>         0.0786
     30 H15        -2.0935   -5.6949    0.2826 H         1 <0>         0.0920
     31 H16        -1.8400   -3.9349    0.3617 H         1 <0>         0.0854
@<TRIPOS>BOND
     1    1    2 1
     2    1   18 1
     3    1   19 1
     4    1   20 1
     5    2    3 1
     6    2   21 1
     7    2   22 1
     8    3    4 1
     9    3    9 1
    10    3    5 1
    11    5    6 1
    12    5    7 1
    13    5   11 1
    14    7    8 1
    15    7   23 1
    16    7   24 1
    17    8    9 1
    18    9   10 2
    19   11   12 1
    20   11   25 1
    21   11   26 1
    22   12   16 1
    23   12   13 2
    24   13   14 1
    25   13   27 1
    26   14   15 2
    27   15   16 1
    28   15   28 1
    29   16   17 1
    30   17   29 1
    31   17   30 1
    32   17   31 1
@<TRIPOS>MOLECULE
ZINC00004140
   33    34     0     0     0
SMALL
USER_CHARGES
3,8-dimethyl-2-methylene-4-oxa-8-azaspiro[4.5]decane
@<TRIPOS>ATOM
      1 C1         -0.7693    1.6007   -1.2181 C.3       1 <0>        -0.1518
      2 C2         -0.0127    1.0858    0.0080 C.3       1 <0>         0.1065
      3 H1          0.0021   -0.0041    0.0020 H         1 <0>         0.0800
      4 C3         -0.6833    1.5839    1.2743 C.2       1 <0>        -0.1757
      5 C4         -1.9189    1.3780    1.6576 C.2       1 <0>        -0.1419
      6 C5          0.3964    2.3766    2.0035 C.3       1 <0>        -0.1129
      7 C6          1.6912    1.8260    1.3701 C.3       1 <0>         0.0925
      8 O1          1.3340    1.5917   -0.0021 O.3       1 <0>        -0.3558
      9 C7          2.8067    2.8592    1.4662 C.3       1 <0>        -0.1332
     10 C8          4.0915    2.2760    0.8700 C.3       1 <0>         0.0008
     11 C9          3.4070    0.0187    1.4334 C.3       1 <0>         0.0031
     12 C10         2.0987    0.5242    2.0490 C.3       1 <0>        -0.1609
     13 C11         5.7540    0.5380    1.1458 C.3       1 <0>        -0.0415
     14 H2         -0.2806    1.2417   -2.1238 H         1 <0>         0.0676
     15 H3         -1.7963    1.2365   -1.1907 H         1 <0>         0.0758
     16 H4         -0.7701    2.6907   -1.2133 H         1 <0>         0.0662
     17 H5         -2.5850    0.7923    1.0414 H         1 <0>         0.1130
     18 H6         -2.2715    1.7939    2.5898 H         1 <0>         0.1137
     19 H7          0.3711    2.1726    3.0739 H         1 <0>         0.0918
     20 H8          0.2926    3.4439    1.8083 H         1 <0>         0.0969
     21 H9          2.5224    3.7540    0.9125 H         1 <0>         0.1209
     22 H10         2.9751    3.1164    2.5119 H         1 <0>         0.1024
     23 H11         4.8998    3.0004    0.9694 H         1 <0>         0.1310
     24 H12         3.9330    2.0505   -0.1846 H         1 <0>         0.1359
     25 H13         3.7189   -0.8939    1.9415 H         1 <0>         0.1297
     26 H14         3.2539   -0.1891    0.3744 H         1 <0>         0.1341
     27 H15         2.2423    0.6996    3.1152 H         1 <0>         0.0992
     28 H16         1.3168   -0.2214    1.9048 H         1 <0>         0.1150
     29 H17         5.6975    0.2510    0.0957 H         1 <0>         0.1230
     30 H18         6.5060    1.3173    1.2695 H         1 <0>         0.1223
     31 H19         6.0283   -0.3300    1.7454 H         1 <0>         0.1216
     32 N1          4.4507    1.0506    1.6159 N.4       1 <0>        -0.3958
     33 H20         4.5226    1.2781    2.6146 H         1 <0>         0.4269
@<TRIPOS>BOND
     1    1    2 1
     2    1   14 1
     3    1   15 1
     4    1   16 1
     5    2    3 1
     6    2    8 1
     7    2    4 1
     8    4    5 2
     9    4    6 1
    10    5   17 1
    11    5   18 1
    12    6    7 1
    13    6   19 1
    14    6   20 1
    15    7   12 1
    16    7    8 1
    17    7    9 1
    18    9   10 1
    19    9   21 1
    20    9   22 1
    21   10   23 1
    22   10   24 1
    23   10   32 1
    24   11   12 1
    25   11   25 1
    26   11   26 1
    27   11   32 1
    28   12   27 1
    29   12   28 1
    30   13   29 1
    31   13   30 1
    32   13   31 1
    33   13   32 1
    34   32   33 1
@<TRIPOS>MOLECULE
ZINC03790076
   33    34     0     0     0
SMALL
USER_CHARGES
3,8-dimethyl-2-methylene-4-oxa-8-azaspiro[4.5]decane
@<TRIPOS>ATOM
      1 C1         -0.6525   -0.5385    1.2775 C.3       1 <0>        -0.1749
      2 C2          0.0021   -0.0041    0.0020 C.3       1 <0>         0.1037
      3 H1         -0.4429   -0.4832   -0.8701 H         1 <0>         0.1082
      4 C3         -0.1892    1.4984   -0.0832 C.2       1 <0>        -0.1744
      5 C4         -1.3189    2.1560   -0.1682 C.2       1 <0>        -0.1417
      6 C5          1.2223    2.0751   -0.0551 C.3       1 <0>        -0.1132
      7 C6          2.0361    0.9196    0.5641 C.3       1 <0>         0.0930
      8 O1          1.4167   -0.2641    0.0342 O.3       1 <0>        -0.3534
      9 C7          3.4928    1.0059    0.1260 C.3       1 <0>        -0.1334
     10 C8          4.2887   -0.1247    0.7852 C.3       1 <0>         0.0008
     11 C9          2.7727   -0.1784    2.6773 C.3       1 <0>         0.0030
     12 C10         1.9247    0.9504    2.0833 C.3       1 <0>        -0.1739
     13 C11         5.0395   -0.9944    2.9162 C.3       1 <0>        -0.0416
     14 H2         -1.7322   -0.5913    1.1371 H         1 <0>         0.0761
     15 H3         -0.2653   -1.5340    1.4949 H         1 <0>         0.0693
     16 H4         -0.4264    0.1289    2.1090 H         1 <0>         0.0625
     17 H5         -2.2562    1.6196   -0.1832 H         1 <0>         0.1131
     18 H6         -1.3131    3.2346   -0.2233 H         1 <0>         0.1138
     19 H7          1.5705    2.2979   -1.0637 H         1 <0>         0.0973
     20 H8          1.2663    2.9624    0.5765 H         1 <0>         0.0916
     21 H9          3.5530    0.9090   -0.9580 H         1 <0>         0.1210
     22 H10         3.9074    1.9673    0.4293 H         1 <0>         0.1021
     23 H11         5.3379   -0.0442    0.5010 H         1 <0>         0.1309
     24 H12         3.8955   -1.0863    0.4552 H         1 <0>         0.1357
     25 H13         2.7225   -0.1367    3.7654 H         1 <0>         0.1292
     26 H14         2.3914   -1.1395    2.3325 H         1 <0>         0.1340
     27 H15         2.2846    1.9098    2.4549 H         1 <0>         0.0980
     28 H16         0.8831    0.8146    2.3744 H         1 <0>         0.1254
     29 H17         4.7103   -2.0049    2.6738 H         1 <0>         0.1230
     30 H18         6.0664   -0.8559    2.5780 H         1 <0>         0.1222
     31 H19         4.9888   -0.8446    3.9946 H         1 <0>         0.1215
     32 N1          4.1778    0.0064    2.2540 N.4       1 <0>        -0.3957
     33 H20         4.4870    0.9463    2.5284 H         1 <0>         0.4267
@<TRIPOS>BOND
     1    1    2 1
     2    1   14 1
     3    1   15 1
     4    1   16 1
     5    2    3 1
     6    2    8 1
     7    2    4 1
     8    4    5 2
     9    4    6 1
    10    5   17 1
    11    5   18 1
    12    6    7 1
    13    6   19 1
    14    6   20 1
    15    7   12 1
    16    7    8 1
    17    7    9 1
    18    9   10 1
    19    9   21 1
    20    9   22 1
    21   10   23 1
    22   10   24 1
    23   10   32 1
    24   11   12 1
    25   11   25 1
    26   11   26 1
    27   11   32 1
    28   12   27 1
    29   12   28 1
    30   13   29 1
    31   13   30 1
    32   13   31 1
    33   13   32 1
    34   32   33 1
@<TRIPOS>MOLECULE
ZINC00057479
   49    52     0     0     0
SMALL
USER_CHARGES
quinuclidin-3-yl 2-hydroxy-2,2-diphenyl-acetate
@<TRIPOS>ATOM
      1 C1          0.1683   -0.8233   -3.3647 C.ar      1 <0>        -0.1003
      2 C2         -0.5192   -0.9452   -2.1717 C.ar      1 <0>        -0.1206
      3 C3         -0.1575   -0.1733   -1.0835 C.ar      1 <0>        -0.0993
      4 C4          0.8920    0.7203   -1.1882 C.ar      1 <0>        -0.1324
      5 C5          1.5761    0.8460   -2.3828 C.ar      1 <0>        -0.0766
      6 C6          1.2172    0.0709   -3.4697 C.ar      1 <0>        -0.1211
      7 C7          1.2864    1.5618   -0.0018 C.3       1 <0>         0.2537
      8 C8          1.0779    3.0183   -0.3276 C.ar      1 <0>        -0.0915
      9 C9          1.9720    3.6773   -1.1505 C.ar      1 <0>        -0.1148
     10 C10         1.7784    5.0122   -1.4529 C.ar      1 <0>        -0.1150
     11 C11         0.6958    5.6905   -0.9250 C.ar      1 <0>        -0.1030
     12 C12        -0.1954    5.0328   -0.0978 C.ar      1 <0>        -0.1175
     13 C13        -0.0042    3.6968    0.2010 C.ar      1 <0>        -0.0769
     14 C14         2.7383    1.3225    0.3233 C.2       1 <0>         0.4475
     15 O1          3.4953    0.9410   -0.5376 O.2       1 <0>        -0.4746
     16 O2          3.1905    1.5333    1.5694 O.3       1 <0>        -0.3268
     17 C15         4.6003    1.2824    1.8103 C.3       1 <0>         0.0725
     18 H1          5.1660    1.4714    0.8980 H         1 <0>         0.1212
     19 C16         4.7957   -0.1736    2.2430 C.3       1 <0>        -0.0183
     20 C17         6.7236    0.4252    3.5821 C.3       1 <0>        -0.0050
     21 C18         6.5842    1.9003    3.1846 C.3       1 <0>        -0.1343
     22 C19         5.1031    2.2054    2.9275 C.3       1 <0>        -0.0961
     23 C20         4.3106    1.8963    4.2073 C.3       1 <0>        -0.1364
     24 C21         4.5144    0.4236    4.5738 C.3       1 <0>        -0.0018
     25 O3          0.4812    1.2054    1.1237 O.3       1 <0>        -0.5215
     26 H2         -0.1138   -1.4269   -4.2147 H         1 <0>         0.1288
     27 H3         -1.3387   -1.6439   -2.0896 H         1 <0>         0.1300
     28 H4         -0.6946   -0.2686   -0.1514 H         1 <0>         0.1308
     29 H5          2.3932    1.5473   -2.4659 H         1 <0>         0.1272
     30 H6          1.7546    0.1660   -4.4017 H         1 <0>         0.1287
     31 H7          2.8200    3.1484   -1.5599 H         1 <0>         0.1216
     32 H8          2.4745    5.5259   -2.0994 H         1 <0>         0.1296
     33 H9          0.5460    6.7341   -1.1590 H         1 <0>         0.1298
     34 H10        -1.0413    5.5627    0.3146 H         1 <0>         0.1313
     35 H11        -0.7005    3.1830    0.8472 H         1 <0>         0.1367
     36 H12         3.8303   -0.6791    2.2650 H         1 <0>         0.1352
     37 H13         5.4542   -0.6778    1.5357 H         1 <0>         0.1413
     38 H14         7.1600    0.3561    4.5785 H         1 <0>         0.1344
     39 H15         7.3687   -0.0837    2.8660 H         1 <0>         0.1308
     40 H16         7.1588    2.0893    2.2779 H         1 <0>         0.1040
     41 H17         6.9534    2.5353    3.9899 H         1 <0>         0.1126
     42 H18         4.9674    3.2484    2.6414 H         1 <0>         0.1260
     43 H19         3.2513    2.0866    4.0350 H         1 <0>         0.1099
     44 H20         4.6675    2.5279    5.0208 H         1 <0>         0.1048
     45 H21         3.5511   -0.0864    4.5797 H         1 <0>         0.1294
     46 H22         4.9688    0.3540    5.5622 H         1 <0>         0.1320
     47 H23         0.5651    0.2796    1.3900 H         1 <0>         0.3858
     48 N1          5.4008   -0.2351    3.5909 N.4       1 <0>        -0.3881
     49 H24         5.5211   -1.2193    3.8576 H         1 <0>         0.4368
@<TRIPOS>BOND
     1    1    6 ar
     2    1    2 ar
     3    1   26 1
     4    2    3 ar
     5    2   27 1
     6    3    4 ar
     7    3   28 1
     8    4    5 ar
     9    4    7 1
    10    5    6 ar
    11    5   29 1
    12    6   30 1
    13    7    8 1
    14    7   14 1
    15    7   25 1
    16    8   13 ar
    17    8    9 ar
    18    9   10 ar
    19    9   31 1
    20   10   11 ar
    21   10   32 1
    22   11   12 ar
    23   11   33 1
    24   12   13 ar
    25   12   34 1
    26   13   35 1
    27   14   15 2
    28   14   16 1
    29   16   17 1
    30   17   18 1
    31   17   22 1
    32   17   19 1
    33   19   36 1
    34   19   37 1
    35   19   48 1
    36   20   21 1
    37   20   38 1
    38   20   39 1
    39   20   48 1
    40   21   22 1
    41   21   40 1
    42   21   41 1
    43   22   23 1
    44   22   42 1
    45   23   24 1
    46   23   43 1
    47   23   44 1
    48   24   45 1
    49   24   46 1
    50   24   48 1
    51   25   47 1
    52   48   49 1
@<TRIPOS>MOLECULE
ZINC06582254
   54    58     0     0     0
SMALL
USER_CHARGES
quinuclidin-3-yl 1-phenyl-3,4-dihydro-1H-isoquinoline-2-carboxylate
@<TRIPOS>ATOM
      1 C1         -2.0084    2.4613    3.5255 C.ar      1 <0>        -0.1085
      2 C2         -1.4131    3.3685    2.6691 C.ar      1 <0>        -0.1198
      3 C3         -0.7676    2.9234    1.5306 C.ar      1 <0>        -0.1027
      4 C4         -0.7165    1.5710    1.2491 C.ar      1 <0>        -0.1043
      5 C5         -1.3159    0.6642    2.1030 C.ar      1 <0>        -0.0997
      6 C6         -1.9577    1.1089    3.2437 C.ar      1 <0>        -0.1183
      7 C7         -0.0127    1.0858    0.0080 C.3       1 <0>         0.2459
      8 H1         -0.1577    0.0103   -0.0942 H         1 <0>         0.1179
      9 C8         -0.5848    1.7863   -1.1988 C.ar      1 <0>        -0.0936
     10 C9         -1.8701    1.4443   -1.5971 C.ar      1 <0>        -0.1013
     11 C10        -2.4516    2.0567   -2.6880 C.ar      1 <0>        -0.1137
     12 C11        -1.7486    3.0188   -3.3893 C.ar      1 <0>        -0.1083
     13 C12        -0.4704    3.3566   -2.9970 C.ar      1 <0>        -0.1178
     14 C13         0.1195    2.7385   -1.9007 C.ar      1 <0>        -0.0742
     15 C14         1.5217    3.1508   -1.5379 C.3       1 <0>        -0.0982
     16 C15         1.8435    2.7725   -0.0930 C.3       1 <0>         0.1005
     17 N1          1.4210    1.3773    0.1143 N.am      1 <0>        -0.5763
     18 C16         2.3153    0.4074    0.3901 C.2       1 <0>         0.6547
     19 O1          1.9394   -0.7362    0.5562 O.2       1 <0>        -0.5606
     20 O2          3.6250    0.7055    0.4814 O.3       1 <0>        -0.3536
     21 C17         4.5309   -0.3890    0.7811 C.3       1 <0>         0.0993
     22 H2          4.1239   -1.3190    0.3841 H         1 <0>         0.1249
     23 C18         4.7071   -0.5088    2.2976 C.3       1 <0>        -0.0195
     24 C19         6.9579   -1.3617    2.0241 C.3       1 <0>        -0.0049
     25 C20         6.8454   -1.2665    0.4999 C.3       1 <0>        -0.1336
     26 C21         5.8987   -0.1133    0.1441 C.3       1 <0>        -0.1008
     27 C22         6.4535    1.1942    0.7234 C.3       1 <0>        -0.1296
     28 C23         6.5859    1.0199    2.2556 C.3       1 <0>        -0.0050
     29 H3         -2.5128    2.8090    4.4149 H         1 <0>         0.1259
     30 H4         -1.4527    4.4251    2.8892 H         1 <0>         0.1255
     31 H5         -0.3028    3.6323    0.8614 H         1 <0>         0.1238
     32 H6         -1.2798   -0.3921    1.8807 H         1 <0>         0.1248
     33 H7         -2.4225    0.4001    3.9130 H         1 <0>         0.1267
     34 H8         -2.4189    0.6929   -1.0488 H         1 <0>         0.1246
     35 H9         -3.4516    1.7859   -2.9928 H         1 <0>         0.1286
     36 H10        -2.1994    3.5047   -4.2420 H         1 <0>         0.1275
     37 H11         0.0772    4.1080   -3.5464 H         1 <0>         0.1251
     38 H12         1.6201    4.2298   -1.6563 H         1 <0>         0.0938
     39 H13         2.2257    2.6522   -2.2042 H         1 <0>         0.0829
     40 H14         1.3011    3.4272    0.5892 H         1 <0>         0.0893
     41 H15         2.9155    2.8631    0.0820 H         1 <0>         0.0967
     42 H16         4.1084    0.2546    2.7946 H         1 <0>         0.1361
     43 H17         4.3819   -1.4964    2.6246 H         1 <0>         0.1424
     44 H18         6.6170   -2.3432    2.3533 H         1 <0>         0.1314
     45 H19         7.9966   -1.2183    2.3218 H         1 <0>         0.1335
     46 H20         6.4477   -2.2009    0.1040 H         1 <0>         0.1055
     47 H21         7.8292   -1.0772    0.0704 H         1 <0>         0.1120
     48 H22         5.7984   -0.0309   -0.9382 H         1 <0>         0.1247
     49 H23         7.4362    1.3948    0.2966 H         1 <0>         0.1038
     50 H24         5.7761    2.0148    0.4870 H         1 <0>         0.1079
     51 H25         5.9742    1.7723    2.7536 H         1 <0>         0.1278
     52 H26         7.6277    1.1438    2.5513 H         1 <0>         0.1319
     53 N2          6.1264   -0.3231    2.6689 N.4       1 <0>        -0.3881
     54 H27         6.2181   -0.4078    3.6881 H         1 <0>         0.4368
@<TRIPOS>BOND
     1    1    6 ar
     2    1    2 ar
     3    1   29 1
     4    2    3 ar
     5    2   30 1
     6    3    4 ar
     7    3   31 1
     8    4    5 ar
     9    4    7 1
    10    5    6 ar
    11    5   32 1
    12    6   33 1
    13    7    8 1
    14    7   17 1
    15    7    9 1
    16    9   14 ar
    17    9   10 ar
    18   10   11 ar
    19   10   34 1
    20   11   12 ar
    21   11   35 1
    22   12   13 ar
    23   12   36 1
    24   13   14 ar
    25   13   37 1
    26   14   15 1
    27   15   16 1
    28   15   38 1
    29   15   39 1
    30   16   17 1
    31   16   40 1
    32   16   41 1
    33   17   18 am
    34   18   19 2
    35   18   20 1
    36   20   21 1
    37   21   22 1
    38   21   26 1
    39   21   23 1
    40   23   42 1
    41   23   43 1
    42   23   53 1
    43   24   25 1
    44   24   44 1
    45   24   45 1
    46   24   53 1
    47   25   26 1
    48   25   46 1
    49   25   47 1
    50   26   27 1
    51   26   48 1
    52   27   28 1
    53   27   49 1
    54   27   50 1
    55   28   51 1
    56   28   52 1
    57   28   53 1
    58   53   54 1
@<TRIPOS>MOLECULE
ZINC00968257
   45    47     0     0     0
SMALL
USER_CHARGES

@<TRIPOS>ATOM
      1 C1         -0.0178    1.4648    0.0101 C.3       1 <0>        -0.0532
      2 N1          0.0021   -0.0041    0.0020 N.4       1 <0>        -0.3871
      3 C2         -1.3761   -0.5125    0.0124 C.3       1 <0>        -0.0473
      4 C3          0.6897   -0.4778   -1.2066 C.3       1 <0>        -0.0075
      5 C4          2.1588   -0.0534   -1.1571 C.3       1 <0>        -0.1202
      6 C5          2.8641   -0.5394   -2.3970 C.2       1 <0>        -0.1679
      7 C6          3.5250    0.3270   -3.1738 C.2       1 <0>         0.0063
      8 C7          3.5927    1.7771   -2.8453 C.ar      1 <0>        -0.0588
      9 C8          4.0673    2.1470   -1.5880 C.ar      1 <0>        -0.1130
     10 C9          4.1752    3.4781   -1.2462 C.ar      1 <0>        -0.1230
     11 C10         3.8096    4.4415   -2.1695 C.ar      1 <0>        -0.1074
     12 C11         3.3311    4.0773   -3.4068 C.ar      1 <0>        -0.1261
     13 C12         3.1954    2.7364   -3.7740 C.ar      1 <0>        -0.0534
     14 C13         2.5869    2.5170   -5.1377 C.3       1 <0>        -0.0764
     15 C14         2.3799    1.0595   -5.4939 C.3       1 <0>        -0.0807
     16 C15         3.6776    0.3005   -5.5991 C.ar      1 <0>        -0.0737
     17 C16         4.2334   -0.1117   -4.4047 C.ar      1 <0>        -0.0690
     18 C17         5.3905   -0.8775   -4.3777 C.ar      1 <0>        -0.0956
     19 C18         6.0025   -1.1900   -5.5806 C.ar      1 <0>        -0.1191
     20 C19         5.4694   -0.7426   -6.7762 C.ar      1 <0>        -0.1081
     21 C20         4.2868    0.0121   -6.7962 C.ar      1 <0>        -0.1083
     22 H1          1.0047    1.8421    0.0024 H         1 <0>         0.1238
     23 H2         -0.5450    1.8259   -0.8730 H         1 <0>         0.1221
     24 H3         -0.5280    1.8163    0.9069 H         1 <0>         0.1250
     25 H4         -1.9033   -0.1515   -0.8706 H         1 <0>         0.1216
     26 H5         -1.3613   -1.6024    0.0065 H         1 <0>         0.1236
     27 H6         -1.8863   -0.1610    0.9092 H         1 <0>         0.1246
     28 H7          0.6270   -1.5648   -1.2578 H         1 <0>         0.1321
     29 H8          0.2158   -0.0447   -2.0875 H         1 <0>         0.1294
     30 H9          2.2214    1.0336   -1.1059 H         1 <0>         0.0996
     31 H10         2.6326   -0.4865   -0.2761 H         1 <0>         0.0954
     32 H11         2.8363   -1.5868   -2.6585 H         1 <0>         0.1308
     33 H12         4.3519    1.3857   -0.8767 H         1 <0>         0.1233
     34 H13         4.5405    3.7651   -0.2712 H         1 <0>         0.1290
     35 H14         3.9003    5.4876   -1.9168 H         1 <0>         0.1264
     36 H15         3.0534    4.8470   -4.1116 H         1 <0>         0.1247
     37 H16         1.6223    3.0233   -5.1729 H         1 <0>         0.0854
     38 H17         3.2393    2.9678   -5.8855 H         1 <0>         0.0834
     39 H18         1.7604    0.5939   -4.7274 H         1 <0>         0.0703
     40 H19         1.8587    1.0007   -6.4494 H         1 <0>         0.0792
     41 H20         5.8038   -1.2219   -3.4413 H         1 <0>         0.1267
     42 H21         6.9025   -1.7870   -5.5850 H         1 <0>         0.1278
     43 H22         5.9677   -0.9772   -7.7052 H         1 <0>         0.1274
     44 H23         3.8663    0.3630   -7.7270 H         1 <0>         0.1314
     45 H24         0.4901   -0.3383    0.8195 H         1 <0>         0.4266
@<TRIPOS>BOND
     1    1    2 1
     2    1   22 1
     3    1   23 1
     4    1   24 1
     5    2    3 1
     6    2    4 1
     7    2   45 1
     8    3   25 1
     9    3   26 1
    10    3   27 1
    11    4    5 1
    12    4   28 1
    13    4   29 1
    14    5    6 1
    15    5   30 1
    16    5   31 1
    17    6    7 2
    18    6   32 1
    19    7   17 1
    20    7    8 1
    21    8   13 ar
    22    8    9 ar
    23    9   10 ar
    24    9   33 1
    25   10   11 ar
    26   10   34 1
    27   11   12 ar
    28   11   35 1
    29   12   13 ar
    30   12   36 1
    31   13   14 1
    32   14   15 1
    33   14   37 1
    34   14   38 1
    35   15   16 1
    36   15   39 1
    37   15   40 1
    38   16   21 ar
    39   16   17 ar
    40   17   18 ar
    41   18   19 ar
    42   18   41 1
    43   19   20 ar
    44   19   42 1
    45   20   21 ar
    46   20   43 1
    47   21   44 1
@<TRIPOS>MOLECULE
ZINC12466871
   48    50     0     0     0
SMALL
USER_CHARGES

@<TRIPOS>ATOM
      1 C1         -0.1271    1.4586   -0.0425 C.3       1 <0>        -0.0392
      2 N1          0.0021   -0.0041    0.0020 N.4       1 <0>        -0.2781
      3 C2         -1.3242   -0.6405    0.2202 C.3       1 <0>         0.0353
      4 H1         -2.1006   -0.2009   -0.4059 H         1 <0>         0.1479
      5 C3         -1.6015   -0.4337    1.7270 C.3       1 <0>        -0.1453
      6 C4         -0.2062   -0.2909    2.3698 C.3       1 <0>        -0.1379
      7 C5          0.7875   -0.4244    1.1929 C.3       1 <0>         0.0349
      8 H2          1.6793    0.1858    1.3352 H         1 <0>         0.1512
      9 C6          1.1136   -1.9165    1.0199 C.3       1 <0>        -0.1426
     10 C7         -0.1937   -2.7140    1.0289 C.3       1 <0>         0.0735
     11 C8         -1.1551   -2.1462   -0.0387 C.3       1 <0>        -0.1650
     12 O1         -0.7981   -2.6215    2.3205 O.3       1 <0>        -0.3368
     13 C9         -1.5402   -3.6653    2.7222 C.2       1 <0>         0.4591
     14 O2         -1.6722   -4.6258    2.0012 O.2       1 <0>        -0.4679
     15 C10        -2.2087   -3.6393    4.0726 C.3       1 <0>        -0.0382
     16 H3         -1.4520   -3.5391    4.8507 H         1 <0>         0.1280
     17 C11        -3.1718   -2.4525    4.1421 C.3       1 <0>         0.0875
     18 O3         -3.7180   -2.3587    5.4593 O.3       1 <0>        -0.5565
     19 C12        -2.9747   -4.9206    4.2787 C.ar      1 <0>        -0.0825
     20 C13        -3.9886   -5.2678    3.4056 C.ar      1 <0>        -0.0908
     21 C14        -4.6912   -6.4432    3.5947 C.ar      1 <0>        -0.1193
     22 C15        -4.3796   -7.2715    4.6566 C.ar      1 <0>        -0.1074
     23 C16        -3.3651   -6.9247    5.5292 C.ar      1 <0>        -0.1177
     24 C17        -2.6596   -5.7515    5.3376 C.ar      1 <0>        -0.0977
     25 C18         0.6235   -0.5058   -1.2309 C.3       1 <0>        -0.0571
     26 H4          0.8638    1.9094   -0.0961 H         1 <0>         0.1205
     27 H5         -0.7049    1.7457   -0.9210 H         1 <0>         0.1196
     28 H6         -0.6361    1.8059    0.8567 H         1 <0>         0.1206
     29 H7         -2.1862    0.4727    1.8842 H         1 <0>         0.0926
     30 H8         -2.1223   -1.2981    2.1390 H         1 <0>         0.1192
     31 H9         -0.1047    0.6858    2.8429 H         1 <0>         0.0940
     32 H10        -0.0408   -1.0850    3.0978 H         1 <0>         0.1303
     33 H11         1.6285   -2.0702    0.0716 H         1 <0>         0.1119
     34 H12         1.7495   -2.2487    1.8406 H         1 <0>         0.1224
     35 H13         0.0176   -3.7591    0.8024 H         1 <0>         0.1137
     36 H14        -2.1225   -2.6416    0.0432 H         1 <0>         0.1150
     37 H15        -0.7469   -2.3013   -1.0375 H         1 <0>         0.1113
     38 H16        -2.6345   -1.5342    3.9053 H         1 <0>         0.0590
     39 H17        -3.9787   -2.5969    3.4236 H         1 <0>         0.0541
     40 H18        -4.3387   -1.6266    5.5764 H         1 <0>         0.3903
     41 H19        -4.2320   -4.6207    2.5760 H         1 <0>         0.1125
     42 H20        -5.4838   -6.7141    2.9130 H         1 <0>         0.1247
     43 H21        -4.9291   -8.1894    4.8047 H         1 <0>         0.1264
     44 H22        -3.1219   -7.5717    6.3590 H         1 <0>         0.1275
     45 H23        -1.8645   -5.4824    6.0172 H         1 <0>         0.1232
     46 H24         1.6154   -0.0677   -1.3421 H         1 <0>         0.1233
     47 H25         0.7094   -1.5911   -1.1789 H         1 <0>         0.1282
     48 H26         0.0069   -0.2307   -2.0866 H         1 <0>         0.1222
@<TRIPOS>BOND
     1    1    2 1
     2    1   26 1
     3    1   27 1
     4    1   28 1
     5    2    7 1
     6    2    3 1
     7    2   25 1
     8    3    4 1
     9    3   11 1
    10    3    5 1
    11    5    6 1
    12    5   29 1
    13    5   30 1
    14    6    7 1
    15    6   31 1
    16    6   32 1
    17    7    8 1
    18    7    9 1
    19    9   10 1
    20    9   33 1
    21    9   34 1
    22   10   11 1
    23   10   12 1
    24   10   35 1
    25   11   36 1
    26   11   37 1
    27   12   13 1
    28   13   14 2
    29   13   15 1
    30   15   16 1
    31   15   17 1
    32   15   19 1
    33   17   18 1
    34   17   38 1
    35   17   39 1
    36   18   40 1
    37   19   24 ar
    38   19   20 ar
    39   20   21 ar
    40   20   41 1
    41   21   22 ar
    42   21   42 1
    43   22   23 ar
    44   22   43 1
    45   23   24 ar
    46   23   44 1
    47   24   45 1
    48   25   46 1
    49   25   47 1
    50   25   48 1
@<TRIPOS>MOLECULE
ZINC02041362
   37    37     0     0     0
SMALL
USER_CHARGES

@<TRIPOS>ATOM
      1 C1         -0.0181    1.4423    0.0156 C.3       1 <0>        -0.0477
      2 N1          0.0100   -0.0265    0.0146 N.4       1 <0>        -0.2739
      3 C2          0.7249   -0.5034    1.2061 C.3       1 <0>        -0.0477
      4 C3         -1.3653   -0.5426    0.0295 C.3       1 <0>        -0.0449
      5 C4          0.6985   -0.5022   -1.1927 C.3       1 <0>         0.1314
      6 C5          2.0766    0.0149   -1.2076 C.1       1 <0>        -0.2319
      7 C6          3.1757    0.4274   -1.2195 C.1       1 <0>        -0.0636
      8 C7          4.5538    0.9446   -1.2344 C.3       1 <0>         0.1831
      9 O1          5.2236    0.4818   -2.4088 O.3       1 <0>        -0.3576
     10 C8          6.5026    0.8682   -2.5755 C.2       1 <0>         0.6558
     11 O2          7.0355    1.5790   -1.7464 O.2       1 <0>        -0.5400
     12 N2          7.1917    0.4667   -3.6619 N.am      1 <0>        -0.6415
     13 C9          8.4877    0.9456   -3.8849 C.ar      1 <0>         0.1572
     14 C10         8.9270    1.1870   -5.1802 C.ar      1 <0>        -0.1312
     15 C11        10.2063    1.6595   -5.3977 C.ar      1 <0>        -0.0844
     16 C12        11.0506    1.8921   -4.3275 C.ar      1 <0>        -0.1150
     17 C13        10.6164    1.6528   -3.0356 C.ar      1 <0>        -0.0173
     18 C14         9.3347    1.1856   -2.8115 C.ar      1 <0>        -0.1120
     19 Cl1        11.6797    1.9456   -1.6949 Cl        1 <0>        -0.0555
     20 H1          1.0024    1.8252    0.0046 H         1 <0>         0.1184
     21 H2         -0.5485    1.7961   -0.8684 H         1 <0>         0.1246
     22 H3         -0.5290    1.7953    0.9115 H         1 <0>         0.1260
     23 H4          0.2140   -0.1503    2.1019 H         1 <0>         0.1260
     24 H5          0.7458   -1.5932    1.2053 H         1 <0>         0.1247
     25 H6          1.7454   -0.1204    1.1950 H         1 <0>         0.1184
     26 H7         -1.8957   -0.1887   -0.8545 H         1 <0>         0.1253
     27 H8         -1.3444   -1.6324    0.0288 H         1 <0>         0.1253
     28 H9         -1.8761   -0.1896    0.9253 H         1 <0>         0.1271
     29 H10         0.7194   -1.5920   -1.1934 H         1 <0>         0.1507
     30 H11         0.1681   -0.1484   -2.0767 H         1 <0>         0.1507
     31 H12         4.5329    2.0344   -1.2336 H         1 <0>         0.1120
     32 H13         5.0842    0.5907   -0.3504 H         1 <0>         0.1120
     33 H14         6.7895   -0.1542   -4.2893 H         1 <0>         0.4230
     34 H15         8.2687    1.0050   -6.0168 H         1 <0>         0.1368
     35 H16        10.5479    1.8472   -6.4049 H         1 <0>         0.1435
     36 H17        12.0508    2.2610   -4.5003 H         1 <0>         0.1406
     37 H18         8.9943    1.0031   -1.8029 H         1 <0>         0.1515
@<TRIPOS>BOND
     1    1    2 1
     2    1   20 1
     3    1   21 1
     4    1   22 1
     5    2    3 1
     6    2    4 1
     7    2    5 1
     8    3   23 1
     9    3   24 1
    10    3   25 1
    11    4   26 1
    12    4   27 1
    13    4   28 1
    14    5    6 1
    15    5   29 1
    16    5   30 1
    17    6    7 3
    18    7    8 1
    19    8    9 1
    20    8   31 1
    21    8   32 1
    22    9   10 1
    23   10   11 2
    24   10   12 am
    25   12   13 1
    26   12   33 1
    27   13   18 ar
    28   13   14 ar
    29   14   15 ar
    30   14   34 1
    31   15   16 ar
    32   15   35 1
    33   16   17 ar
    34   16   36 1
    35   17   18 ar
    36   17   19 1
    37   18   37 1
@<TRIPOS>MOLECULE
ZINC19632927
   48    51     0     0     0
SMALL
USER_CHARGES

@<TRIPOS>ATOM
      1 C1         -0.0178    1.4648    0.0101 C.3       1 <0>        -0.0455
      2 N1          0.0021   -0.0041    0.0020 N.4       1 <0>        -0.3894
      3 C2          0.6881   -0.4775   -1.2074 C.3       1 <0>        -0.0008
      4 C3          0.6925   -2.0076   -1.2257 C.3       1 <0>         0.0269
      5 N2          1.3783   -2.5070   -0.0254 N.3       1 <0>        -0.5225
      6 C4          0.7172   -2.0206    1.1938 C.3       1 <0>         0.0161
      7 C5          0.7125   -0.4904    1.1921 C.3       1 <0>         0.0015
      8 C6          1.4533   -3.9741   -0.0341 C.3       1 <0>         0.0426
      9 C7          2.3669   -4.4368    1.0715 C.2       1 <0>         0.5351
     10 O1          2.9027   -3.6245    1.7954 O.2       1 <0>        -0.4900
     11 N3          2.5885   -5.7534    1.2559 N.am      1 <0>        -0.5088
     12 C8          3.4268   -6.1930    2.2788 C.ar      1 <0>         0.1626
     13 C9          4.7558   -5.7953    2.3068 C.ar      1 <0>        -0.1029
     14 C10         5.5974   -6.2612    3.2975 C.ar      1 <0>        -0.0752
     15 C11         5.1221   -7.1293    4.2666 C.ar      1 <0>        -0.1148
     16 C12         3.8013   -7.5220    4.2622 C.ar      1 <0>        -0.0472
     17 C13         2.9321   -7.0440    3.2767 C.ar      1 <0>        -0.1388
     18 C14         1.5076   -7.3936    3.3274 C.2       1 <0>         0.5693
     19 O2          0.9941   -7.4628    4.4272 O.2       1 <0>        -0.5115
     20 N4          0.7308   -7.6402    2.2834 N.am      1 <0>        -0.6546
     21 C15         1.1049   -7.6466    0.9429 C.ar      1 <0>         0.1116
     22 C16         1.9766   -6.6982    0.4280 C.ar      1 <0>         0.3036
     23 N5          2.2523   -6.6867   -0.8690 N.ar      1 <0>        -0.4707
     24 C17         1.7527   -7.5835   -1.6967 C.ar      1 <0>         0.1138
     25 C18         0.9140   -8.5804   -1.2402 C.ar      1 <0>        -0.1334
     26 C19         0.5835   -8.6183    0.0940 C.ar      1 <0>        -0.0812
     27 H1          1.0047    1.8421    0.0024 H         1 <0>         0.1237
     28 H2         -0.5450    1.8259   -0.8730 H         1 <0>         0.1244
     29 H3         -0.5280    1.8163    0.9069 H         1 <0>         0.1243
     30 H4          0.1675   -0.1052   -2.0897 H         1 <0>         0.1384
     31 H5          1.7147   -0.1111   -1.2098 H         1 <0>         0.1397
     32 H6         -0.3339   -2.3742   -1.2371 H         1 <0>         0.0623
     33 H7          1.2146   -2.3592   -2.1156 H         1 <0>         0.1270
     34 H8         -0.3088   -2.3874    1.2222 H         1 <0>         0.0573
     35 H9          1.2573   -2.3817    2.0691 H         1 <0>         0.1369
     36 H10         1.7390   -0.1239    1.1774 H         1 <0>         0.1407
     37 H11         0.2100   -0.1276    2.0887 H         1 <0>         0.1368
     38 H12         0.4575   -4.3897    0.1196 H         1 <0>         0.0732
     39 H13         1.8441   -4.3122   -0.9938 H         1 <0>         0.1348
     40 H14         5.1327   -5.1207    1.5523 H         1 <0>         0.1352
     41 H15         6.6308   -5.9477    3.3166 H         1 <0>         0.1412
     42 H16         5.7903   -7.5006    5.0294 H         1 <0>         0.1426
     43 H17         3.4373   -8.1998    5.0202 H         1 <0>         0.1436
     44 H18        -0.1996   -7.8381    2.4737 H         1 <0>         0.4153
     45 H19         2.0029   -7.5372   -2.7463 H         1 <0>         0.1750
     46 H20         0.5246   -9.3217   -1.9223 H         1 <0>         0.1560
     47 H21        -0.0739   -9.3867    0.4732 H         1 <0>         0.1543
     48 H22        -0.9446   -0.3531    0.0097 H         1 <0>         0.4216
@<TRIPOS>BOND
     1    1    2 1
     2    1   27 1
     3    1   28 1
     4    1   29 1
     5    2    7 1
     6    2    3 1
     7    2   48 1
     8    3    4 1
     9    3   30 1
    10    3   31 1
    11    4    5 1
    12    4   32 1
    13    4   33 1
    14    5    6 1
    15    5    8 1
    16    6    7 1
    17    6   34 1
    18    6   35 1
    19    7   36 1
    20    7   37 1
    21    8    9 1
    22    8   38 1
    23    8   39 1
    24    9   10 2
    25    9   11 am
    26   11   22 1
    27   11   12 1
    28   12   17 ar
    29   12   13 ar
    30   13   14 ar
    31   13   40 1
    32   14   15 ar
    33   14   41 1
    34   15   16 ar
    35   15   42 1
    36   16   17 ar
    37   16   43 1
    38   17   18 1
    39   18   19 2
    40   18   20 am
    41   20   21 1
    42   20   44 1
    43   21   26 ar
    44   21   22 ar
    45   22   23 ar
    46   23   24 ar
    47   24   25 ar
    48   24   45 1
    49   25   26 ar
    50   25   46 1
    51   26   47 1
@<TRIPOS>MOLECULE
ZINC19632927
   48    51     0     0     0
SMALL
USER_CHARGES

@<TRIPOS>ATOM
      1 C1         -0.0178    1.4648    0.0101 C.3       1 <0>         0.0196
      2 N1          0.0021   -0.0041    0.0020 N.3       1 <0>        -0.5444
      3 C2          0.6054   -0.5158   -1.2366 C.3       1 <0>         0.0258
      4 C3          0.5529   -2.0452   -1.2320 C.3       1 <0>        -0.0018
      5 N2          1.2823   -2.5567   -0.0641 N.4       1 <0>        -0.3733
      6 C4          0.6533   -2.0570    1.1655 C.3       1 <0>        -0.0155
      7 C5          0.7065   -0.5278    1.1808 C.3       1 <0>         0.0300
      8 C6          1.2470   -4.0253   -0.0699 C.3       1 <0>        -0.0244
      9 C7          2.0969   -4.5526    1.0573 C.2       1 <0>         0.5235
     10 O1          2.6751   -3.7810    1.7931 O.2       1 <0>        -0.4949
     11 N3          2.2146   -5.8816    1.2479 N.am      1 <0>        -0.4846
     12 C8          2.9932   -6.3804    2.2906 C.ar      1 <0>         0.1484
     13 C9          4.3473   -6.0836    2.3497 C.ar      1 <0>        -0.1002
     14 C10         5.1280   -6.6089    3.3605 C.ar      1 <0>        -0.0741
     15 C11         4.5660   -7.4364    4.3187 C.ar      1 <0>        -0.1065
     16 C12         3.2199   -7.7288    4.2833 C.ar      1 <0>        -0.0453
     17 C13         2.4126   -7.1893    3.2772 C.ar      1 <0>        -0.1310
     18 C14         0.9650   -7.4308    3.2944 C.2       1 <0>         0.5660
     19 O2          0.4220   -7.4585    4.3818 O.2       1 <0>        -0.5020
     20 N4          0.1966   -7.6210    2.2325 N.am      1 <0>        -0.6563
     21 C15         0.6007   -7.6588    0.9012 C.ar      1 <0>         0.1240
     22 C16         1.5531   -6.7799    0.4064 C.ar      1 <0>         0.2781
     23 N5          1.8594   -6.7924   -0.8838 N.ar      1 <0>        -0.4751
     24 C17         1.3134   -7.6512   -1.7224 C.ar      1 <0>         0.1160
     25 C18         0.3916   -8.5811   -1.2851 C.ar      1 <0>        -0.1227
     26 C19         0.0278   -8.5907    0.0409 C.ar      1 <0>        -0.0791
     27 H1          1.0047    1.8421    0.0024 H         1 <0>         0.0402
     28 H2         -0.5450    1.8259   -0.8730 H         1 <0>         0.0841
     29 H3         -0.5280    1.8163    0.9069 H         1 <0>         0.0845
     30 H4          0.0516   -0.1355   -2.0950 H         1 <0>         0.1271
     31 H5          1.6430   -0.1877   -1.2984 H         1 <0>         0.0626
     32 H6         -0.4855   -2.3730   -1.1840 H         1 <0>         0.1398
     33 H7          1.0127   -2.4272   -2.1434 H         1 <0>         0.1394
     34 H8         -0.3857   -2.3847    1.2013 H         1 <0>         0.1346
     35 H9          1.1874   -2.4478    2.0316 H         1 <0>         0.1491
     36 H10         1.7458   -0.1998    1.1589 H         1 <0>         0.0634
     37 H11         0.2266   -0.1562    2.0862 H         1 <0>         0.1249
     38 H12         0.2194   -4.3646    0.0604 H         1 <0>         0.1577
     39 H13         1.6338   -4.3943   -1.0199 H         1 <0>         0.1742
     40 H14         4.7915   -5.4410    1.6039 H         1 <0>         0.1353
     41 H15         6.1812   -6.3738    3.4038 H         1 <0>         0.1444
     42 H16         5.1863   -7.8550    5.0974 H         1 <0>         0.1462
     43 H17         2.7883   -8.3754    5.0330 H         1 <0>         0.1472
     44 H18        -0.7502   -7.7480    2.4009 H         1 <0>         0.4187
     45 H19         1.5909   -7.6265   -2.7658 H         1 <0>         0.1794
     46 H20        -0.0363   -9.2928   -1.9757 H         1 <0>         0.1603
     47 H21        -0.6942   -9.3066    0.4050 H         1 <0>         0.1586
     48 H22         2.2406   -2.2435   -0.1027 H         1 <0>         0.4278
@<TRIPOS>BOND
     1    1    2 1
     2    1   27 1
     3    1   28 1
     4    1   29 1
     5    2    7 1
     6    2    3 1
     7    3    4 1
     8    3   30 1
     9    3   31 1
    10    4    5 1
    11    4   32 1
    12    4   33 1
    13    5    6 1
    14    5    8 1
    15    5   48 1
    16    6    7 1
    17    6   34 1
    18    6   35 1
    19    7   36 1
    20    7   37 1
    21    8    9 1
    22    8   38 1
    23    8   39 1
    24    9   10 2
    25    9   11 am
    26   11   22 1
    27   11   12 1
    28   12   17 ar
    29   12   13 ar
    30   13   14 ar
    31   13   40 1
    32   14   15 ar
    33   14   41 1
    34   15   16 ar
    35   15   42 1
    36   16   17 ar
    37   16   43 1
    38   17   18 1
    39   18   19 2
    40   18   20 am
    41   20   21 1
    42   20   44 1
    43   21   26 ar
    44   21   22 ar
    45   22   23 ar
    46   23   24 ar
    47   24   25 ar
    48   24   45 1
    49   25   26 ar
    50   25   46 1
    51   26   47 1
@<TRIPOS>MOLECULE
ZINC19632927
   47    50     0     0     0
SMALL
USER_CHARGES

@<TRIPOS>ATOM
      1 C1         -0.0178    1.4648    0.0101 C.3       1 <0>         0.0248
      2 N1          0.0021   -0.0041    0.0020 N.3       1 <0>        -0.5479
      3 C2          0.6031   -0.5158   -1.2375 C.3       1 <0>         0.0571
      4 C3          0.5329   -2.0447   -1.2421 C.3       1 <0>         0.0591
      5 N2          1.2373   -2.5683   -0.0634 N.3       1 <0>        -0.5228
      6 C4          0.6362   -2.0566    1.1762 C.3       1 <0>         0.0505
      7 C5          0.7064   -0.5277    1.1807 C.3       1 <0>         0.0599
      8 C6          1.2572   -4.0372   -0.0715 C.3       1 <0>         0.0451
      9 C7          2.1875   -4.5329    1.0055 C.2       1 <0>         0.5341
     10 O1          2.7761   -3.7405    1.7103 O.2       1 <0>        -0.4817
     11 N3          2.3656   -5.8566    1.1853 N.am      1 <0>        -0.5193
     12 C8          3.2191   -6.3265    2.1819 C.ar      1 <0>         0.1729
     13 C9          4.5622   -5.9787    2.1669 C.ar      1 <0>        -0.1042
     14 C10         5.4170   -6.4750    3.1313 C.ar      1 <0>        -0.0765
     15 C11         4.9406   -7.3239    4.1167 C.ar      1 <0>        -0.1213
     16 C12         3.6066   -7.6669    4.1551 C.ar      1 <0>        -0.0489
     17 C13         2.7249   -7.1575    3.1968 C.ar      1 <0>        -0.1413
     18 C14         1.2907   -7.4536    3.2934 C.2       1 <0>         0.5714
     19 O2          0.8103   -7.5027    4.4091 O.2       1 <0>        -0.5168
     20 N4          0.4724   -7.6719    2.2751 N.am      1 <0>        -0.6527
     21 C15         0.8031   -7.6933    0.9234 C.ar      1 <0>         0.1066
     22 C16         1.6928   -6.7786    0.3792 C.ar      1 <0>         0.3179
     23 N5          1.9273   -6.7785   -0.9260 N.ar      1 <0>        -0.4679
     24 C17         1.3685   -7.6566   -1.7356 C.ar      1 <0>         0.1140
     25 C18         0.5081   -8.6211   -1.2507 C.ar      1 <0>        -0.1400
     26 C19         0.2190   -8.6455    0.0935 C.ar      1 <0>        -0.0822
     27 H1          1.0047    1.8421    0.0024 H         1 <0>         0.0275
     28 H2         -0.5450    1.8259   -0.8730 H         1 <0>         0.0690
     29 H3         -0.5280    1.8163    0.9069 H         1 <0>         0.0692
     30 H4          0.0565   -0.1241   -2.0954 H         1 <0>         0.0824
     31 H5          1.6447   -0.1994   -1.2942 H         1 <0>         0.0451
     32 H6         -0.5098   -2.3609   -1.2128 H         1 <0>         0.0448
     33 H7          1.0041   -2.4277   -2.1472 H         1 <0>         0.0835
     34 H8         -0.4053   -2.3729    1.2329 H         1 <0>         0.0384
     35 H9          1.1828   -2.4483    2.0340 H         1 <0>         0.0945
     36 H10         1.7492   -0.2115    1.1515 H         1 <0>         0.0462
     37 H11         0.2352   -0.1447    2.0859 H         1 <0>         0.0803
     38 H12         0.2519   -4.4152    0.1146 H         1 <0>         0.0611
     39 H13         1.6043   -4.3905   -1.0424 H         1 <0>         0.1222
     40 H14         4.9398   -5.3192    1.3995 H         1 <0>         0.1359
     41 H15         6.4613   -6.2003    3.1169 H         1 <0>         0.1387
     42 H16         5.6185   -7.7193    4.8587 H         1 <0>         0.1391
     43 H17         3.2419   -8.3300    4.9256 H         1 <0>         0.1408
     44 H18        -0.4582   -7.8347    2.4953 H         1 <0>         0.4144
     45 H19         1.5866   -7.6205   -2.7927 H         1 <0>         0.1727
     46 H20         0.0697   -9.3478   -1.9185 H         1 <0>         0.1527
     47 H21        -0.4542   -9.3885    0.4949 H         1 <0>         0.1514
@<TRIPOS>BOND
     1    1    2 1
     2    1   27 1
     3    1   28 1
     4    1   29 1
     5    2    7 1
     6    2    3 1
     7    3    4 1
     8    3   30 1
     9    3   31 1
    10    4    5 1
    11    4   32 1
    12    4   33 1
    13    5    6 1
    14    5    8 1
    15    6    7 1
    16    6   34 1
    17    6   35 1
    18    7   36 1
    19    7   37 1
    20    8    9 1
    21    8   38 1
    22    8   39 1
    23    9   10 2
    24    9   11 am
    25   11   22 1
    26   11   12 1
    27   12   17 ar
    28   12   13 ar
    29   13   14 ar
    30   13   40 1
    31   14   15 ar
    32   14   41 1
    33   15   16 ar
    34   15   42 1
    35   16   17 ar
    36   16   43 1
    37   17   18 1
    38   18   19 2
    39   18   20 am
    40   20   21 1
    41   20   44 1
    42   21   26 ar
    43   21   22 ar
    44   22   23 ar
    45   23   24 ar
    46   24   25 ar
    47   24   45 1
    48   25   26 ar
    49   25   46 1
    50   26   47 1
