@<TRIPOS>MOLECULE
ZINC53166256
   43    46     0     0     0
SMALL
USER_CHARGES

@<TRIPOS>ATOM
      1 C1         -0.0645    1.4412   -0.3732 C.3       1 <0>         0.0245
      2 N1         -0.0216   -0.0161   -0.1927 N.3       1 <0>        -0.5427
      3 C2          0.3881   -0.6883   -1.4329 C.3       1 <0>         0.0399
      4 C3          0.2462   -2.2042   -1.2592 C.3       1 <0>         0.1270
      5 N2          0.9912   -2.6085   -0.0572 N.pl3     1 <0>        -0.5934
      6 C4          0.7333   -1.8856    1.1973 C.3       1 <0>         0.1156
      7 C5          0.8560   -0.3822    0.9269 C.3       1 <0>         0.0395
      8 C6          1.9059   -3.6360   -0.1053 C.2       1 <0>         0.5356
      9 N3          2.1874   -4.1476   -1.2567 N.2       1 <0>        -0.6206
     10 C7          2.9530   -5.2310   -1.5577 C.ar      1 <0>         0.1701
     11 C8          2.4830   -6.1190   -2.5335 C.ar      1 <0>        -0.1161
     12 C9          3.2327   -7.2189   -2.8990 C.ar      1 <0>        -0.1046
     13 C10         4.4585   -7.4578   -2.3086 C.ar      1 <0>        -0.1308
     14 C11         4.9338   -6.5952   -1.3330 C.ar      1 <0>        -0.1099
     15 C12         4.1849   -5.4996   -0.9492 C.ar      1 <0>         0.0928
     16 N4          4.6603   -4.6750    0.0974 N.pl3     1 <0>        -0.6675
     17 C13         3.8314   -4.5378    1.1992 C.2       1 <0>         0.0941
     18 C14         2.5165   -4.0886    1.1665 C.2       1 <0>        -0.2204
     19 C15         1.8382   -4.1107    2.4492 C.2       1 <0>        -0.0854
     20 C16         2.5687   -4.5058    3.5084 C.2       1 <0>        -0.1956
     21 S1          4.1544   -4.8614    2.8004 S.3       1 <0>         0.1912
     22 C17         2.1405   -4.6249    4.9484 C.3       1 <0>         0.1641
     23 O1          1.6299   -5.9381    5.1865 O.3       1 <0>        -0.5666
     24 H1          0.9395    1.8113   -0.5807 H         1 <0>         0.0253
     25 H2         -0.7212    1.6847   -1.2084 H         1 <0>         0.0709
     26 H3         -0.4436    1.9089    0.5355 H         1 <0>         0.0707
     27 H4         -0.2467   -0.3553   -2.2540 H         1 <0>         0.0875
     28 H5          1.4271   -0.4432   -1.6533 H         1 <0>         0.0376
     29 H6         -0.8063   -2.4623   -1.1417 H         1 <0>         0.0713
     30 H7          0.6556   -2.7127   -2.1321 H         1 <0>         0.1047
     31 H8         -0.2724   -2.1131    1.5509 H         1 <0>         0.0773
     32 H9          1.4647   -2.1834    1.9486 H         1 <0>         0.0976
     33 H10         1.8885   -0.1414    0.6736 H         1 <0>         0.0377
     34 H11         0.5606    0.1728    1.8173 H         1 <0>         0.0886
     35 H12         1.5267   -5.9420   -3.0033 H         1 <0>         0.1272
     36 H13         2.8583   -7.8974   -3.6513 H         1 <0>         0.1261
     37 H14         5.0449   -8.3146   -2.6060 H         1 <0>         0.1266
     38 H15         5.8924   -6.7804   -0.8713 H         1 <0>         0.1236
     39 H16         5.5203   -4.2292    0.0463 H         1 <0>         0.4183
     40 H17         0.8015   -3.8247    2.5488 H         1 <0>         0.1460
     41 H18         2.9969   -4.4447    5.5982 H         1 <0>         0.0639
     42 H19         1.3639   -3.8895    5.1585 H         1 <0>         0.0718
     43 H20         1.3347   -6.0866    6.0953 H         1 <0>         0.3866
@<TRIPOS>BOND
     1    1    2 1
     2    1   24 1
     3    1   25 1
     4    1   26 1
     5    2    7 1
     6    2    3 1
     7    3    4 1
     8    3   27 1
     9    3   28 1
    10    4    5 1
    11    4   29 1
    12    4   30 1
    13    5    6 1
    14    5    8 1
    15    6    7 1
    16    6   31 1
    17    6   32 1
    18    7   33 1
    19    7   34 1
    20    8   18 1
    21    8    9 2
    22    9   10 1
    23   10   15 ar
    24   10   11 ar
    25   11   12 ar
    26   11   35 1
    27   12   13 ar
    28   12   36 1
    29   13   14 ar
    30   13   37 1
    31   14   15 ar
    32   14   38 1
    33   15   16 1
    34   16   17 1
    35   16   39 1
    36   17   21 1
    37   17   18 2
    38   18   19 1
    39   19   20 2
    40   19   40 1
    41   20   21 1
    42   20   22 1
    43   22   23 1
    44   22   41 1
    45   22   42 1
    46   23   43 1
@<TRIPOS>MOLECULE
ZINC53166256
   44    47     0     0     0
SMALL
USER_CHARGES

@<TRIPOS>ATOM
      1 C1         -0.0503    1.4404   -0.3738 C.3       1 <0>        -0.0468
      2 N1         -0.0137   -0.0159   -0.1846 N.4       1 <0>        -0.3851
      3 C2          0.4926   -0.6538   -1.4064 C.3       1 <0>        -0.0215
      4 C3          0.4236   -2.1768   -1.2526 C.3       1 <0>         0.1009
      5 N2          1.1441   -2.5548   -0.0269 N.pl3     1 <0>        -0.6150
      6 C4          0.8123   -1.8460    1.2187 C.3       1 <0>         0.0891
      7 C5          0.8630   -0.3387    0.9482 C.3       1 <0>        -0.0221
      8 C6          2.1011   -3.5439   -0.0451 C.2       1 <0>         0.5271
      9 N3          2.4417   -4.0411   -1.1867 N.2       1 <0>        -0.5934
     10 C7          3.2607   -5.0916   -1.4627 C.ar      1 <0>         0.1438
     11 C8          2.8603   -5.9960   -2.4544 C.ar      1 <0>        -0.1034
     12 C9          3.6662   -7.0636   -2.7954 C.ar      1 <0>        -0.1053
     13 C10         4.8803   -7.2535   -2.1643 C.ar      1 <0>        -0.1121
     14 C11         5.2869   -6.3742   -1.1727 C.ar      1 <0>        -0.1118
     15 C12         4.4814   -5.3110   -0.8134 C.ar      1 <0>         0.1053
     16 N4          4.8874   -4.4699    0.2491 N.pl3     1 <0>        -0.6685
     17 C13         4.0171   -4.3690    1.3226 C.2       1 <0>         0.0970
     18 C14         2.6868   -3.9739    1.2462 C.2       1 <0>        -0.2330
     19 C15         1.9674   -4.0264    2.5054 C.2       1 <0>        -0.1010
     20 C16         2.6776   -4.3936    3.5882 C.2       1 <0>        -0.1858
     21 S1          4.2994   -4.6826    2.9336 S.3       1 <0>         0.2189
     22 C17         2.2067   -4.5331    5.0129 C.3       1 <0>         0.1600
     23 O1          1.7425   -5.8666    5.2328 O.3       1 <0>        -0.5661
     24 H1          0.9563    1.8058   -0.5769 H         1 <0>         0.1210
     25 H2         -0.7009    1.6813   -1.2145 H         1 <0>         0.1255
     26 H3         -0.4336    1.9146    0.5297 H         1 <0>         0.1251
     27 H4         -0.1168   -0.3464   -2.2563 H         1 <0>         0.1423
     28 H5          1.5267   -0.3518   -1.5724 H         1 <0>         0.1313
     29 H6         -0.6176   -2.4904   -1.1769 H         1 <0>         0.0891
     30 H7          0.8911   -2.6535   -2.1141 H         1 <0>         0.1420
     31 H8         -0.1896   -2.1263    1.5440 H         1 <0>         0.0942
     32 H9          1.5369   -2.1040    1.9911 H         1 <0>         0.1380
     33 H10         1.8859   -0.0462    0.7110 H         1 <0>         0.1319
     34 H11         0.5265    0.2010    1.8334 H         1 <0>         0.1434
     35 H12         1.9139   -5.8573   -2.9558 H         1 <0>         0.1292
     36 H13         3.3452   -7.7553   -3.5603 H         1 <0>         0.1323
     37 H14         5.5108   -8.0849   -2.4425 H         1 <0>         0.1334
     38 H15         6.2363   -6.5211   -0.6793 H         1 <0>         0.1295
     39 H16         5.7296   -3.9892    0.2272 H         1 <0>         0.4219
     40 H17         0.9172   -3.7832    2.5704 H         1 <0>         0.1434
     41 H18         3.0327   -4.3194    5.6912 H         1 <0>         0.0672
     42 H19         1.3940   -3.8304    5.1974 H         1 <0>         0.0714
     43 H20         1.4234   -6.0289    6.1311 H         1 <0>         0.3916
     44 H21        -0.9456   -0.3526    0.0063 H         1 <0>         0.4248
@<TRIPOS>BOND
     1    1    2 1
     2    1   24 1
     3    1   25 1
     4    1   26 1
     5    2    7 1
     6    2    3 1
     7    2   44 1
     8    3    4 1
     9    3   27 1
    10    3   28 1
    11    4    5 1
    12    4   29 1
    13    4   30 1
    14    5    6 1
    15    5    8 1
    16    6    7 1
    17    6   31 1
    18    6   32 1
    19    7   33 1
    20    7   34 1
    21    8   18 1
    22    8    9 2
    23    9   10 1
    24   10   15 ar
    25   10   11 ar
    26   11   12 ar
    27   11   35 1
    28   12   13 ar
    29   12   36 1
    30   13   14 ar
    31   13   37 1
    32   14   15 ar
    33   14   38 1
    34   15   16 1
    35   16   17 1
    36   16   39 1
    37   17   21 1
    38   17   18 2
    39   18   19 1
    40   19   20 2
    41   19   40 1
    42   20   21 1
    43   20   22 1
    44   22   23 1
    45   22   41 1
    46   22   42 1
    47   23   43 1
@<TRIPOS>MOLECULE
ZINC05160057
   40    41     0     0     0
SMALL
USER_CHARGES
1-[2-(3-pyrrolidin-1-ylprop-1-ynyl)-1-piperidyl]ethanone
@<TRIPOS>ATOM
      1 C1          7.8536    1.1026    2.1619 C.3       1 <0>        -0.1818
      2 C2          7.1213    2.1564    1.3718 C.2       1 <0>         0.5181
      3 O1          7.3539    2.2993    0.1901 O.2       1 <0>        -0.5360
      4 N1          6.2079    2.9401    1.9784 N.am      1 <0>        -0.6121
      5 C3          5.8368    2.7092    3.3812 C.3       1 <0>         0.0993
      6 C4          6.0130    4.0169    4.1594 C.3       1 <0>        -0.1407
      7 C5          5.2137    5.1265    3.4723 C.3       1 <0>        -0.1226
      8 C6          5.7438    5.3346    2.0518 C.3       1 <0>        -0.1261
      9 C7          5.5646    4.0418    1.2497 C.3       1 <0>         0.2329
     10 H1          6.0271    4.1532    0.2689 H         1 <0>         0.1337
     11 C8          4.1297    3.7558    1.0889 C.1       1 <0>        -0.0464
     12 C9          2.9852    3.5276    0.9607 C.1       1 <0>        -0.2749
     13 C10         1.5503    3.2415    0.7999 C.3       1 <0>         0.1452
     14 C11        -0.0278    1.5530    0.0507 C.3       1 <0>        -0.0091
     15 C12        -0.0119    0.0132    0.0482 C.3       1 <0>        -0.1466
     16 C13         1.4845   -0.3751    0.0574 C.3       1 <0>        -0.1468
     17 C14         2.1679    0.8926    0.6287 C.3       1 <0>        -0.0049
     18 H2          7.4475    1.0584    3.1725 H         1 <0>         0.0859
     19 H3          7.7296    0.1339    1.6778 H         1 <0>         0.0993
     20 H4          8.9135    1.3532    2.2069 H         1 <0>         0.1040
     21 H5          6.4811    1.9405    3.8078 H         1 <0>         0.1023
     22 H6          4.7965    2.3887    3.4360 H         1 <0>         0.0663
     23 H7          7.0684    4.2885    4.1804 H         1 <0>         0.0765
     24 H8          5.6507    3.8857    5.1791 H         1 <0>         0.0833
     25 H9          5.3175    6.0524    4.0379 H         1 <0>         0.0779
     26 H10         4.1621    4.8430    3.4295 H         1 <0>         0.0614
     27 H11         6.8018    5.5937    2.0926 H         1 <0>         0.0893
     28 H12         5.1897    6.1408    1.5711 H         1 <0>         0.0848
     29 H13         1.0726    4.0657    0.2702 H         1 <0>         0.1504
     30 H14         1.0907    3.1255    1.7814 H         1 <0>         0.1444
     31 H15        -0.5472    1.9204   -0.8343 H         1 <0>         0.1365
     32 H16        -0.5207    1.9178    0.9519 H         1 <0>         0.1335
     33 H17        -0.5080   -0.3717    0.9391 H         1 <0>         0.1040
     34 H18        -0.4979   -0.3687   -0.8496 H         1 <0>         0.1061
     35 H19         1.6566   -1.2325    0.7080 H         1 <0>         0.1158
     36 H20         1.8359   -0.5802   -0.9538 H         1 <0>         0.0982
     37 H21         2.0949    0.9121    1.7160 H         1 <0>         0.1315
     38 H22         3.2101    0.9431    0.3134 H         1 <0>         0.1315
     39 N2          1.3778    1.9738    0.0285 N.4       1 <0>        -0.3970
     40 H23         1.6796    2.1261   -0.9410 H         1 <0>         0.4329
@<TRIPOS>BOND
     1    1    2 1
     2    1   18 1
     3    1   19 1
     4    1   20 1
     5    2    3 2
     6    2    4 am
     7    4    9 1
     8    4    5 1
     9    5    6 1
    10    5   21 1
    11    5   22 1
    12    6    7 1
    13    6   23 1
    14    6   24 1
    15    7    8 1
    16    7   25 1
    17    7   26 1
    18    8    9 1
    19    8   27 1
    20    8   28 1
    21    9   10 1
    22    9   11 1
    23   11   12 3
    24   12   13 1
    25   13   29 1
    26   13   30 1
    27   13   39 1
    28   14   15 1
    29   14   31 1
    30   14   32 1
    31   14   39 1
    32   15   16 1
    33   15   33 1
    34   15   34 1
    35   16   17 1
    36   16   35 1
    37   16   36 1
    38   17   37 1
    39   17   38 1
    40   17   39 1
    41   39   40 1
@<TRIPOS>MOLECULE
ZINC05160067
   40    41     0     0     0
SMALL
USER_CHARGES
1-[2-(3-pyrrolidin-1-ylprop-1-ynyl)-1-piperidyl]ethanone
@<TRIPOS>ATOM
      1 C1         -4.6353    2.4818   -1.2400 C.3       1 <0>        -0.1852
      2 C2         -4.0129    2.0178    0.0517 C.2       1 <0>         0.5251
      3 O1         -4.5822    2.2149    1.1043 O.2       1 <0>        -0.5553
      4 N1         -2.8236    1.3839    0.0372 N.am      1 <0>        -0.6089
      5 C3         -2.1802    1.0285   -1.2350 C.3       1 <0>         0.0978
      6 C4         -0.7561    1.5929   -1.2419 C.3       1 <0>        -0.1410
      7 C5         -0.0098    1.0987   -0.0005 C.3       1 <0>        -0.1231
      8 C6         -0.7222    1.5998    1.2579 C.3       1 <0>        -0.1268
      9 C7         -2.1457    1.0355    1.2932 C.3       1 <0>         0.2445
     10 H1         -2.1065   -0.0487    1.3988 H         1 <0>         0.1072
     11 C8         -2.8815    1.6156    2.4285 C.1       1 <0>        -0.0380
     12 C9         -3.4684    2.0782    3.3340 C.1       1 <0>        -0.2555
     13 C10        -4.2042    2.6583    4.4692 C.3       1 <0>         0.1520
     14 C11        -2.0858    2.6746    5.6694 C.3       1 <0>         0.0005
     15 C12        -1.6801    2.7397    7.1632 C.3       1 <0>        -0.1474
     16 C13        -2.9315    3.3501    7.8351 C.3       1 <0>        -0.1456
     17 C14        -4.0902    3.0644    6.8619 C.3       1 <0>        -0.0105
     18 H2         -4.0304    2.1377   -2.0789 H         1 <0>         0.0882
     19 H3         -5.6419    2.0726   -1.3259 H         1 <0>         0.0988
     20 H4         -4.6837    3.5707   -1.2495 H         1 <0>         0.0999
     21 H5         -2.7465    1.4556   -2.0627 H         1 <0>         0.1025
     22 H6         -2.1440   -0.0560   -1.3382 H         1 <0>         0.0809
     23 H7         -0.7964    2.6821   -1.2326 H         1 <0>         0.0716
     24 H8         -0.2353    1.2553   -2.1379 H         1 <0>         0.0875
     25 H9          0.0086    0.0089    0.0022 H         1 <0>         0.0724
     26 H10         1.0115    1.4791   -0.0154 H         1 <0>         0.0796
     27 H11        -0.1773    1.2671    2.1413 H         1 <0>         0.0856
     28 H12        -0.7628    2.6890    1.2436 H         1 <0>         0.0747
     29 H13        -4.2379    3.7427    4.3644 H         1 <0>         0.1381
     30 H14        -5.2199    2.2629    4.4840 H         1 <0>         0.1433
     31 H15        -1.5130    1.9076    5.1482 H         1 <0>         0.1332
     32 H16        -1.9538    3.6457    5.1922 H         1 <0>         0.1288
     33 H17        -0.8142    3.3876    7.2999 H         1 <0>         0.1139
     34 H18        -1.4814    1.7413    7.5528 H         1 <0>         0.0965
     35 H19        -2.8041    4.4246    7.9666 H         1 <0>         0.1029
     36 H20        -3.1172    2.8700    8.7959 H         1 <0>         0.1042
     37 H21        -4.5183    4.0025    6.5086 H         1 <0>         0.1316
     38 H22        -4.8550    2.4684    7.3599 H         1 <0>         0.1336
     39 N2         -3.5103    2.3145    5.7468 N.4       1 <0>        -0.3937
     40 H23        -3.6045    1.3069    5.9204 H         1 <0>         0.4358
@<TRIPOS>BOND
     1    1    2 1
     2    1   18 1
     3    1   19 1
     4    1   20 1
     5    2    3 2
     6    2    4 am
     7    4    9 1
     8    4    5 1
     9    5    6 1
    10    5   21 1
    11    5   22 1
    12    6    7 1
    13    6   23 1
    14    6   24 1
    15    7    8 1
    16    7   25 1
    17    7   26 1
    18    8    9 1
    19    8   27 1
    20    8   28 1
    21    9   10 1
    22    9   11 1
    23   11   12 3
    24   12   13 1
    25   13   29 1
    26   13   30 1
    27   13   39 1
    28   14   15 1
    29   14   31 1
    30   14   32 1
    31   14   39 1
    32   15   16 1
    33   15   33 1
    34   15   34 1
    35   16   17 1
    36   16   35 1
    37   16   36 1
    38   17   37 1
    39   17   38 1
    40   17   39 1
    41   39   40 1
@<TRIPOS>MOLECULE
ZINC00968273
   54    56     0     0     0
SMALL
USER_CHARGES

@<TRIPOS>ATOM
      1 C1          0.0762    1.3452   -0.3150 C.ar      1 <0>        -0.1098
      2 C2          1.2713    2.0393   -0.3470 C.ar      1 <0>        -0.1122
      3 C3          2.4688    1.3595   -0.2265 C.ar      1 <0>        -0.1247
      4 C4          2.4714   -0.0144   -0.0737 C.ar      1 <0>        -0.1244
      5 C5          1.2763   -0.7084   -0.0408 C.ar      1 <0>        -0.1067
      6 C6          0.0788   -0.0287   -0.1627 C.ar      1 <0>        -0.1104
      7 C7          3.7770   -0.7557    0.0566 C.3       1 <0>         0.1934
      8 C8          4.1663   -0.8472    1.5335 C.3       1 <0>        -0.1754
      9 C9          4.2922    0.5619    2.1160 C.3       1 <0>        -0.0183
     10 N1          4.8004    0.4794    3.4918 N.4       1 <0>        -0.3797
     11 C10         3.8171   -0.2117    4.3344 C.3       1 <0>        -0.0117
     12 C11         4.3758   -0.3722    5.7499 C.3       1 <0>        -0.1455
     13 C12         4.6703    1.0114    6.3365 C.3       1 <0>        -0.1395
     14 C13         5.6396    1.7518    5.4105 C.3       1 <0>        -0.1459
     15 C14         5.0341    1.8336    4.0076 C.3       1 <0>        -0.0078
     16 C15         3.6229   -2.1650   -0.5185 C.3       1 <0>        -0.0695
     17 C16         4.9235   -2.9444   -0.3139 C.3       1 <0>        -0.1134
     18 C17         4.7694   -4.3538   -0.8890 C.3       1 <0>        -0.1214
     19 C18         4.4590   -4.2632   -2.3844 C.3       1 <0>        -0.1230
     20 C19         3.1584   -3.4839   -2.5891 C.3       1 <0>        -0.1222
     21 C20         3.3125   -2.0745   -2.0139 C.3       1 <0>        -0.1104
     22 O1          4.7953   -0.0567   -0.6620 O.3       1 <0>        -0.5340
     23 H1         -0.8596    1.8768   -0.4046 H         1 <0>         0.1279
     24 H2          1.2693    3.1127   -0.4664 H         1 <0>         0.1271
     25 H3          3.4025    1.9017   -0.2522 H         1 <0>         0.1173
     26 H4          1.2783   -1.7818    0.0782 H         1 <0>         0.1281
     27 H5         -0.8549   -0.5710   -0.1374 H         1 <0>         0.1286
     28 H6          3.3994   -1.3982    2.0779 H         1 <0>         0.1002
     29 H7          5.1207   -1.3654    1.6262 H         1 <0>         0.1036
     30 H8          4.9830    1.1460    1.5079 H         1 <0>         0.1276
     31 H9          3.3141    1.0430    2.1182 H         1 <0>         0.1348
     32 H10         2.8971    0.3717    4.3714 H         1 <0>         0.1281
     33 H11         3.6061   -1.1949    3.9139 H         1 <0>         0.1302
     34 H12         3.6435   -0.8840    6.3743 H         1 <0>         0.1121
     35 H13         5.2958   -0.9557    5.7140 H         1 <0>         0.0878
     36 H14         3.7423    1.5769    6.4201 H         1 <0>         0.0817
     37 H15         5.1212    0.9007    7.3227 H         1 <0>         0.0947
     38 H16         5.8107    2.7583    5.7923 H         1 <0>         0.1126
     39 H17         6.5858    1.2124    5.3676 H         1 <0>         0.0879
     40 H18         5.7215    2.3604    3.3457 H         1 <0>         0.1299
     41 H19         4.0881    2.3734    4.0515 H         1 <0>         0.1281
     42 H20         2.8077   -2.6784   -0.0086 H         1 <0>         0.0861
     43 H21         5.7387   -2.4310   -0.8237 H         1 <0>         0.0745
     44 H22         5.1447   -3.0089    0.7515 H         1 <0>         0.0559
     45 H23         5.6960   -4.9090   -0.7432 H         1 <0>         0.0650
     46 H24         3.9542   -4.8671   -0.3791 H         1 <0>         0.0613
     47 H25         5.2742   -3.7499   -2.8943 H         1 <0>         0.0637
     48 H26         4.3492   -5.2673   -2.7942 H         1 <0>         0.0643
     49 H27         2.9372   -3.4194   -3.6544 H         1 <0>         0.0658
     50 H28         2.3431   -3.9973   -2.0792 H         1 <0>         0.0605
     51 H29         2.3859   -1.5193   -2.1597 H         1 <0>         0.0639
     52 H30         4.1277   -1.5612   -2.5238 H         1 <0>         0.0738
     53 H31         4.9474    0.8461   -0.3505 H         1 <0>         0.3677
     54 H32         5.6677   -0.0362    3.4986 H         1 <0>         0.4220
@<TRIPOS>BOND
     1    1    6 ar
     2    1    2 ar
     3    1   23 1
     4    2    3 ar
     5    2   24 1
     6    3    4 ar
     7    3   25 1
     8    4    5 ar
     9    4    7 1
    10    5    6 ar
    11    5   26 1
    12    6   27 1
    13    7    8 1
    14    7   16 1
    15    7   22 1
    16    8    9 1
    17    8   28 1
    18    8   29 1
    19    9   10 1
    20    9   30 1
    21    9   31 1
    22   10   15 1
    23   10   11 1
    24   10   54 1
    25   11   12 1
    26   11   32 1
    27   11   33 1
    28   12   13 1
    29   12   34 1
    30   12   35 1
    31   13   14 1
    32   13   36 1
    33   13   37 1
    34   14   15 1
    35   14   38 1
    36   14   39 1
    37   15   40 1
    38   15   41 1
    39   16   21 1
    40   16   17 1
    41   16   42 1
    42   17   18 1
    43   17   43 1
    44   17   44 1
    45   18   19 1
    46   18   45 1
    47   18   46 1
    48   19   20 1
    49   19   47 1
    50   19   48 1
    51   20   21 1
    52   20   49 1
    53   20   50 1
    54   21   51 1
    55   21   52 1
    56   22   53 1
@<TRIPOS>MOLECULE
ZINC00968274
   54    56     0     0     0
SMALL
USER_CHARGES

@<TRIPOS>ATOM
      1 C1         -0.1352    1.1091   -0.4300 C.ar      1 <0>        -0.1083
      2 C2          0.7513    1.5676    0.5264 C.ar      1 <0>        -0.1143
      3 C3          1.9959    0.9797    0.6535 C.ar      1 <0>        -0.0998
      4 C4          2.3539   -0.0669   -0.1755 C.ar      1 <0>        -0.1232
      5 C5          1.4671   -0.5260   -1.1313 C.ar      1 <0>        -0.1161
      6 C6          0.2229    0.0628   -1.2594 C.ar      1 <0>        -0.1180
      7 C7          3.7112   -0.7071   -0.0376 C.3       1 <0>         0.1941
      8 C8          4.2610   -1.0411   -1.4258 C.3       1 <0>        -0.1780
      9 C9          5.5803   -1.8024   -1.2822 C.3       1 <0>        -0.0120
     10 N1          6.1082   -2.1230   -2.6150 N.4       1 <0>        -0.3820
     11 C10         5.1901   -3.0450   -3.2945 C.3       1 <0>        -0.0137
     12 C11         5.6935   -3.3187   -4.7133 C.3       1 <0>        -0.1453
     13 C12         7.0889   -3.9455   -4.6421 C.3       1 <0>        -0.1393
     14 C13         8.0196   -3.0086   -3.8667 C.3       1 <0>        -0.1461
     15 C14         7.4301   -2.7465   -2.4792 C.3       1 <0>        -0.0068
     16 C15         3.5881   -1.9915    0.7847 C.3       1 <0>        -0.0706
     17 C16         2.6851   -2.9836    0.0490 C.3       1 <0>        -0.1231
     18 C17         2.5620   -4.2679    0.8713 C.3       1 <0>        -0.1182
     19 C18         1.9553   -3.9425    2.2376 C.3       1 <0>        -0.1243
     20 C19         2.8582   -2.9504    2.9734 C.3       1 <0>        -0.1220
     21 C20         2.9813   -1.6660    2.1511 C.3       1 <0>        -0.1116
     22 O1          4.5997    0.1973    0.6217 O.3       1 <0>        -0.5458
     23 H1         -1.1093    1.5654   -0.5263 H         1 <0>         0.1267
     24 H2          0.4716    2.3853    1.1741 H         1 <0>         0.1275
     25 H3          2.6888    1.3384    1.4003 H         1 <0>         0.1310
     26 H4          1.7469   -1.3435   -1.7792 H         1 <0>         0.1182
     27 H5         -0.4698   -0.2957   -2.0064 H         1 <0>         0.1254
     28 H6          3.5413   -1.6593   -1.9625 H         1 <0>         0.1009
     29 H7          4.4323   -0.1185   -1.9803 H         1 <0>         0.0931
     30 H8          6.3000   -1.1842   -0.7455 H         1 <0>         0.1386
     31 H9          5.4090   -2.7250   -0.7277 H         1 <0>         0.1331
     32 H10         5.1407   -3.9821   -2.7399 H         1 <0>         0.1289
     33 H11         4.1968   -2.5988   -3.3416 H         1 <0>         0.1284
     34 H12         5.0115   -4.0048   -5.2155 H         1 <0>         0.1118
     35 H13         5.7431   -2.3822   -5.2689 H         1 <0>         0.0873
     36 H14         7.0311   -4.9066   -4.1312 H         1 <0>         0.0818
     37 H15         7.4754   -4.0903   -5.6509 H         1 <0>         0.0943
     38 H16         9.0003   -3.4732   -3.7636 H         1 <0>         0.1124
     39 H17         8.1175   -2.0657   -4.4046 H         1 <0>         0.0873
     40 H18         8.0904   -2.0799   -1.9244 H         1 <0>         0.1304
     41 H19         7.3329   -3.6899   -1.9420 H         1 <0>         0.1280
     42 H20         4.5759   -2.4315    0.9214 H         1 <0>         0.0782
     43 H21         1.6973   -2.5435   -0.0877 H         1 <0>         0.0801
     44 H22         3.1174   -3.2154   -0.9244 H         1 <0>         0.0528
     45 H23         1.9188   -4.9747    0.3471 H         1 <0>         0.0666
     46 H24         3.5499   -4.7079    1.0079 H         1 <0>         0.0602
     47 H25         0.9674   -3.5024    2.1010 H         1 <0>         0.0638
     48 H26         1.8676   -4.8575    2.8234 H         1 <0>         0.0656
     49 H27         2.4259   -2.7186    3.9468 H         1 <0>         0.0668
     50 H28         3.8460   -3.3904    3.1100 H         1 <0>         0.0608
     51 H29         3.6246   -0.9593    2.6753 H         1 <0>         0.0722
     52 H30         1.9935   -1.2260    2.0144 H         1 <0>         0.0681
     53 H31         4.7254    1.0351    0.1555 H         1 <0>         0.3829
     54 H32         6.1913   -1.2751   -3.1557 H         1 <0>         0.4210
@<TRIPOS>BOND
     1    1    6 ar
     2    1    2 ar
     3    1   23 1
     4    2    3 ar
     5    2   24 1
     6    3    4 ar
     7    3   25 1
     8    4    5 ar
     9    4    7 1
    10    5    6 ar
    11    5   26 1
    12    6   27 1
    13    7    8 1
    14    7   16 1
    15    7   22 1
    16    8    9 1
    17    8   28 1
    18    8   29 1
    19    9   10 1
    20    9   30 1
    21    9   31 1
    22   10   15 1
    23   10   11 1
    24   10   54 1
    25   11   12 1
    26   11   32 1
    27   11   33 1
    28   12   13 1
    29   12   34 1
    30   12   35 1
    31   13   14 1
    32   13   36 1
    33   13   37 1
    34   14   15 1
    35   14   38 1
    36   14   39 1
    37   15   40 1
    38   15   41 1
    39   16   21 1
    40   16   17 1
    41   16   42 1
    42   17   18 1
    43   17   43 1
    44   17   44 1
    45   18   19 1
    46   18   45 1
    47   18   46 1
    48   19   20 1
    49   19   47 1
    50   19   48 1
    51   20   21 1
    52   20   49 1
    53   20   50 1
    54   21   51 1
    55   21   52 1
    56   22   53 1
@<TRIPOS>MOLECULE
ZINC22055590
   40    43     0     0     0
SMALL
USER_CHARGES
2-methyl-4-piperazin-1-yl-10H-thieno[2,3-b][1,5]benzodiazepine
@<TRIPOS>ATOM
      1 C1          2.9000    6.4909    5.1733 C.3       1 <0>        -0.0794
      2 C2          2.5815    5.9866    3.7894 C.2       1 <0>        -0.1487
      3 C3          1.6183    6.4056    2.9486 C.2       1 <0>        -0.1359
      4 C4          1.5178    5.7559    1.6564 C.2       1 <0>        -0.2219
      5 C5          2.4395    4.7328    1.4394 C.2       1 <0>         0.1326
      6 S1          3.3891    4.6898    2.8707 S.3       1 <0>         0.1175
      7 N1          2.5084    3.9288    0.3158 N.pl3     1 <0>        -0.6794
      8 C6          1.3322    3.2144   -0.0160 C.ar      1 <0>         0.1140
      9 C7          1.3818    1.8365   -0.0931 C.ar      1 <0>        -0.1132
     10 C8          0.2296    1.1109   -0.3542 C.ar      1 <0>        -0.1125
     11 C9         -0.9694    1.7704   -0.5428 C.ar      1 <0>        -0.1069
     12 C10        -1.0287    3.1477   -0.4744 C.ar      1 <0>        -0.1040
     13 C11         0.1275    3.8975   -0.2233 C.ar      1 <0>         0.1419
     14 N2          0.0194    5.2532   -0.2098 N.2       1 <0>        -0.5947
     15 C12         0.5397    6.1123    0.6013 C.2       1 <0>         0.5251
     16 N3          0.1661    7.4315    0.4793 N.pl3     1 <0>        -0.6143
     17 C13        -0.9003    7.8310   -0.4516 C.3       1 <0>         0.0945
     18 C14        -0.3858    8.9721   -1.3278 C.3       1 <0>        -0.0147
     19 N4          0.1296   10.0500   -0.4732 N.4       1 <0>        -0.5347
     20 C15         1.2772    9.5959    0.3235 C.3       1 <0>        -0.0188
     21 C16         0.8267    8.4796    1.2719 C.3       1 <0>         0.0827
     22 H1          2.2045    7.3011    5.4374 H         1 <0>         0.0840
     23 H2          3.9319    6.8713    5.1964 H         1 <0>         0.0821
     24 H3          2.7962    5.6683    5.8962 H         1 <0>         0.0829
     25 H4          0.9422    7.2004    3.2271 H         1 <0>         0.1391
     26 H5          3.4417    3.8721   -0.2636 H         1 <0>         0.4455
     27 H6          2.3208    1.3226    0.0501 H         1 <0>         0.1291
     28 H7          0.2702    0.0334   -0.4145 H         1 <0>         0.1328
     29 H8         -1.8675    1.2043   -0.7411 H         1 <0>         0.1317
     30 H9         -1.9729    3.6514   -0.6202 H         1 <0>         0.1285
     31 H10        -1.1776    6.9729   -1.0815 H         1 <0>         0.1410
     32 H11        -1.7789    8.1660    0.1193 H         1 <0>         0.0882
     33 H12         0.4208    8.6008   -1.9770 H         1 <0>         0.1293
     34 H13        -1.2082    9.3572   -1.9486 H         1 <0>         0.1436
     35 H14         0.4513   10.8938   -1.1013 H         1 <0>         0.4556
     36 H15         2.0613    9.2147   -0.3472 H         1 <0>         0.1293
     37 H16         1.6735   10.4385    0.9091 H         1 <0>         0.1449
     38 H17         0.1191    8.8797    2.0130 H         1 <0>         0.0936
     39 H18         1.6982    8.0530    1.7901 H         1 <0>         0.1398
     40 H19        -0.6625   10.3846    0.2128 H         1 <0>         0.4497
@<TRIPOS>BOND
     1    1    2 1
     2    1   22 1
     3    1   23 1
     4    1   24 1
     5    2    6 1
     6    2    3 2
     7    3    4 1
     8    3   25 1
     9    4   15 1
    10    4    5 2
    11    5    6 1
    12    5    7 1
    13    7    8 1
    14    7   26 1
    15    8   13 ar
    16    8    9 ar
    17    9   10 ar
    18    9   27 1
    19   10   11 ar
    20   10   28 1
    21   11   12 ar
    22   11   29 1
    23   12   13 ar
    24   12   30 1
    25   13   14 1
    26   14   15 2
    27   15   16 1
    28   16   21 1
    29   16   17 1
    30   17   18 1
    31   17   31 1
    32   17   32 1
    33   18   19 1
    34   18   33 1
    35   18   34 1
    36   19   20 1
    37   19   35 1
    38   19   40 1
    39   20   21 1
    40   20   36 1
    41   20   37 1
    42   21   38 1
    43   21   39 1
@<TRIPOS>MOLECULE
ZINC22055590
   39    42     0     0     0
SMALL
USER_CHARGES
2-methyl-4-piperazin-1-yl-10H-thieno[2,3-b][1,5]benzodiazepine
@<TRIPOS>ATOM
      1 C1          2.9000    6.4909    5.1733 C.3       1 <0>        -0.0731
      2 C2          2.5815    5.9866    3.7894 C.2       1 <0>        -0.1595
      3 C3          1.6183    6.4056    2.9486 C.2       1 <0>        -0.1197
      4 C4          1.5178    5.7559    1.6564 C.2       1 <0>        -0.2090
      5 C5          2.4395    4.7328    1.4394 C.2       1 <0>         0.1289
      6 S1          3.3891    4.6898    2.8707 S.3       1 <0>         0.0909
      7 N1          2.5084    3.9288    0.3158 N.pl3     1 <0>        -0.6777
      8 C6          1.3322    3.2144   -0.0160 C.ar      1 <0>         0.1017
      9 C7          1.3818    1.8365   -0.0931 C.ar      1 <0>        -0.1111
     10 C8          0.2296    1.1109   -0.3542 C.ar      1 <0>        -0.1312
     11 C9         -0.9694    1.7704   -0.5428 C.ar      1 <0>        -0.1060
     12 C10        -1.0287    3.1477   -0.4744 C.ar      1 <0>        -0.1167
     13 C11         0.1275    3.8975   -0.2233 C.ar      1 <0>         0.1681
     14 N2          0.0194    5.2532   -0.2098 N.2       1 <0>        -0.6216
     15 C12         0.5397    6.1123    0.6013 C.2       1 <0>         0.5340
     16 N3          0.1661    7.4315    0.4793 N.pl3     1 <0>        -0.5933
     17 C13        -0.9003    7.8310   -0.4516 C.3       1 <0>         0.1226
     18 C14        -0.3858    8.9721   -1.3278 C.3       1 <0>         0.0334
     19 N4          0.1296   10.0500   -0.4732 N.3       1 <0>        -0.6705
     20 C15         1.2772    9.5959    0.3235 C.3       1 <0>         0.0314
     21 C16         0.8267    8.4796    1.2719 C.3       1 <0>         0.1111
     22 H1          2.2045    7.3011    5.4374 H         1 <0>         0.0832
     23 H2          3.9319    6.8713    5.1964 H         1 <0>         0.0780
     24 H3          2.7962    5.6683    5.8962 H         1 <0>         0.0776
     25 H4          0.9422    7.2004    3.2271 H         1 <0>         0.1418
     26 H5          3.4417    3.8721   -0.2636 H         1 <0>         0.4407
     27 H6          2.3208    1.3226    0.0501 H         1 <0>         0.1233
     28 H7          0.2702    0.0334   -0.4145 H         1 <0>         0.1260
     29 H8         -1.8675    1.2043   -0.7411 H         1 <0>         0.1256
     30 H9         -1.9729    3.6514   -0.6202 H         1 <0>         0.1265
     31 H10        -1.1776    6.9729   -1.0815 H         1 <0>         0.1044
     32 H11        -1.7789    8.1660    0.1193 H         1 <0>         0.0695
     33 H12         0.4208    8.6008   -1.9770 H         1 <0>         0.0349
     34 H13        -1.2082    9.3572   -1.9486 H         1 <0>         0.0894
     35 H14         2.0613    9.2147   -0.3472 H         1 <0>         0.0352
     36 H15         1.6735   10.4385    0.9091 H         1 <0>         0.0904
     37 H16         0.1191    8.8797    2.0130 H         1 <0>         0.0755
     38 H17         1.6982    8.0530    1.7901 H         1 <0>         0.0999
     39 H18         0.4513   10.8938   -1.1013 H         1 <0>         0.3455
@<TRIPOS>BOND
     1    1    2 1
     2    1   22 1
     3    1   23 1
     4    1   24 1
     5    2    6 1
     6    2    3 2
     7    3    4 1
     8    3   25 1
     9    4   15 1
    10    4    5 2
    11    5    6 1
    12    5    7 1
    13    7    8 1
    14    7   26 1
    15    8   13 ar
    16    8    9 ar
    17    9   10 ar
    18    9   27 1
    19   10   11 ar
    20   10   28 1
    21   11   12 ar
    22   11   29 1
    23   12   13 ar
    24   12   30 1
    25   13   14 1
    26   14   15 2
    27   15   16 1
    28   16   21 1
    29   16   17 1
    30   17   18 1
    31   17   31 1
    32   17   32 1
    33   18   19 1
    34   18   33 1
    35   18   34 1
    36   19   20 1
    37   19   39 1
    38   20   21 1
    39   20   35 1
    40   20   36 1
    41   21   37 1
    42   21   38 1
@<TRIPOS>MOLECULE
ZINC00000346
   51    53     0     0     0
SMALL
USER_CHARGES

@<TRIPOS>ATOM
      1 C1          1.4244    1.6886   -1.5887 C.3       1 <0>        -0.0469
      2 N1          1.1814    0.2517   -1.4042 N.4       1 <0>        -0.2721
      3 C2          2.0272   -0.5181   -2.3348 C.3       1 <0>        -0.0094
      4 C3          2.9556   -1.4066   -1.4804 C.3       1 <0>        -0.1635
      5 C4          2.9783   -0.6746   -0.1127 C.3       1 <0>         0.0653
      6 H1          3.6979    0.1441   -0.1199 H         1 <0>         0.1168
      7 C5          1.5281   -0.1381   -0.0208 C.3       1 <0>        -0.0050
      8 O1          3.2558   -1.5870    0.9516 O.3       1 <0>        -0.3195
      9 C6          4.5430   -1.7481    1.2962 C.2       1 <0>         0.4516
     10 O2          5.4057   -1.1348    0.7134 O.2       1 <0>        -0.4737
     11 C7          4.9123   -2.6938    2.4098 C.3       1 <0>         0.2145
     12 C8          6.2290   -2.2732    3.0102 C.ar      1 <0>        -0.1385
     13 C9          7.3344   -2.0990    2.1987 C.ar      1 <0>        -0.0834
     14 C10         8.5422   -1.7132    2.7495 C.ar      1 <0>        -0.1241
     15 C11         8.6444   -1.5011    4.1116 C.ar      1 <0>        -0.1009
     16 C12         7.5387   -1.6744    4.9230 C.ar      1 <0>        -0.1214
     17 C13         6.3299   -2.0561    4.3717 C.ar      1 <0>        -0.0984
     18 C14         5.0360   -4.1136    1.8532 C.3       1 <0>        -0.0775
     19 C15         5.9787   -4.1413    0.6245 C.3       1 <0>        -0.1295
     20 C16         5.5417   -5.3961   -0.1594 C.3       1 <0>        -0.1255
     21 C17         4.0846   -5.6813    0.2445 C.3       1 <0>        -0.1278
     22 C18         3.6869   -4.5900    1.2597 C.3       1 <0>        -0.1172
     23 O3          3.8984   -2.6635    3.4164 O.3       1 <0>        -0.5241
     24 C19        -0.2332   -0.0487   -1.6626 C.3       1 <0>        -0.0440
     25 H2          2.4767    1.9057   -1.4048 H         1 <0>         0.1210
     26 H3          1.1678    1.9725   -2.6093 H         1 <0>         0.1263
     27 H4          0.8091    2.2540   -0.8887 H         1 <0>         0.1248
     28 H5          1.4025   -1.1417   -2.9743 H         1 <0>         0.1389
     29 H6          2.6224    0.1621   -2.9440 H         1 <0>         0.1359
     30 H7          2.5397   -2.4086   -1.3744 H         1 <0>         0.1117
     31 H8          3.9554   -1.4469   -1.9126 H         1 <0>         0.1192
     32 H9          1.4851    0.7281    0.6395 H         1 <0>         0.1438
     33 H10         0.8559   -0.9198    0.3330 H         1 <0>         0.1472
     34 H11         7.2546   -2.2647    1.1345 H         1 <0>         0.1341
     35 H12         9.4060   -1.5778    2.1156 H         1 <0>         0.1275
     36 H13         9.5882   -1.2003    4.5420 H         1 <0>         0.1279
     37 H14         7.6186   -1.5090    5.9873 H         1 <0>         0.1294
     38 H15         5.4651   -2.1879    5.0051 H         1 <0>         0.1316
     39 H16         5.3825   -4.8007    2.6251 H         1 <0>         0.1095
     40 H17         5.8418   -3.2459    0.0183 H         1 <0>         0.0667
     41 H18         7.0173   -4.2327    0.9426 H         1 <0>         0.0806
     42 H19         5.6019   -5.2065   -1.2311 H         1 <0>         0.0664
     43 H20         6.1754   -6.2421    0.1067 H         1 <0>         0.0718
     44 H21         3.4375   -5.6302   -0.6313 H         1 <0>         0.0637
     45 H22         4.0111   -6.6658    0.7066 H         1 <0>         0.0706
     46 H23         3.0530   -5.0088    2.0413 H         1 <0>         0.0786
     47 H24         3.1799   -3.7670    0.7561 H         1 <0>         0.0683
     48 H25         3.7652   -1.7923    3.8143 H         1 <0>         0.3851
     49 H26        -0.4867    0.2446   -2.6814 H         1 <0>         0.1254
     50 H27        -0.4061   -1.1178   -1.5386 H         1 <0>         0.1237
     51 H28        -0.8563    0.5041   -0.9597 H         1 <0>         0.1242
@<TRIPOS>BOND
     1    1    2 1
     2    1   25 1
     3    1   26 1
     4    1   27 1
     5    2    7 1
     6    2    3 1
     7    2   24 1
     8    3    4 1
     9    3   28 1
    10    3   29 1
    11    4    5 1
    12    4   30 1
    13    4   31 1
    14    5    6 1
    15    5    7 1
    16    5    8 1
    17    7   32 1
    18    7   33 1
    19    8    9 1
    20    9   10 2
    21    9   11 1
    22   11   12 1
    23   11   18 1
    24   11   23 1
    25   12   17 ar
    26   12   13 ar
    27   13   14 ar
    28   13   34 1
    29   14   15 ar
    30   14   35 1
    31   15   16 ar
    32   15   36 1
    33   16   17 ar
    34   16   37 1
    35   17   38 1
    36   18   22 1
    37   18   19 1
    38   18   39 1
    39   19   20 1
    40   19   40 1
    41   19   41 1
    42   20   21 1
    43   20   42 1
    44   20   43 1
    45   21   22 1
    46   21   44 1
    47   21   45 1
    48   22   46 1
    49   22   47 1
    50   23   48 1
    51   24   49 1
    52   24   50 1
    53   24   51 1
@<TRIPOS>MOLECULE
ZINC00896958
   51    53     0     0     0
SMALL
USER_CHARGES

@<TRIPOS>ATOM
      1 C1         -0.0178    1.4648    0.0101 C.3       1 <0>        -0.0469
      2 N1          0.0021   -0.0041    0.0020 N.4       1 <0>        -0.2722
      3 C2          0.7097   -0.4841   -1.1991 C.3       1 <0>        -0.0092
      4 C3          1.9322   -1.2931   -0.7168 C.3       1 <0>        -0.1633
      5 C4          2.1672   -0.7497    0.7171 C.3       1 <0>         0.0661
      6 H1          2.7372    0.1791    0.6942 H         1 <0>         0.1162
      7 C5          0.7163   -0.4986    1.1983 C.3       1 <0>        -0.0050
      8 O1          2.8167   -1.7256    1.5343 O.3       1 <0>        -0.3200
      9 C6          4.1581   -1.6955    1.5698 C.2       1 <0>         0.4461
     10 O2          4.7610   -0.8679    0.9283 O.2       1 <0>        -0.4727
     11 C7          4.9123   -2.6938    2.4098 C.3       1 <0>         0.2139
     12 C8          6.2985   -2.8778    1.8479 C.ar      1 <0>        -0.1181
     13 C9          7.3354   -2.0780    2.2905 C.ar      1 <0>        -0.0885
     14 C10         8.6069   -2.2467    1.7751 C.ar      1 <0>        -0.1148
     15 C11         8.8416   -3.2155    0.8174 C.ar      1 <0>        -0.1025
     16 C12         7.8048   -4.0159    0.3754 C.ar      1 <0>        -0.1146
     17 C13         6.5342   -3.8501    0.8940 C.ar      1 <0>        -0.1055
     18 C14         5.0089   -2.1807    3.8480 C.3       1 <0>        -0.0849
     19 C15         5.6305   -3.2557    4.7737 C.3       1 <0>        -0.1090
     20 C16         5.1174   -2.8858    6.1807 C.3       1 <0>        -0.1272
     21 C17         3.8252   -2.0753    5.9783 C.3       1 <0>        -0.1247
     22 C18         3.5982   -1.9809    4.4554 C.3       1 <0>        -0.1159
     23 O3          4.2228   -3.9454    2.3959 O.3       1 <0>        -0.5200
     24 C19        -1.3740   -0.5182    0.0002 C.3       1 <0>        -0.0439
     25 H2          1.0047    1.8421    0.0024 H         1 <0>         0.1210
     26 H3         -0.5450    1.8259   -0.8730 H         1 <0>         0.1263
     27 H4         -0.5280    1.8163    0.9069 H         1 <0>         0.1249
     28 H5          0.0508   -1.1230   -1.7872 H         1 <0>         0.1389
     29 H6          1.0396    0.3641   -1.7990 H         1 <0>         0.1358
     30 H7          1.7040   -2.3586   -0.6926 H         1 <0>         0.1112
     31 H8          2.7978   -1.0975   -1.3498 H         1 <0>         0.1186
     32 H9          0.7029    0.2542    1.9865 H         1 <0>         0.1439
     33 H10         0.2676   -1.4270    1.5514 H         1 <0>         0.1473
     34 H11         7.1521   -1.3210    3.0388 H         1 <0>         0.1260
     35 H12         9.4170   -1.6213    2.1204 H         1 <0>         0.1300
     36 H13         9.8349   -3.3468    0.4142 H         1 <0>         0.1293
     37 H14         7.9881   -4.7726   -0.3731 H         1 <0>         0.1292
     38 H15         5.7249   -4.4779    0.5514 H         1 <0>         0.1197
     39 H16         5.5816   -1.2542    3.8883 H         1 <0>         0.0972
     40 H17         5.2841   -4.2496    4.4904 H         1 <0>         0.0842
     41 H18         6.7188   -3.2058    4.7392 H         1 <0>         0.0698
     42 H19         4.9053   -3.7905    6.7506 H         1 <0>         0.0696
     43 H20         5.8597   -2.2812    6.7019 H         1 <0>         0.0661
     44 H21         2.9860   -2.5865    6.4500 H         1 <0>         0.0680
     45 H22         3.9404   -1.0773    6.4012 H         1 <0>         0.0640
     46 H23         3.2033   -1.0006    4.1886 H         1 <0>         0.0564
     47 H24         2.9236   -2.7689    4.1207 H         1 <0>         0.0840
     48 H25         4.1245   -4.3306    1.5144 H         1 <0>         0.3820
     49 H26        -1.8992   -0.1476   -0.8802 H         1 <0>         0.1253
     50 H27        -1.3547   -1.6079   -0.0202 H         1 <0>         0.1237
     51 H28        -1.8892   -0.1807    0.8995 H         1 <0>         0.1242
@<TRIPOS>BOND
     1    1    2 1
     2    1   25 1
     3    1   26 1
     4    1   27 1
     5    2    7 1
     6    2    3 1
     7    2   24 1
     8    3    4 1
     9    3   28 1
    10    3   29 1
    11    4    5 1
    12    4   30 1
    13    4   31 1
    14    5    6 1
    15    5    7 1
    16    5    8 1
    17    7   32 1
    18    7   33 1
    19    8    9 1
    20    9   10 2
    21    9   11 1
    22   11   12 1
    23   11   18 1
    24   11   23 1
    25   12   17 ar
    26   12   13 ar
    27   13   14 ar
    28   13   34 1
    29   14   15 ar
    30   14   35 1
    31   15   16 ar
    32   15   36 1
    33   16   17 ar
    34   16   37 1
    35   17   38 1
    36   18   22 1
    37   18   19 1
    38   18   39 1
    39   19   20 1
    40   19   40 1
    41   19   41 1
    42   20   21 1
    43   20   42 1
    44   20   43 1
    45   21   22 1
    46   21   44 1
    47   21   45 1
    48   22   46 1
    49   22   47 1
    50   23   48 1
    51   24   49 1
    52   24   50 1
    53   24   51 1
@<TRIPOS>MOLECULE
ZINC00896968
   51    53     0     0     0
SMALL
USER_CHARGES

@<TRIPOS>ATOM
      1 C1         -0.7683    2.3255    1.8090 C.3       1 <0>        -0.0456
      2 N1         -0.7454    0.9107    1.4143 N.4       1 <0>        -0.2722
      3 C2         -2.1018    0.3365    1.5421 C.3       1 <0>        -0.0066
      4 C3         -1.8721   -1.1166    2.0273 C.3       1 <0>        -0.1639
      5 C4         -0.6662   -0.9395    2.9872 C.3       1 <0>         0.0664
      6 H1         -1.0018   -0.6122    3.9713 H         1 <0>         0.1195
      7 C5          0.1662    0.1632    2.2999 C.3       1 <0>        -0.0100
      8 O1          0.0816   -2.1530    3.0882 O.3       1 <0>        -0.3234
      9 C6         -0.2621   -3.0007    4.0705 C.2       1 <0>         0.4517
     10 O2         -1.1680   -2.7217    4.8199 O.2       1 <0>        -0.4731
     11 C7          0.4817   -4.3005    4.2388 C.3       1 <0>         0.2144
     12 C8         -0.4068   -5.3019    4.9308 C.ar      1 <0>        -0.1383
     13 C9         -1.0042   -4.9798    6.1351 C.ar      1 <0>        -0.0834
     14 C10        -1.8193   -5.8983    6.7698 C.ar      1 <0>        -0.1239
     15 C11        -2.0373   -7.1388    6.2000 C.ar      1 <0>        -0.1010
     16 C12        -1.4406   -7.4605    4.9953 C.ar      1 <0>        -0.1216
     17 C13        -0.6290   -6.5404    4.3585 C.ar      1 <0>        -0.0987
     18 C14         1.7368   -4.0644    5.0814 C.3       1 <0>        -0.0777
     19 C15         1.3833   -3.3318    6.3995 C.3       1 <0>        -0.1297
     20 C16         2.6995   -2.6419    6.8136 C.3       1 <0>        -0.1258
     21 C17         3.5297   -2.4721    5.5293 C.3       1 <0>        -0.1281
     22 C18         2.6891   -3.0647    4.3795 C.3       1 <0>        -0.1166
     23 O3          0.8574   -4.8040    2.9553 O.3       1 <0>        -0.5241
     24 C19        -0.2904    0.7919    0.0226 C.3       1 <0>        -0.0449
     25 H2          0.2360    2.7415    1.7284 H         1 <0>         0.1246
     26 H3         -1.4430    2.8749    1.1525 H         1 <0>         0.1256
     27 H4         -1.1149    2.4098    2.8390 H         1 <0>         0.1225
     28 H5         -2.6824    0.8945    2.2766 H         1 <0>         0.1371
     29 H6         -2.6073    0.3386    0.5764 H         1 <0>         0.1412
     30 H7         -2.7446   -1.4923    2.5617 H         1 <0>         0.1234
     31 H8         -1.6151   -1.7705    1.1940 H         1 <0>         0.1092
     32 H9          0.9664   -0.2877    1.7130 H         1 <0>         0.1467
     33 H10         0.5861    0.8330    3.0504 H         1 <0>         0.1434
     34 H11        -0.8339   -4.0106    6.5802 H         1 <0>         0.1343
     35 H12        -2.2854   -5.6469    7.7110 H         1 <0>         0.1276
     36 H13        -2.6735   -7.8566    6.6963 H         1 <0>         0.1278
     37 H14        -1.6107   -8.4298    4.5503 H         1 <0>         0.1293
     38 H15        -0.1658   -6.7904    3.4154 H         1 <0>         0.1313
     39 H16         2.2468   -5.0062    5.2844 H         1 <0>         0.1096
     40 H17         0.6024   -2.5913    6.2267 H         1 <0>         0.0667
     41 H18         1.0710   -4.0463    7.1611 H         1 <0>         0.0808
     42 H19         2.4879   -1.6671    7.2531 H         1 <0>         0.0667
     43 H20         3.2389   -3.2646    7.5273 H         1 <0>         0.0719
     44 H21         3.7211   -1.4149    5.3454 H         1 <0>         0.0641
     45 H22         4.4721   -3.0123    5.6197 H         1 <0>         0.0707
     46 H23         3.3299   -3.5842    3.6670 H         1 <0>         0.0786
     47 H24         2.1191   -2.2810    3.8805 H         1 <0>         0.0673
     48 H25         0.1101   -4.9771    2.3666 H         1 <0>         0.3845
     49 H26         0.7182    1.1956   -0.0656 H         1 <0>         0.1243
     50 H27        -0.2885   -0.2579   -0.2706 H         1 <0>         0.1227
     51 H28        -0.9634    1.3498   -0.6285 H         1 <0>         0.1246
@<TRIPOS>BOND
     1    1    2 1
     2    1   25 1
     3    1   26 1
     4    1   27 1
     5    2    7 1
     6    2    3 1
     7    2   24 1
     8    3    4 1
     9    3   28 1
    10    3   29 1
    11    4    5 1
    12    4   30 1
    13    4   31 1
    14    5    6 1
    15    5    7 1
    16    5    8 1
    17    7   32 1
    18    7   33 1
    19    8    9 1
    20    9   10 2
    21    9   11 1
    22   11   12 1
    23   11   18 1
    24   11   23 1
    25   12   17 ar
    26   12   13 ar
    27   13   14 ar
    28   13   34 1
    29   14   15 ar
    30   14   35 1
    31   15   16 ar
    32   15   36 1
    33   16   17 ar
    34   16   37 1
    35   17   38 1
    36   18   22 1
    37   18   19 1
    38   18   39 1
    39   19   20 1
    40   19   40 1
    41   19   41 1
    42   20   21 1
    43   20   42 1
    44   20   43 1
    45   21   22 1
    46   21   44 1
    47   21   45 1
    48   22   46 1
    49   22   47 1
    50   23   48 1
    51   24   49 1
    52   24   50 1
    53   24   51 1
@<TRIPOS>MOLECULE
ZINC00968301
   51    53     0     0     0
SMALL
USER_CHARGES

@<TRIPOS>ATOM
      1 C1         -0.0178    1.4648    0.0101 C.3       1 <0>        -0.0447
      2 N1          0.0021   -0.0041    0.0020 N.4       1 <0>        -0.2723
      3 C2          0.7116   -0.4854   -1.2024 C.3       1 <0>        -0.0067
      4 C3          2.1644   -0.7417   -0.7297 C.3       1 <0>        -0.1645
      5 C4          1.9349   -1.3008    0.6992 C.3       1 <0>         0.0670
      6 H1          1.7066   -2.3661    0.6641 H         1 <0>         0.1186
      7 C5          0.7144   -0.4972    1.1951 C.3       1 <0>        -0.0092
      8 O1          3.0746   -1.0571    1.5261 O.3       1 <0>        -0.3240
      9 C6          4.0140   -2.0151    1.5669 C.2       1 <0>         0.4458
     10 O2          3.8733   -3.0270    0.9218 O.2       1 <0>        -0.4720
     11 C7          5.2441   -1.8285    2.4172 C.3       1 <0>         0.2138
     12 C8          5.8060   -3.1761    2.7903 C.ar      1 <0>        -0.1185
     13 C9          6.7475   -3.7811    1.9789 C.ar      1 <0>        -0.0885
     14 C10         7.2630   -5.0172    2.3211 C.ar      1 <0>        -0.1149
     15 C11         6.8372   -5.6482    3.4750 C.ar      1 <0>        -0.1025
     16 C12         5.8964   -5.0428    4.2869 C.ar      1 <0>        -0.1145
     17 C13         5.3841   -3.8047    3.9469 C.ar      1 <0>        -0.1055
     18 C14         6.2925   -1.0387    1.6311 C.3       1 <0>        -0.0843
     19 C15         7.5022   -0.6850    2.5314 C.3       1 <0>        -0.1092
     20 C16         8.1269    0.5535    1.8564 C.3       1 <0>        -0.1272
     21 C17         7.0095    1.2142    1.0301 C.3       1 <0>        -0.1247
     22 C18         5.7449    0.3541    1.2318 C.3       1 <0>        -0.1151
     23 O3          4.8985   -1.1113    3.6039 O.3       1 <0>        -0.5207
     24 C19        -1.3740   -0.5182    0.0002 C.3       1 <0>        -0.0456
     25 H2          1.0047    1.8421    0.0024 H         1 <0>         0.1228
     26 H3         -0.5450    1.8259   -0.8730 H         1 <0>         0.1245
     27 H4         -0.5280    1.8163    0.9069 H         1 <0>         0.1243
     28 H5          0.2615   -1.4100   -1.5639 H         1 <0>         0.1371
     29 H6          0.6951    0.2760   -1.9822 H         1 <0>         0.1411
     30 H7          2.6567   -1.4795   -1.3633 H         1 <0>         0.1235
     31 H8          2.7345    0.1867   -0.6988 H         1 <0>         0.1097
     32 H9          1.0466    0.3444    1.8028 H         1 <0>         0.1468
     33 H10         0.0578   -1.1425    1.7786 H         1 <0>         0.1430
     34 H11         7.0801   -3.2881    1.0773 H         1 <0>         0.1259
     35 H12         7.9980   -5.4902    1.6868 H         1 <0>         0.1300
     36 H13         7.2394   -6.6143    3.7421 H         1 <0>         0.1294
     37 H14         5.5635   -5.5359    5.1883 H         1 <0>         0.1293
     38 H15         4.6518   -3.3300    4.5832 H         1 <0>         0.1199
     39 H16         6.6125   -1.5950    0.7501 H         1 <0>         0.0971
     40 H17         7.1688   -0.4422    3.5403 H         1 <0>         0.0841
     41 H18         8.2158   -1.5087    2.5523 H         1 <0>         0.0699
     42 H19         8.4913    1.2475    2.6138 H         1 <0>         0.0696
     43 H20         8.9448    0.2500    1.2029 H         1 <0>         0.0661
     44 H21         6.8317    2.2289    1.3865 H         1 <0>         0.0676
     45 H22         7.2852    1.2313   -0.0243 H         1 <0>         0.0638
     46 H23         5.1760    0.2888    0.3043 H         1 <0>         0.0558
     47 H24         5.1277    0.7648    2.0309 H         1 <0>         0.0835
     48 H25         4.2369   -1.5544    4.1526 H         1 <0>         0.3823
     49 H26        -1.8992   -0.1476   -0.8802 H         1 <0>         0.1255
     50 H27        -1.3547   -1.6079   -0.0202 H         1 <0>         0.1223
     51 H28        -1.8892   -0.1807    0.8995 H         1 <0>         0.1244
@<TRIPOS>BOND
     1    1    2 1
     2    1   25 1
     3    1   26 1
     4    1   27 1
     5    2    7 1
     6    2    3 1
     7    2   24 1
     8    3    4 1
     9    3   28 1
    10    3   29 1
    11    4    5 1
    12    4   30 1
    13    4   31 1
    14    5    6 1
    15    5    7 1
    16    5    8 1
    17    7   32 1
    18    7   33 1
    19    8    9 1
    20    9   10 2
    21    9   11 1
    22   11   12 1
    23   11   18 1
    24   11   23 1
    25   12   17 ar
    26   12   13 ar
    27   13   14 ar
    28   13   34 1
    29   14   15 ar
    30   14   35 1
    31   15   16 ar
    32   15   36 1
    33   16   17 ar
    34   16   37 1
    35   17   38 1
    36   18   22 1
    37   18   19 1
    38   18   39 1
    39   19   20 1
    40   19   40 1
    41   19   41 1
    42   20   21 1
    43   20   42 1
    44   20   43 1
    45   21   22 1
    46   21   44 1
    47   21   45 1
    48   22   46 1
    49   22   47 1
    50   23   48 1
    51   24   49 1
    52   24   50 1
    53   24   51 1
@<TRIPOS>MOLECULE
ZINC02022527
   54    55     0     0     0
SMALL
USER_CHARGES

@<TRIPOS>ATOM
      1 C1         -3.0730    2.2881   -4.2693 C.3       1 <0>        -0.1569
      2 C2         -2.3049    1.5870   -3.1471 C.3       1 <0>        -0.1270
      3 C3         -2.8110    2.0874   -1.7927 C.3       1 <0>        -0.1231
      4 C4         -2.0429    1.3862   -0.6705 C.3       1 <0>        -0.1174
      5 C5         -2.5490    1.8867    0.6839 C.3       1 <0>        -0.1006
      6 C6         -2.2117    3.3722    0.8391 C.3       1 <0>        -0.1451
      7 C7         -2.6658    3.8518    2.2196 C.3       1 <0>        -0.0114
      8 C8         -2.3347    1.6429    3.1595 C.3       1 <0>        -0.0001
      9 C9         -1.8707    1.0973    1.8070 C.3       1 <0>        -0.1442
     10 C10        -2.2939    3.5901    4.5974 C.3       1 <0>        -0.0052
     11 C11        -2.1583    5.1140    4.5919 C.3       1 <0>        -0.1459
     12 C12        -2.4764    5.6593    5.9856 C.3       1 <0>        -0.1543
     13 C13        -2.3428    7.1604    5.9803 C.2       1 <0>         0.3987
     14 O1         -2.0245    7.7371    4.9623 O.2       1 <0>        -0.4456
     15 C14        -2.5986    7.9263    7.2106 C.ar      1 <0>        -0.1885
     16 C15        -3.0878    7.2813    8.3513 C.ar      1 <0>        -0.0705
     17 C16        -3.3195    8.0047    9.5018 C.ar      1 <0>        -0.1389
     18 C17        -3.0801    9.3679    9.5265 C.ar      1 <0>        -0.0729
     19 C18        -2.6016   10.0143    8.4004 C.ar      1 <0>        -0.1345
     20 C19        -2.3594    9.3036    7.2436 C.ar      1 <0>        -0.0178
     21 C20        -1.8387   10.0095    6.0182 C.3       1 <0>        -0.1264
     22 H1         -4.1363    2.0676   -4.1746 H         1 <0>         0.0549
     23 H2         -2.9175    3.3647   -4.1985 H         1 <0>         0.0540
     24 H3         -2.7125    1.9316   -5.2342 H         1 <0>         0.0581
     25 H4         -1.2417    1.8075   -3.2417 H         1 <0>         0.0621
     26 H5         -2.4605    0.5104   -3.2179 H         1 <0>         0.0631
     27 H6         -3.8743    1.8669   -1.6981 H         1 <0>         0.0644
     28 H7         -2.6555    3.1639   -1.7219 H         1 <0>         0.0632
     29 H8         -2.1984    0.3097   -0.7413 H         1 <0>         0.0733
     30 H9         -0.9796    1.6067   -0.7651 H         1 <0>         0.0688
     31 H10        -3.6287    1.7492    0.7427 H         1 <0>         0.0884
     32 H11        -1.1354    3.5132    0.7407 H         1 <0>         0.0881
     33 H12        -2.7264    3.9447    0.0675 H         1 <0>         0.1133
     34 H13        -3.7442    3.7233    2.3122 H         1 <0>         0.1295
     35 H14        -2.4142    4.9057    2.3388 H         1 <0>         0.1342
     36 H15        -3.4146    1.5248    3.2476 H         1 <0>         0.1293
     37 H16        -1.8426    1.0924    3.9613 H         1 <0>         0.1282
     38 H17        -2.1418    0.0446    1.7270 H         1 <0>         0.1118
     39 H18        -0.7890    1.2025    1.7239 H         1 <0>         0.0880
     40 H19        -3.3133    3.3170    4.8704 H         1 <0>         0.1315
     41 H20        -1.5979    3.1659    5.3211 H         1 <0>         0.1302
     42 H21        -1.1389    5.3871    4.3190 H         1 <0>         0.0944
     43 H22        -2.8542    5.5382    3.8682 H         1 <0>         0.0968
     44 H23        -3.4115    5.4088    6.2361 H         1 <0>         0.0981
     45 H24        -1.7805    5.2352    6.7093 H         1 <0>         0.1100
     46 H25        -3.2793    6.2186    8.3321 H         1 <0>         0.1290
     47 H26        -3.6933    7.5074   10.3846 H         1 <0>         0.1322
     48 H27        -3.2682    9.9300   10.4293 H         1 <0>         0.1326
     49 H28        -2.4176   11.0782    8.4274 H         1 <0>         0.1332
     50 H29        -2.6709   10.2515    5.3572 H         1 <0>         0.0784
     51 H30        -1.3321   10.9277    6.3156 H         1 <0>         0.0652
     52 H31        -1.1365    9.3600    5.4956 H         1 <0>         0.0893
     53 N1         -1.9588    3.0696    3.2558 N.4       1 <0>        -0.3931
     54 H32        -0.9467    3.1581    3.1071 H         1 <0>         0.4272
@<TRIPOS>BOND
     1    1    2 1
     2    1   22 1
     3    1   23 1
     4    1   24 1
     5    2    3 1
     6    2   25 1
     7    2   26 1
     8    3    4 1
     9    3   27 1
    10    3   28 1
    11    4    5 1
    12    4   29 1
    13    4   30 1
    14    5    9 1
    15    5    6 1
    16    5   31 1
    17    6    7 1
    18    6   32 1
    19    6   33 1
    20    7   34 1
    21    7   35 1
    22    7   53 1
    23    8    9 1
    24    8   36 1
    25    8   37 1
    26    8   53 1
    27    9   38 1
    28    9   39 1
    29   10   11 1
    30   10   40 1
    31   10   41 1
    32   10   53 1
    33   11   12 1
    34   11   42 1
    35   11   43 1
    36   12   13 1
    37   12   44 1
    38   12   45 1
    39   13   14 2
    40   13   15 1
    41   15   20 ar
    42   15   16 ar
    43   16   17 ar
    44   16   46 1
    45   17   18 ar
    46   17   47 1
    47   18   19 ar
    48   18   48 1
    49   19   20 ar
    50   19   49 1
    51   20   21 1
    52   21   50 1
    53   21   51 1
    54   21   52 1
    55   53   54 1
@<TRIPOS>MOLECULE
ZINC02516022
   32    32     0     0     0
SMALL
USER_CHARGES

@<TRIPOS>ATOM
      1 C1          0.3388    1.5532   -0.3086 C.3       1 <0>        -0.1547
      2 C2          0.2600    0.0293   -0.1965 C.3       1 <0>         0.0410
      3 H1         -0.7802   -0.2950   -0.1665 H         1 <0>         0.0876
      4 C3          0.9967   -0.6357   -1.3804 C.3       1 <0>         0.0764
      5 H2          1.7493    0.0385   -1.7892 H         1 <0>         0.0826
      6 C4          1.6669   -1.8794   -0.7546 C.3       1 <0>        -0.1422
      7 C5          1.2558   -1.8186    0.7333 C.3       1 <0>         0.0485
      8 H3          0.3688   -2.4278    0.9070 H         1 <0>         0.0956
      9 O1          0.9626   -0.4252    0.9806 O.3       1 <0>        -0.3661
     10 C6          2.4072   -2.2900    1.6237 C.3       1 <0>        -0.0004
     11 N1          1.9433   -2.3862    3.0141 N.4       1 <0>        -0.2703
     12 C7          0.8951   -3.4108    3.1108 C.3       1 <0>        -0.0519
     13 C8          3.0698   -2.7548    3.8819 C.3       1 <0>        -0.0450
     14 C9          1.4009   -1.0892    3.4403 C.3       1 <0>        -0.0444
     15 O2          0.0676   -1.0216   -2.3952 O.3       1 <0>        -0.5551
     16 H4          1.3838    1.8628   -0.3250 H         1 <0>         0.0696
     17 H5         -0.1501    1.8756   -1.2279 H         1 <0>         0.0797
     18 H6         -0.1612    2.0067    0.5472 H         1 <0>         0.0718
     19 H7          1.2892   -2.7907   -1.2183 H         1 <0>         0.1053
     20 H8          2.7507   -1.8200   -0.8541 H         1 <0>         0.0963
     21 H9          2.7503   -3.2681    1.2866 H         1 <0>         0.1420
     22 H10         3.2288   -1.5762    1.5634 H         1 <0>         0.1379
     23 H11         1.2975   -4.3732    2.7946 H         1 <0>         0.1227
     24 H12         0.5508   -3.4823    4.1425 H         1 <0>         0.1247
     25 H13         0.0592   -3.1373    2.4669 H         1 <0>         0.1205
     26 H14         3.8476   -1.9945    3.8102 H         1 <0>         0.1217
     27 H15         2.7256   -2.8262    4.9136 H         1 <0>         0.1236
     28 H16         3.4723   -3.7172    3.5657 H         1 <0>         0.1213
     29 H17         0.4767   -0.8864    2.8992 H         1 <0>         0.1324
     30 H18         1.1972   -1.1146    4.5107 H         1 <0>         0.1162
     31 H19         2.1265   -0.3042    3.2270 H         1 <0>         0.1220
     32 H20        -0.4239   -0.2829   -2.7799 H         1 <0>         0.3910
@<TRIPOS>BOND
     1    1    2 1
     2    1   16 1
     3    1   17 1
     4    1   18 1
     5    2    3 1
     6    2    9 1
     7    2    4 1
     8    4    5 1
     9    4    6 1
    10    4   15 1
    11    6    7 1
    12    6   19 1
    13    6   20 1
    14    7    8 1
    15    7    9 1
    16    7   10 1
    17   10   11 1
    18   10   21 1
    19   10   22 1
    20   11   12 1
    21   11   13 1
    22   11   14 1
    23   12   23 1
    24   12   24 1
    25   12   25 1
    26   13   26 1
    27   13   27 1
    28   13   28 1
    29   14   29 1
    30   14   30 1
    31   14   31 1
    32   15   32 1
@<TRIPOS>MOLECULE
ZINC00057478
   49    52     0     0     0
SMALL
USER_CHARGES
quinuclidin-3-yl 2-hydroxy-2,2-diphenyl-acetate
@<TRIPOS>ATOM
      1 C1          1.4720    2.0015    1.7120 C.ar      1 <0>        -0.1030
      2 C2          1.8758    1.1616    0.6910 C.ar      1 <0>        -0.1147
      3 C3          0.9814    0.2625    0.1411 C.ar      1 <0>        -0.1168
      4 C4         -0.3174    0.2046    0.6107 C.ar      1 <0>        -0.0905
      5 C5         -0.7218    1.0457    1.6304 C.ar      1 <0>        -0.0762
      6 C6          0.1729    1.9442    2.1811 C.ar      1 <0>        -0.1166
      7 C7         -1.2926   -0.7753    0.0108 C.3       1 <0>         0.2533
      8 C8         -1.0593   -2.1418    0.6016 C.ar      1 <0>        -0.1288
      9 C9          0.1993   -2.7112    0.5507 C.ar      1 <0>        -0.0766
     10 C10         0.4144   -3.9627    1.0970 C.ar      1 <0>        -0.1190
     11 C11        -0.6315   -4.6493    1.6848 C.ar      1 <0>        -0.1004
     12 C12        -1.8913   -4.0821    1.7311 C.ar      1 <0>        -0.1192
     13 C13        -2.1052   -2.8284    1.1895 C.ar      1 <0>        -0.1020
     14 C14        -1.0930   -0.8326   -1.4818 C.2       1 <0>         0.4468
     15 O1         -0.3846   -1.6842   -1.9644 O.2       1 <0>        -0.4737
     16 O2         -1.7023    0.0624   -2.2753 O.3       1 <0>        -0.3270
     17 C15        -1.4646   -0.0529   -3.7030 C.3       1 <0>         0.0725
     18 H1         -0.4745   -0.4748   -3.8756 H         1 <0>         0.1215
     19 C16        -2.5281   -0.9599   -4.3287 C.3       1 <0>        -0.0183
     20 C17        -3.9834    0.9338   -4.7344 C.3       1 <0>        -0.0019
     21 C18        -2.9614    1.8944   -4.1200 C.3       1 <0>        -0.1364
     22 C19        -1.5526    1.3339   -4.3524 C.3       1 <0>        -0.0967
     23 C20        -1.3293    1.1822   -5.8624 C.3       1 <0>        -0.1347
     24 C21        -2.3971    0.2417   -6.4281 C.3       1 <0>        -0.0048
     25 O3         -2.6278   -0.3542    0.2970 O.3       1 <0>        -0.5211
     26 H2          2.1710    2.7035    2.1422 H         1 <0>         0.1300
     27 H3          2.8907    1.2067    0.3243 H         1 <0>         0.1296
     28 H4          1.2986   -0.3978   -0.6525 H         1 <0>         0.1211
     29 H5         -1.7366    1.0007    1.9971 H         1 <0>         0.1361
     30 H6         -0.1430    2.6012    2.9780 H         1 <0>         0.1315
     31 H7          1.0154   -2.1766    0.0875 H         1 <0>         0.1253
     32 H8          1.3986   -4.4059    1.0606 H         1 <0>         0.1293
     33 H9         -0.4645   -5.6289    2.1077 H         1 <0>         0.1293
     34 H10        -2.7085   -4.6187    2.1901 H         1 <0>         0.1301
     35 H11        -3.0896   -2.3855    1.2253 H         1 <0>         0.1281
     36 H12        -2.0448   -1.8163   -4.7988 H         1 <0>         0.1413
     37 H13        -3.2111   -1.3076   -3.5536 H         1 <0>         0.1353
     38 H14        -4.6564    0.5726   -3.9568 H         1 <0>         0.1295
     39 H15        -4.5584    1.4553   -5.4996 H         1 <0>         0.1320
     40 H16        -3.1453    1.9877   -3.0497 H         1 <0>         0.1099
     41 H17        -3.0475    2.8731   -4.5920 H         1 <0>         0.1050
     42 H18        -0.8077    1.9998   -3.9167 H         1 <0>         0.1257
     43 H19        -1.4096    2.1571   -6.3432 H         1 <0>         0.1124
     44 H20        -0.3398    0.7631   -6.0450 H         1 <0>         0.1043
     45 H21        -1.9153   -0.6235   -6.8837 H         1 <0>         0.1309
     46 H22        -2.9849    0.7684   -7.1799 H         1 <0>         0.1343
     47 H23        -3.3099   -0.9395   -0.0598 H         1 <0>         0.3849
     48 N1         -3.2990   -0.2219   -5.3524 N.4       1 <0>        -0.3882
     49 H24        -4.0038   -0.8501   -5.7559 H         1 <0>         0.4368
@<TRIPOS>BOND
     1    1    6 ar
     2    1    2 ar
     3    1   26 1
     4    2    3 ar
     5    2   27 1
     6    3    4 ar
     7    3   28 1
     8    4    5 ar
     9    4    7 1
    10    5    6 ar
    11    5   29 1
    12    6   30 1
    13    7    8 1
    14    7   14 1
    15    7   25 1
    16    8   13 ar
    17    8    9 ar
    18    9   10 ar
    19    9   31 1
    20   10   11 ar
    21   10   32 1
    22   11   12 ar
    23   11   33 1
    24   12   13 ar
    25   12   34 1
    26   13   35 1
    27   14   15 2
    28   14   16 1
    29   16   17 1
    30   17   18 1
    31   17   22 1
    32   17   19 1
    33   19   36 1
    34   19   37 1
    35   19   48 1
    36   20   21 1
    37   20   38 1
    38   20   39 1
    39   20   48 1
    40   21   22 1
    41   21   40 1
    42   21   41 1
    43   22   23 1
    44   22   42 1
    45   23   24 1
    46   23   43 1
    47   23   44 1
    48   24   45 1
    49   24   46 1
    50   24   48 1
    51   25   47 1
    52   48   49 1
@<TRIPOS>MOLECULE
ZINC00057479
   49    52     0     0     0
SMALL
USER_CHARGES
quinuclidin-3-yl 2-hydroxy-2,2-diphenyl-acetate
@<TRIPOS>ATOM
      1 C1          0.1683   -0.8233   -3.3647 C.ar      1 <0>        -0.1003
      2 C2         -0.5192   -0.9452   -2.1717 C.ar      1 <0>        -0.1206
      3 C3         -0.1575   -0.1733   -1.0835 C.ar      1 <0>        -0.0993
      4 C4          0.8920    0.7203   -1.1882 C.ar      1 <0>        -0.1324
      5 C5          1.5761    0.8460   -2.3828 C.ar      1 <0>        -0.0766
      6 C6          1.2172    0.0709   -3.4697 C.ar      1 <0>        -0.1211
      7 C7          1.2864    1.5618   -0.0018 C.3       1 <0>         0.2537
      8 C8          1.0779    3.0183   -0.3276 C.ar      1 <0>        -0.0915
      9 C9          1.9720    3.6773   -1.1505 C.ar      1 <0>        -0.1148
     10 C10         1.7784    5.0122   -1.4529 C.ar      1 <0>        -0.1150
     11 C11         0.6958    5.6905   -0.9250 C.ar      1 <0>        -0.1030
     12 C12        -0.1954    5.0328   -0.0978 C.ar      1 <0>        -0.1175
     13 C13        -0.0042    3.6968    0.2010 C.ar      1 <0>        -0.0769
     14 C14         2.7383    1.3225    0.3233 C.2       1 <0>         0.4475
     15 O1          3.4953    0.9410   -0.5376 O.2       1 <0>        -0.4746
     16 O2          3.1905    1.5333    1.5694 O.3       1 <0>        -0.3268
     17 C15         4.6003    1.2824    1.8103 C.3       1 <0>         0.0725
     18 H1          5.1660    1.4714    0.8980 H         1 <0>         0.1212
     19 C16         4.7957   -0.1736    2.2430 C.3       1 <0>        -0.0183
     20 C17         6.7236    0.4252    3.5821 C.3       1 <0>        -0.0050
     21 C18         6.5842    1.9003    3.1846 C.3       1 <0>        -0.1343
     22 C19         5.1031    2.2054    2.9275 C.3       1 <0>        -0.0961
     23 C20         4.3106    1.8963    4.2073 C.3       1 <0>        -0.1364
     24 C21         4.5144    0.4236    4.5738 C.3       1 <0>        -0.0018
     25 O3          0.4812    1.2054    1.1237 O.3       1 <0>        -0.5215
     26 H2         -0.1138   -1.4269   -4.2147 H         1 <0>         0.1288
     27 H3         -1.3387   -1.6439   -2.0896 H         1 <0>         0.1300
     28 H4         -0.6946   -0.2686   -0.1514 H         1 <0>         0.1308
     29 H5          2.3932    1.5473   -2.4659 H         1 <0>         0.1272
     30 H6          1.7546    0.1660   -4.4017 H         1 <0>         0.1287
     31 H7          2.8200    3.1484   -1.5599 H         1 <0>         0.1216
     32 H8          2.4745    5.5259   -2.0994 H         1 <0>         0.1296
     33 H9          0.5460    6.7341   -1.1590 H         1 <0>         0.1298
     34 H10        -1.0413    5.5627    0.3146 H         1 <0>         0.1313
     35 H11        -0.7005    3.1830    0.8472 H         1 <0>         0.1367
     36 H12         3.8303   -0.6791    2.2650 H         1 <0>         0.1352
     37 H13         5.4542   -0.6778    1.5357 H         1 <0>         0.1413
     38 H14         7.1600    0.3561    4.5785 H         1 <0>         0.1344
     39 H15         7.3687   -0.0837    2.8660 H         1 <0>         0.1308
     40 H16         7.1588    2.0893    2.2779 H         1 <0>         0.1040
     41 H17         6.9534    2.5353    3.9899 H         1 <0>         0.1126
     42 H18         4.9674    3.2484    2.6414 H         1 <0>         0.1260
     43 H19         3.2513    2.0866    4.0350 H         1 <0>         0.1099
     44 H20         4.6675    2.5279    5.0208 H         1 <0>         0.1048
     45 H21         3.5511   -0.0864    4.5797 H         1 <0>         0.1294
     46 H22         4.9688    0.3540    5.5622 H         1 <0>         0.1320
     47 H23         0.5651    0.2796    1.3900 H         1 <0>         0.3858
     48 N1          5.4008   -0.2351    3.5909 N.4       1 <0>        -0.3881
     49 H24         5.5211   -1.2193    3.8576 H         1 <0>         0.4368
@<TRIPOS>BOND
     1    1    6 ar
     2    1    2 ar
     3    1   26 1
     4    2    3 ar
     5    2   27 1
     6    3    4 ar
     7    3   28 1
     8    4    5 ar
     9    4    7 1
    10    5    6 ar
    11    5   29 1
    12    6   30 1
    13    7    8 1
    14    7   14 1
    15    7   25 1
    16    8   13 ar
    17    8    9 ar
    18    9   10 ar
    19    9   31 1
    20   10   11 ar
    21   10   32 1
    22   11   12 ar
    23   11   33 1
    24   12   13 ar
    25   12   34 1
    26   13   35 1
    27   14   15 2
    28   14   16 1
    29   16   17 1
    30   17   18 1
    31   17   22 1
    32   17   19 1
    33   19   36 1
    34   19   37 1
    35   19   48 1
    36   20   21 1
    37   20   38 1
    38   20   39 1
    39   20   48 1
    40   21   22 1
    41   21   40 1
    42   21   41 1
    43   22   23 1
    44   22   42 1
    45   23   24 1
    46   23   43 1
    47   23   44 1
    48   24   45 1
    49   24   46 1
    50   24   48 1
    51   25   47 1
    52   48   49 1
@<TRIPOS>MOLECULE
ZINC01996117
   63    67     0     0     0
SMALL
USER_CHARGES

@<TRIPOS>ATOM
      1 C1          6.2679   -0.9746   -3.4775 C.ar      1 <0>        -0.1035
      2 C2          6.2774    0.1494   -2.6728 C.ar      1 <0>        -0.1058
      3 C3          5.4460    0.2173   -1.5705 C.ar      1 <0>        -0.1005
      4 C4          4.6049   -0.8386   -1.2731 C.ar      1 <0>        -0.1025
      5 C5          4.5947   -1.9622   -2.0782 C.ar      1 <0>        -0.1272
      6 C6          5.4271   -2.0307   -3.1798 C.ar      1 <0>        -0.1102
      7 C7          3.6993   -0.7650   -0.0708 C.3       1 <0>         0.0236
      8 C8          2.6283    0.2677   -0.3111 C.ar      1 <0>        -0.0909
      9 C9          2.5129    0.8682   -1.5508 C.ar      1 <0>        -0.0999
     10 C10         1.5305    1.8154   -1.7712 C.ar      1 <0>        -0.1205
     11 C11         0.6633    2.1618   -0.7520 C.ar      1 <0>        -0.1024
     12 C12         0.7781    1.5607    0.4875 C.ar      1 <0>        -0.1224
     13 C13         1.7578    0.6103    0.7066 C.ar      1 <0>        -0.0890
     14 C14         3.0485   -2.1300    0.1619 C.3       1 <0>        -0.0907
     15 H1          2.4325   -2.4056   -0.6941 H         1 <0>         0.1334
     16 C15         2.1954   -2.1050    1.4509 C.3       1 <0>        -0.1547
     17 C16         2.4706   -3.4959    2.0755 C.3       1 <0>        -0.0075
     18 N1          3.9085   -3.7227    1.7802 N.4       1 <0>        -0.3960
     19 C17         4.1269   -3.2007    0.4113 C.3       1 <0>        -0.0193
     20 C18         4.2152   -5.1585    1.8284 C.3       1 <0>        -0.0052
     21 C19         4.0516   -5.6671    3.2621 C.3       1 <0>        -0.0913
     22 C20         4.3663   -7.1400    3.3116 C.ar      1 <0>        -0.1400
     23 C21         3.3641   -8.0709    3.1080 C.ar      1 <0>        -0.0707
     24 C22         3.6475   -9.4201    3.1480 C.ar      1 <0>        -0.1359
     25 C23         4.9469   -9.8570    3.3944 C.ar      1 <0>         0.1259
     26 C24         5.9434   -8.9127    3.6046 C.ar      1 <0>        -0.1703
     27 C25         5.6599   -7.5657    3.5551 C.ar      1 <0>        -0.0581
     28 C26         7.2284   -9.6738    3.8681 C.3       1 <0>        -0.1145
     29 C27         6.7019  -11.0988    4.1605 C.3       1 <0>         0.0488
     30 O1          5.4442  -11.1223    3.4644 O.3       1 <0>        -0.2994
     31 C28         4.5056   -0.3795    1.1426 C.2       1 <0>         0.5197
     32 O2          4.1054    0.4924    1.8847 O.2       1 <0>        -0.4969
     33 N2          5.6714   -1.0036    1.4031 N.am      1 <0>        -0.8651
     34 H2          6.9142   -1.0258   -4.3412 H         1 <0>         0.1309
     35 H3          6.9346    0.9743   -2.9052 H         1 <0>         0.1313
     36 H4          5.4539    1.0951   -0.9414 H         1 <0>         0.1238
     37 H5          3.9381   -2.7874   -1.8455 H         1 <0>         0.1247
     38 H6          5.4195   -2.9087   -3.8086 H         1 <0>         0.1306
     39 H7          3.1904    0.5975   -2.3471 H         1 <0>         0.1262
     40 H8          1.4408    2.2851   -2.7396 H         1 <0>         0.1264
     41 H9         -0.1038    2.9024   -0.9240 H         1 <0>         0.1267
     42 H10         0.1008    1.8317    1.2839 H         1 <0>         0.1264
     43 H11         1.8452    0.1380    1.6739 H         1 <0>         0.1274
     44 H12         2.5281   -1.3099    2.1182 H         1 <0>         0.1084
     45 H13         1.1380   -1.9920    1.2116 H         1 <0>         0.1282
     46 H14         2.2974   -3.4756    3.1515 H         1 <0>         0.1396
     47 H15         1.8551   -4.2597    1.6001 H         1 <0>         0.1404
     48 H16         4.0251   -4.0065   -0.3156 H         1 <0>         0.1453
     49 H17         5.1182   -2.7535    0.3375 H         1 <0>         0.1318
     50 H18         3.5330   -5.6980    1.1714 H         1 <0>         0.1343
     51 H19         5.2415   -5.3220    1.4998 H         1 <0>         0.1314
     52 H20         4.7338   -5.1275    3.9191 H         1 <0>         0.0929
     53 H21         3.0253   -5.5036    3.5907 H         1 <0>         0.0956
     54 H22         2.3540   -7.7396    2.9170 H         1 <0>         0.1333
     55 H23         2.8591  -10.1405    2.9875 H         1 <0>         0.1358
     56 H24         6.4466   -6.8421    3.7101 H         1 <0>         0.1264
     57 H25         7.8714   -9.6690    2.9880 H         1 <0>         0.0954
     58 H26         7.7517   -9.2667    4.7333 H         1 <0>         0.0968
     59 H27         7.3802  -11.8512    3.7580 H         1 <0>         0.1142
     60 H28         6.5538  -11.2438    5.2306 H         1 <0>         0.0839
     61 H29         6.0369   -1.6350    0.7639 H         1 <0>         0.3981
     62 H30         6.1448   -0.8214    2.2299 H         1 <0>         0.4099
     63 H31         4.4827   -3.2205    2.4406 H         1 <0>         0.4229
@<TRIPOS>BOND
     1    1    6 ar
     2    1    2 ar
     3    1   34 1
     4    2    3 ar
     5    2   35 1
     6    3    4 ar
     7    3   36 1
     8    4    5 ar
     9    4    7 1
    10    5    6 ar
    11    5   37 1
    12    6   38 1
    13    7    8 1
    14    7   14 1
    15    7   31 1
    16    8   13 ar
    17    8    9 ar
    18    9   10 ar
    19    9   39 1
    20   10   11 ar
    21   10   40 1
    22   11   12 ar
    23   11   41 1
    24   12   13 ar
    25   12   42 1
    26   13   43 1
    27   14   15 1
    28   14   19 1
    29   14   16 1
    30   16   17 1
    31   16   44 1
    32   16   45 1
    33   17   18 1
    34   17   46 1
    35   17   47 1
    36   18   19 1
    37   18   20 1
    38   18   63 1
    39   19   48 1
    40   19   49 1
    41   20   21 1
    42   20   50 1
    43   20   51 1
    44   21   22 1
    45   21   52 1
    46   21   53 1
    47   22   27 ar
    48   22   23 ar
    49   23   24 ar
    50   23   54 1
    51   24   25 ar
    52   24   55 1
    53   25   30 1
    54   25   26 ar
    55   26   27 ar
    56   26   28 1
    57   27   56 1
    58   28   29 1
    59   28   57 1
    60   28   58 1
    61   29   30 1
    62   29   59 1
    63   29   60 1
    64   31   32 2
    65   31   33 am
    66   33   61 1
    67   33   62 1
@<TRIPOS>MOLECULE
ZINC53041013
   29    30     0     0     0
SMALL
USER_CHARGES

@<TRIPOS>ATOM
      1 C1         -0.0173    1.4248    0.0099 C.3       1 <0>         0.0385
      2 O1          0.0021   -0.0041    0.0020 O.3       1 <0>        -0.2283
      3 N1         -1.2835   -0.5976    0.0111 N.2       1 <0>        -0.2778
      4 C2         -1.4013   -1.8863    0.0053 C.2       1 <0>         0.2326
      5 C3         -0.2316   -2.7122   -0.0103 C.1       1 <0>         0.2101
      6 N2          0.6964   -3.3673   -0.0227 N.1       1 <0>        -0.3662
      7 C4         -2.7695   -2.5179    0.0150 C.3       1 <0>        -0.0589
      8 H1         -2.8462   -3.2104    0.8533 H         1 <0>         0.1104
      9 C5         -3.8369   -1.4281    0.1502 C.3       1 <0>         0.0530
     10 N3         -4.7228   -1.4658   -1.0211 N.3       1 <0>        -0.5245
     11 C6         -3.9767   -1.1890   -2.2564 C.3       1 <0>         0.0535
     12 C7         -2.9127   -2.2713   -2.4599 C.3       1 <0>        -0.1531
     13 C8         -2.9953   -3.2754   -1.2996 C.3       1 <0>        -0.0825
     14 C9         -4.4038   -3.8826   -1.2786 C.3       1 <0>        -0.1472
     15 C10        -5.4271   -2.7524   -1.1092 C.3       1 <0>         0.0481
     16 H2          1.0053    1.8021    0.0021 H         1 <0>         0.1031
     17 H3         -0.5445    1.7859   -0.8732 H         1 <0>         0.0574
     18 H4         -0.5275    1.7763    0.9067 H         1 <0>         0.0581
     19 H5         -4.4213   -1.6016    1.0538 H         1 <0>         0.0881
     20 H6         -3.3548   -0.4524    0.2103 H         1 <0>         0.1042
     21 H7         -4.6627   -1.1896   -3.1035 H         1 <0>         0.0787
     22 H8         -3.4943   -0.2146   -2.1793 H         1 <0>         0.0786
     23 H9         -3.0929   -2.7879   -3.4026 H         1 <0>         0.0726
     24 H10        -1.9239   -1.8129   -2.4757 H         1 <0>         0.0625
     25 H11        -2.2409   -4.0532   -1.4183 H         1 <0>         0.0837
     26 H12        -4.5891   -4.4075   -2.2157 H         1 <0>         0.0738
     27 H13        -4.4888   -4.5792   -0.4446 H         1 <0>         0.0717
     28 H14        -6.0005   -2.9164   -0.1969 H         1 <0>         0.0802
     29 H15        -6.1013   -2.7400   -1.9656 H         1 <0>         0.0794
@<TRIPOS>BOND
     1    1    2 1
     2    1   16 1
     3    1   17 1
     4    1   18 1
     5    2    3 1
     6    3    4 2
     7    4    5 1
     8    4    7 1
     9    5    6 3
    10    7    8 1
    11    7   13 1
    12    7    9 1
    13    9   10 1
    14    9   19 1
    15    9   20 1
    16   10   15 1
    17   10   11 1
    18   11   12 1
    19   11   21 1
    20   11   22 1
    21   12   13 1
    22   12   23 1
    23   12   24 1
    24   13   14 1
    25   13   25 1
    26   14   15 1
    27   14   26 1
    28   14   27 1
    29   15   28 1
    30   15   29 1
@<TRIPOS>MOLECULE
ZINC00968336
   56    57     0     0     0
SMALL
USER_CHARGES

@<TRIPOS>ATOM
      1 C1          2.4412    1.0226    2.8896 C.3       1 <0>        -0.1195
      2 C2          1.9321   -0.3816    2.6890 C.ar      1 <0>        -0.0860
      3 C3          2.2025   -1.0521    1.5102 C.ar      1 <0>        -0.0980
      4 C4          1.7366   -2.3390    1.3238 C.ar      1 <0>        -0.1336
      5 C5          0.9971   -2.9590    2.3208 C.ar      1 <0>         0.1081
      6 C6          0.7276   -2.2845    3.5025 C.ar      1 <0>        -0.1060
      7 C7          1.2003   -0.9992    3.6861 C.ar      1 <0>        -0.1038
      8 C8         -0.0753   -2.9549    4.5873 C.3       1 <0>         0.0055
      9 H1         -0.4621   -3.9050    4.2187 H         1 <0>         0.1034
     10 C9         -1.2423   -2.0512    4.9906 C.3       1 <0>        -0.1451
     11 C10        -2.1281   -2.7827    6.0011 C.3       1 <0>        -0.0271
     12 N1         -3.3197   -1.9717    6.2849 N.4       1 <0>        -0.3808
     13 C11        -4.2493   -2.7431    7.1207 C.3       1 <0>         0.0221
     14 C12        -5.5502   -1.9570    7.2958 C.3       1 <0>        -0.1831
     15 C13        -4.5500   -4.0830    6.4460 C.3       1 <0>        -0.1853
     16 C14        -2.9220   -0.7489    6.9951 C.3       1 <0>         0.0164
     17 C15        -1.6530   -1.0198    7.8058 C.3       1 <0>        -0.1933
     18 C16        -2.6515    0.3647    5.9814 C.3       1 <0>        -0.1958
     19 C17         0.8058   -3.2019    5.7847 C.ar      1 <0>        -0.0910
     20 C18         1.2808   -2.1355    6.5250 C.ar      1 <0>        -0.1234
     21 C19         2.0891   -2.3620    7.6233 C.ar      1 <0>        -0.1125
     22 C20         2.4220   -3.6549    7.9815 C.ar      1 <0>        -0.1133
     23 C21         1.9462   -4.7214    7.2418 C.ar      1 <0>        -0.1102
     24 C22         1.1345   -4.4950    6.1460 C.ar      1 <0>        -0.1148
     25 O1          0.5372   -4.2249    2.1396 O.3       1 <0>        -0.4973
     26 H2          3.4315    0.9886    3.3438 H         1 <0>         0.0751
     27 H3          2.5007    1.5286    1.9259 H         1 <0>         0.0718
     28 H4          1.7598    1.5662    3.5439 H         1 <0>         0.0662
     29 H5          2.7781   -0.5690    0.7346 H         1 <0>         0.1310
     30 H6          1.9474   -2.8620    0.4027 H         1 <0>         0.1335
     31 H7          0.9942   -0.4751    4.6076 H         1 <0>         0.1224
     32 H8         -0.8552   -1.1374    5.4412 H         1 <0>         0.0993
     33 H9         -1.8295   -1.8003    4.1073 H         1 <0>         0.0930
     34 H10        -2.4330   -3.7442    5.5880 H         1 <0>         0.1355
     35 H11        -1.5703   -2.9439    6.9235 H         1 <0>         0.1395
     36 H12        -3.7981   -2.9210    8.0969 H         1 <0>         0.1344
     37 H13        -6.0337   -1.8342    6.3266 H         1 <0>         0.0821
     38 H14        -6.2152   -2.4999    7.9674 H         1 <0>         0.1060
     39 H15        -5.3284   -0.9769    7.7180 H         1 <0>         0.0803
     40 H16        -5.0012   -3.9051    5.4699 H         1 <0>         0.0816
     41 H17        -3.6233   -4.6431    6.3213 H         1 <0>         0.0831
     42 H18        -5.2398   -4.6554    7.0662 H         1 <0>         0.1054
     43 H19        -3.7236   -0.4419    7.6669 H         1 <0>         0.1390
     44 H20        -0.8183   -1.1939    7.1268 H         1 <0>         0.0923
     45 H21        -1.4343   -0.1585    8.4370 H         1 <0>         0.1025
     46 H22        -1.8024   -1.9000    8.4312 H         1 <0>         0.0786
     47 H23        -3.5595    0.5673    5.4134 H         1 <0>         0.0821
     48 H24        -2.3429    1.2680    6.5076 H         1 <0>         0.1057
     49 H25        -1.8595    0.0520    5.3009 H         1 <0>         0.0892
     50 H26         1.0207   -1.1253    6.2451 H         1 <0>         0.1201
     51 H27         2.4608   -1.5288    8.2012 H         1 <0>         0.1255
     52 H28         3.0540   -3.8319    8.8392 H         1 <0>         0.1264
     53 H29         2.2066   -5.7315    7.5215 H         1 <0>         0.1270
     54 H30         0.7597   -5.3284    5.5702 H         1 <0>         0.1239
     55 H31         1.1480   -4.9120    2.4395 H         1 <0>         0.3924
     56 H32        -3.7728   -1.7248    5.4178 H         1 <0>         0.4196
@<TRIPOS>BOND
     1    1    2 1
     2    1   26 1
     3    1   27 1
     4    1   28 1
     5    2    7 ar
     6    2    3 ar
     7    3    4 ar
     8    3   29 1
     9    4    5 ar
    10    4   30 1
    11    5    6 ar
    12    5   25 1
    13    6    7 ar
    14    6    8 1
    15    7   31 1
    16    8    9 1
    17    8   10 1
    18    8   19 1
    19   10   11 1
    20   10   32 1
    21   10   33 1
    22   11   12 1
    23   11   34 1
    24   11   35 1
    25   12   13 1
    26   12   16 1
    27   12   56 1
    28   13   14 1
    29   13   15 1
    30   13   36 1
    31   14   37 1
    32   14   38 1
    33   14   39 1
    34   15   40 1
    35   15   41 1
    36   15   42 1
    37   16   17 1
    38   16   18 1
    39   16   43 1
    40   17   44 1
    41   17   45 1
    42   17   46 1
    43   18   47 1
    44   18   48 1
    45   18   49 1
    46   19   24 ar
    47   19   20 ar
    48   20   21 ar
    49   20   50 1
    50   21   22 ar
    51   21   51 1
    52   22   23 ar
    53   22   52 1
    54   23   24 ar
    55   23   53 1
    56   24   54 1
    57   25   55 1
@<TRIPOS>MOLECULE
ZINC03079342
   25    24     0     0     0
SMALL
USER_CHARGES

@<TRIPOS>ATOM
      1 C1          0.5385    1.3265   -0.0156 C.3       1 <0>        -0.0552
      2 N1          0.0207   -0.0467    0.0478 N.4       1 <0>        -0.2722
      3 C2          0.5070   -0.6974    1.2718 C.3       1 <0>        -0.0471
      4 C3         -1.4480   -0.0161    0.0600 C.3       1 <0>        -0.0454
      5 C4          0.4850   -0.7999   -1.1248 C.3       1 <0>        -0.0017
      6 C5          2.0115   -0.7313   -1.2033 C.3       1 <0>         0.0515
      7 O1          2.5777   -1.4543   -0.1084 O.3       1 <0>        -0.3772
      8 C6          3.9213   -1.4920   -0.0303 C.2       1 <0>         0.6511
      9 O2          4.5947   -0.9264   -0.8688 O.2       1 <0>        -0.5552
     10 N2          4.5193   -2.1570    0.9780 N.am      1 <0>        -0.8167
     11 H1          1.6283    1.3038   -0.0246 H         1 <0>         0.1211
     12 H2          0.1776    1.8093   -0.9238 H         1 <0>         0.1253
     13 H3          0.1939    1.8853    0.8545 H         1 <0>         0.1262
     14 H4          0.0211   -0.2500    2.1388 H         1 <0>         0.1189
     15 H5          0.2750   -1.7618    1.2342 H         1 <0>         0.1224
     16 H6          1.5859   -0.5633    1.3504 H         1 <0>         0.1286
     17 H7         -1.8089    0.4667   -0.8482 H         1 <0>         0.1227
     18 H8         -1.8322   -1.0351    0.1071 H         1 <0>         0.1229
     19 H9         -1.7926    0.5427    0.9301 H         1 <0>         0.1241
     20 H10         0.1722   -1.8402   -1.0357 H         1 <0>         0.1419
     21 H11         0.0550   -0.3672   -2.0281 H         1 <0>         0.1522
     22 H12         2.3472   -1.1718   -2.1420 H         1 <0>         0.1171
     23 H13         2.3314    0.3096   -1.1555 H         1 <0>         0.0971
     24 H14         3.9817   -2.6085    1.6473 H         1 <0>         0.4117
     25 H15         5.4873   -2.1841    1.0343 H         1 <0>         0.4360
@<TRIPOS>BOND
     1    1    2 1
     2    1   11 1
     3    1   12 1
     4    1   13 1
     5    2    3 1
     6    2    4 1
     7    2    5 1
     8    3   14 1
     9    3   15 1
    10    3   16 1
    11    4   17 1
    12    4   18 1
    13    4   19 1
    14    5    6 1
    15    5   20 1
    16    5   21 1
    17    6    7 1
    18    6   22 1
    19    6   23 1
    20    7    8 1
    21    8    9 2
    22    8   10 am
    23   10   24 1
    24   10   25 1
@<TRIPOS>MOLECULE
ZINC01532358
   43    44     0     0     0
SMALL
USER_CHARGES
3-(4-hexoxy-1,2,5-thiadiazol-3-yl)-1-methyl-5,6-dihydro-2H-pyridine
@<TRIPOS>ATOM
      1 C1          1.0740    2.6512    2.3197 C.3       1 <0>        -0.1554
      2 C2          0.1951    2.9518    1.1039 C.3       1 <0>        -0.1278
      3 C3          0.7800    2.2634   -0.1309 C.3       1 <0>        -0.1171
      4 C4         -0.0989    2.5640   -1.3467 C.3       1 <0>        -0.1207
      5 C5          0.4860    1.8755   -2.5815 C.3       1 <0>        -0.1161
      6 C6         -0.3928    2.1761   -3.7973 C.3       1 <0>         0.0610
      7 O1          0.1535    1.5331   -4.9507 O.3       1 <0>        -0.2935
      8 C7         -0.5121    1.7004   -6.1236 C.2       1 <0>         0.2720
      9 C8         -0.0861    1.1341   -7.3225 C.2       1 <0>         0.0553
     10 N1         -0.8263    1.3704   -8.3866 N.2       1 <0>        -0.4586
     11 S1         -2.0045    2.2848   -7.8798 S.3       1 <0>         0.5746
     12 N2         -1.6125    2.4167   -6.2258 N.2       1 <0>        -0.5044
     13 C9          1.1340    0.3040   -7.3965 C.2       1 <0>        -0.0891
     14 C10         1.5480   -0.0981   -8.5783 C.2       1 <0>        -0.0908
     15 C11         2.7753   -0.9465   -8.7629 C.3       1 <0>        -0.1216
     16 C12         3.6271   -0.9079   -7.4915 C.3       1 <0>        -0.0055
     17 C13         1.8402   -0.0463   -6.1184 C.3       1 <0>         0.0501
     18 C14         3.5479   -1.4488   -5.1301 C.3       1 <0>        -0.0400
     19 H1          2.0826    3.0233    2.1398 H         1 <0>         0.0541
     20 H2          0.6573    3.1417    3.1994 H         1 <0>         0.0574
     21 H3          1.1082    1.5746    2.4860 H         1 <0>         0.0539
     22 H4          0.1609    4.0285    0.9376 H         1 <0>         0.0631
     23 H5         -0.8135    2.5797    1.2838 H         1 <0>         0.0630
     24 H6          0.8142    1.1867    0.0354 H         1 <0>         0.0628
     25 H7          1.7886    2.6355   -0.3108 H         1 <0>         0.0632
     26 H8         -1.1075    2.1919   -1.1668 H         1 <0>         0.0694
     27 H9         -0.1331    3.6407   -1.5130 H         1 <0>         0.0697
     28 H10         1.4947    2.2476   -2.7614 H         1 <0>         0.0748
     29 H11         0.5203    0.7988   -2.4152 H         1 <0>         0.0733
     30 H12        -1.4014    1.8040   -3.6174 H         1 <0>         0.0767
     31 H13        -0.4270    3.2528   -3.9636 H         1 <0>         0.0770
     32 H14         0.9858    0.1967   -9.4520 H         1 <0>         0.1508
     33 H15         3.3586   -0.5672   -9.6019 H         1 <0>         0.1303
     34 H16         2.4741   -1.9741   -8.9666 H         1 <0>         0.1120
     35 H17         4.0838    0.0762   -7.3865 H         1 <0>         0.1344
     36 H18         4.4035   -1.6708   -7.5478 H         1 <0>         0.1386
     37 H19         2.4078    0.8170   -5.7712 H         1 <0>         0.1459
     38 H20         1.1040   -0.3192   -5.3623 H         1 <0>         0.1468
     39 H21         2.8803   -1.6945   -4.3043 H         1 <0>         0.1241
     40 H22         4.2168   -2.2885   -5.3187 H         1 <0>         0.1259
     41 H23         4.1350   -0.5673   -4.8728 H         1 <0>         0.1244
     42 N3          2.7409   -1.1920   -6.3446 N.4       1 <0>        -0.3957
     43 H24         2.1782   -2.0249   -6.5541 H         1 <0>         0.4318
@<TRIPOS>BOND
     1    1    2 1
     2    1   19 1
     3    1   20 1
     4    1   21 1
     5    2    3 1
     6    2   22 1
     7    2   23 1
     8    3    4 1
     9    3   24 1
    10    3   25 1
    11    4    5 1
    12    4   26 1
    13    4   27 1
    14    5    6 1
    15    5   28 1
    16    5   29 1
    17    6    7 1
    18    6   30 1
    19    6   31 1
    20    7    8 1
    21    8   12 2
    22    8    9 1
    23    9   10 2
    24    9   13 1
    25   10   11 1
    26   11   12 1
    27   13   17 1
    28   13   14 2
    29   14   15 1
    30   14   32 1
    31   15   16 1
    32   15   33 1
    33   15   34 1
    34   16   35 1
    35   16   36 1
    36   16   42 1
    37   17   37 1
    38   17   38 1
    39   17   42 1
    40   18   39 1
    41   18   40 1
    42   18   41 1
    43   18   42 1
    44   42   43 1
@<TRIPOS>MOLECULE
ZINC12405177
   82    83     0     0     0
SMALL
USER_CHARGES
3-[4-[(E)-2-[4-(dibutylamino)phenyl]vinyl]pyridin-1-ium-1-yl]propyl-triethyl-ammonium
@<TRIPOS>ATOM
      1 C1         -5.9186    2.3509   13.1615 C.3       1 <0>        -0.1542
      2 C2         -6.5274    3.3040   12.1311 C.3       1 <0>        -0.1231
      3 C3         -5.4187    4.1492   11.5007 C.3       1 <0>        -0.1384
      4 C4         -6.0275    5.1024   10.4702 C.3       1 <0>         0.1116
      5 N1         -4.9659    5.9117    9.8666 N.pl3     1 <0>        -0.6057
      6 C5         -4.5904    7.1937   10.4680 C.3       1 <0>         0.1110
      7 C6         -5.4380    8.3114    9.8570 C.3       1 <0>        -0.1378
      8 C7         -5.0459    9.6502   10.4852 C.3       1 <0>        -0.1235
      9 C8         -5.8934   10.7679    9.8742 C.3       1 <0>        -0.1539
     10 C9         -4.3130    5.4618    8.7198 C.ar      1 <0>         0.2660
     11 C10        -3.3052    6.2318    8.1481 C.ar      1 <0>        -0.2085
     12 C11        -2.6577    5.7907    7.0156 C.ar      1 <0>        -0.0210
     13 C12        -3.0147    4.5673    6.4400 C.ar      1 <0>        -0.1888
     14 C13        -4.0322    3.7989    7.0144 C.ar      1 <0>        -0.0256
     15 C14        -4.6714    4.2444    8.1499 C.ar      1 <0>        -0.2089
     16 C15        -2.3250    4.0921    5.2287 C.2       1 <0>         0.0554
     17 C16        -2.6694    2.9163    4.6771 C.2       1 <0>        -0.2361
     18 C17        -1.9797    2.4411    3.4655 C.ar      1 <0>         0.1125
     19 C18        -2.3231    1.2174    2.8735 C.ar      1 <0>        -0.1365
     20 C19        -1.6514    0.8123    1.7401 C.ar      1 <0>         0.1224
     21 N2         -0.6984    1.5583    1.2133 N.ar      1 <0>        -0.3723
     22 C20        -0.3398    2.7138    1.7408 C.ar      1 <0>         0.1270
     23 C21        -0.9614    3.1997    2.8712 C.ar      1 <0>        -0.1524
     24 C22        -0.0127    1.0858    0.0080 C.3       1 <0>         0.0621
     25 C23        -0.7527    1.5927   -1.2315 C.3       1 <0>        -0.1760
     26 C24        -0.0366    1.0992   -2.4903 C.3       1 <0>        -0.0145
     27 N3         -0.7471    1.5859   -3.6804 N.4       1 <0>        -0.2648
     28 C25        -0.7670    3.0547   -3.6723 C.3       1 <0>        -0.0213
     29 C26         0.6684    3.5843   -3.6832 C.3       1 <0>        -0.1898
     30 C27        -0.0595    1.1121   -4.8890 C.3       1 <0>        -0.0191
     31 C28        -0.7995    1.6189   -6.1286 C.3       1 <0>        -0.1903
     32 C29        -2.1252    1.0774   -3.6700 C.3       1 <0>        -0.0213
     33 C30        -2.1045   -0.4524   -3.6784 C.3       1 <0>        -0.1898
     34 H1         -6.7084    1.7488   13.6106 H         1 <0>         0.0587
     35 H2         -5.1979    1.6970   12.6704 H         1 <0>         0.0531
     36 H3         -5.4158    2.9279   13.9376 H         1 <0>         0.0556
     37 H4         -7.2481    3.9579   12.6222 H         1 <0>         0.0656
     38 H5         -7.0302    2.7270   11.3550 H         1 <0>         0.0626
     39 H6         -4.6980    3.4954   11.0096 H         1 <0>         0.0652
     40 H7         -4.9159    4.7262   12.2768 H         1 <0>         0.0673
     41 H8         -6.7482    5.7562   10.9613 H         1 <0>         0.0836
     42 H9         -6.5303    4.5254    9.6941 H         1 <0>         0.0802
     43 H10        -4.7618    7.1544   11.5437 H         1 <0>         0.0838
     44 H11        -3.5359    7.3905   10.2750 H         1 <0>         0.0810
     45 H12        -5.2667    8.3506    8.7813 H         1 <0>         0.0651
     46 H13        -6.4926    8.1145   10.0500 H         1 <0>         0.0668
     47 H14        -5.2172    9.6110   11.5609 H         1 <0>         0.0657
     48 H15        -3.9913    9.8471   10.2922 H         1 <0>         0.0633
     49 H16        -5.6141   11.7218   10.3217 H         1 <0>         0.0588
     50 H17        -5.7221   10.8072    8.7985 H         1 <0>         0.0530
     51 H18        -6.9480   10.5711   10.0672 H         1 <0>         0.0552
     52 H19        -3.0301    7.1766    8.5932 H         1 <0>         0.1337
     53 H20        -1.8754    6.3890    6.5724 H         1 <0>         0.1289
     54 H21        -4.3137    2.8556    6.5702 H         1 <0>         0.1270
     55 H22        -5.4547    3.6498    8.5962 H         1 <0>         0.1328
     56 H23        -1.5425    4.6887    4.7837 H         1 <0>         0.1270
     57 H24        -3.4520    2.3197    5.1221 H         1 <0>         0.1467
     58 H25        -3.1015    0.6016    3.2992 H         1 <0>         0.1832
     59 H26        -1.9082   -0.1289    1.2767 H         1 <0>         0.1996
     60 H27         0.4486    3.2886    1.2779 H         1 <0>         0.1994
     61 H28        -0.6657    4.1482    3.2947 H         1 <0>         0.1801
     62 H29         0.0021   -0.0041    0.0020 H         1 <0>         0.1334
     63 H30         1.0099    1.4631    0.0003 H         1 <0>         0.1331
     64 H31        -1.7753    1.2154   -1.2238 H         1 <0>         0.1054
     65 H32        -0.7675    2.6825   -1.2255 H         1 <0>         0.1052
     66 H33         0.9860    1.4765   -2.4981 H         1 <0>         0.1398
     67 H34        -0.0218    0.0093   -2.4963 H         1 <0>         0.1399
     68 H35        -1.2942    3.4158   -4.5554 H         1 <0>         0.1364
     69 H36        -1.2772    3.4062   -2.7756 H         1 <0>         0.1242
     70 H37         1.1956    3.2232   -2.8002 H         1 <0>         0.0766
     71 H38         1.1786    3.2328   -4.5800 H         1 <0>         0.0866
     72 H39         0.6536    4.6742   -3.6772 H         1 <0>         0.1087
     73 H40         0.9631    1.4894   -4.8968 H         1 <0>         0.1330
     74 H41        -0.0447    0.0222   -4.8950 H         1 <0>         0.1330
     75 H42        -0.8142    2.7088   -6.1226 H         1 <0>         0.0823
     76 H43        -0.2893    1.2674   -7.0254 H         1 <0>         0.1101
     77 H44        -1.8221    1.2417   -6.1208 H         1 <0>         0.0824
     78 H45        -2.6354    1.4289   -2.7732 H         1 <0>         0.1243
     79 H46        -2.6524    1.4385   -4.5531 H         1 <0>         0.1364
     80 H47        -1.5943   -0.8040   -4.5752 H         1 <0>         0.0866
     81 H48        -1.5773   -0.8135   -2.7954 H         1 <0>         0.0767
     82 H49        -3.1271   -0.8297   -3.6707 H         1 <0>         0.1088
@<TRIPOS>BOND
     1    1    2 1
     2    1   34 1
     3    1   35 1
     4    1   36 1
     5    2    3 1
     6    2   37 1
     7    2   38 1
     8    3    4 1
     9    3   39 1
    10    3   40 1
    11    4    5 1
    12    4   41 1
    13    4   42 1
    14    5    6 1
    15    5   10 1
    16    6    7 1
    17    6   43 1
    18    6   44 1
    19    7    8 1
    20    7   45 1
    21    7   46 1
    22    8    9 1
    23    8   47 1
    24    8   48 1
    25    9   49 1
    26    9   50 1
    27    9   51 1
    28   10   15 ar
    29   10   11 ar
    30   11   12 ar
    31   11   52 1
    32   12   13 ar
    33   12   53 1
    34   13   14 ar
    35   13   16 1
    36   14   15 ar
    37   14   54 1
    38   15   55 1
    39   16   17 2
    40   16   56 1
    41   17   18 1
    42   17   57 1
    43   18   23 ar
    44   18   19 ar
    45   19   20 ar
    46   19   58 1
    47   20   21 ar
    48   20   59 1
    49   21   22 ar
    50   21   24 1
    51   22   23 ar
    52   22   60 1
    53   23   61 1
    54   24   25 1
    55   24   62 1
    56   24   63 1
    57   25   26 1
    58   25   64 1
    59   25   65 1
    60   26   27 1
    61   26   66 1
    62   26   67 1
    63   27   28 1
    64   27   30 1
    65   27   32 1
    66   28   29 1
    67   28   68 1
    68   28   69 1
    69   29   70 1
    70   29   71 1
    71   29   72 1
    72   30   31 1
    73   30   73 1
    74   30   74 1
    75   31   75 1
    76   31   76 1
    77   31   77 1
    78   32   33 1
    79   32   78 1
    80   32   79 1
    81   33   80 1
    82   33   81 1
    83   33   82 1
@<TRIPOS>MOLECULE
ZINC02565899
   70    71     0     0     0
SMALL
USER_CHARGES
3-[4-[(E)-2-(4-diethylaminophenyl)vinyl]pyridin-1-ium-1-yl]propyl-triethyl-ammonium
@<TRIPOS>ATOM
      1 C1         -5.4187    4.1492   11.5007 C.3       1 <0>        -0.1744
      2 C2         -6.0275    5.1024   10.4702 C.3       1 <0>         0.1077
      3 N1         -4.9659    5.9117    9.8666 N.pl3     1 <0>        -0.6071
      4 C3         -4.5904    7.1937   10.4680 C.3       1 <0>         0.1072
      5 C4         -5.4380    8.3114    9.8570 C.3       1 <0>        -0.1740
      6 C5         -4.3130    5.4618    8.7198 C.ar      1 <0>         0.2654
      7 C6         -3.3052    6.2318    8.1481 C.ar      1 <0>        -0.2092
      8 C7         -2.6577    5.7907    7.0156 C.ar      1 <0>        -0.0209
      9 C8         -3.0147    4.5673    6.4400 C.ar      1 <0>        -0.1891
     10 C9         -4.0322    3.7989    7.0144 C.ar      1 <0>        -0.0255
     11 C10        -4.6714    4.2444    8.1499 C.ar      1 <0>        -0.2096
     12 C11        -2.3250    4.0921    5.2287 C.2       1 <0>         0.0554
     13 C12        -2.6694    2.9163    4.6771 C.2       1 <0>        -0.2360
     14 C13        -1.9797    2.4411    3.4655 C.ar      1 <0>         0.1124
     15 C14        -2.3231    1.2174    2.8735 C.ar      1 <0>        -0.1365
     16 C15        -1.6514    0.8123    1.7401 C.ar      1 <0>         0.1224
     17 N2         -0.6984    1.5583    1.2133 N.ar      1 <0>        -0.3723
     18 C16        -0.3398    2.7138    1.7408 C.ar      1 <0>         0.1270
     19 C17        -0.9614    3.1997    2.8712 C.ar      1 <0>        -0.1524
     20 C18        -0.0127    1.0858    0.0080 C.3       1 <0>         0.0622
     21 C19        -0.7527    1.5927   -1.2315 C.3       1 <0>        -0.1760
     22 C20        -0.0366    1.0992   -2.4903 C.3       1 <0>        -0.0145
     23 N3         -0.7471    1.5859   -3.6804 N.4       1 <0>        -0.2648
     24 C21        -0.0595    1.1121   -4.8890 C.3       1 <0>        -0.0191
     25 C22        -0.7995    1.6190   -6.1286 C.3       1 <0>        -0.1903
     26 C23        -2.1252    1.0774   -3.6700 C.3       1 <0>        -0.0213
     27 C24        -2.1045   -0.4524   -3.6784 C.3       1 <0>        -0.1898
     28 C25        -0.7670    3.0547   -3.6723 C.3       1 <0>        -0.0213
     29 C26         0.6684    3.5843   -3.6832 C.3       1 <0>        -0.1897
     30 H1         -4.9159    4.7262   12.2768 H         1 <0>         0.0609
     31 H2         -6.2085    3.5471   11.9498 H         1 <0>         0.0722
     32 H3         -4.6980    3.4954   11.0096 H         1 <0>         0.0582
     33 H4         -6.7482    5.7562   10.9613 H         1 <0>         0.0840
     34 H5         -6.5303    4.5254    9.6941 H         1 <0>         0.0802
     35 H6         -4.7618    7.1544   11.5437 H         1 <0>         0.0841
     36 H7         -3.5359    7.3905   10.2750 H         1 <0>         0.0810
     37 H8         -6.4926    8.1145   10.0500 H         1 <0>         0.0604
     38 H9         -5.1586    9.2652   10.3045 H         1 <0>         0.0725
     39 H10        -5.2667    8.3506    8.7813 H         1 <0>         0.0581
     40 H11        -3.0301    7.1766    8.5932 H         1 <0>         0.1339
     41 H12        -1.8754    6.3890    6.5724 H         1 <0>         0.1293
     42 H13        -4.3137    2.8556    6.5702 H         1 <0>         0.1274
     43 H14        -5.4547    3.6498    8.5962 H         1 <0>         0.1330
     44 H15        -1.5425    4.6887    4.7837 H         1 <0>         0.1271
     45 H16        -3.4520    2.3197    5.1221 H         1 <0>         0.1468
     46 H17        -3.1015    0.6016    3.2992 H         1 <0>         0.1832
     47 H18        -1.9082   -0.1289    1.2767 H         1 <0>         0.1997
     48 H19         0.4486    3.2886    1.2779 H         1 <0>         0.1994
     49 H20        -0.6657    4.1482    3.2947 H         1 <0>         0.1801
     50 H21         0.0021   -0.0041    0.0020 H         1 <0>         0.1334
     51 H22         1.0099    1.4631    0.0003 H         1 <0>         0.1331
     52 H23        -1.7753    1.2154   -1.2238 H         1 <0>         0.1054
     53 H24        -0.7675    2.6825   -1.2255 H         1 <0>         0.1052
     54 H25         0.9860    1.4765   -2.4981 H         1 <0>         0.1398
     55 H26        -0.0218    0.0093   -2.4963 H         1 <0>         0.1399
     56 H27         0.9631    1.4894   -4.8968 H         1 <0>         0.1329
     57 H28        -0.0447    0.0222   -4.8950 H         1 <0>         0.1330
     58 H29        -0.8142    2.7088   -6.1226 H         1 <0>         0.0823
     59 H30        -0.2893    1.2674   -7.0254 H         1 <0>         0.1100
     60 H31        -1.8220    1.2417   -6.1208 H         1 <0>         0.0824
     61 H32        -2.6354    1.4289   -2.7732 H         1 <0>         0.1243
     62 H33        -2.6524    1.4385   -4.5531 H         1 <0>         0.1364
     63 H34        -1.5943   -0.8040   -4.5752 H         1 <0>         0.0866
     64 H35        -1.5773   -0.8135   -2.7954 H         1 <0>         0.0766
     65 H36        -3.1271   -0.8297   -3.6707 H         1 <0>         0.1088
     66 H37        -1.2942    3.4158   -4.5554 H         1 <0>         0.1364
     67 H38        -1.2772    3.4062   -2.7756 H         1 <0>         0.1242
     68 H39         0.6536    4.6742   -3.6772 H         1 <0>         0.1087
     69 H40         1.1956    3.2232   -2.8002 H         1 <0>         0.0766
     70 H41         1.1786    3.2328   -4.5800 H         1 <0>         0.0866
@<TRIPOS>BOND
     1    1    2 1
     2    1   30 1
     3    1   31 1
     4    1   32 1
     5    2    3 1
     6    2   33 1
     7    2   34 1
     8    3    4 1
     9    3    6 1
    10    4    5 1
    11    4   35 1
    12    4   36 1
    13    5   37 1
    14    5   38 1
    15    5   39 1
    16    6   11 ar
    17    6    7 ar
    18    7    8 ar
    19    7   40 1
    20    8    9 ar
    21    8   41 1
    22    9   10 ar
    23    9   12 1
    24   10   11 ar
    25   10   42 1
    26   11   43 1
    27   12   13 2
    28   12   44 1
    29   13   14 1
    30   13   45 1
    31   14   19 ar
    32   14   15 ar
    33   15   16 ar
    34   15   46 1
    35   16   17 ar
    36   16   47 1
    37   17   18 ar
    38   17   20 1
    39   18   19 ar
    40   18   48 1
    41   19   49 1
    42   20   21 1
    43   20   50 1
    44   20   51 1
    45   21   22 1
    46   21   52 1
    47   21   53 1
    48   22   23 1
    49   22   54 1
    50   22   55 1
    51   23   24 1
    52   23   26 1
    53   23   28 1
    54   24   25 1
    55   24   56 1
    56   24   57 1
    57   25   58 1
    58   25   59 1
    59   25   60 1
    60   26   27 1
    61   26   61 1
    62   26   62 1
    63   27   63 1
    64   27   64 1
    65   27   65 1
    66   28   29 1
    67   28   66 1
    68   28   67 1
    69   29   68 1
    70   29   69 1
    71   29   70 1
@<TRIPOS>MOLECULE
ZINC02003680
   52    53     0     0     0
SMALL
USER_CHARGES

@<TRIPOS>ATOM
      1 C1         -2.8165    1.1642    1.4065 C.3       1 <0>        -0.1875
      2 C2         -2.7146   -0.3619    1.3665 C.3       1 <0>        -0.0188
      3 N1         -2.0186   -0.7743    0.1404 N.4       1 <0>        -0.3886
      4 C3         -0.6312   -0.2930    0.1794 C.3       1 <0>        -0.0160
      5 C4          0.0456   -0.5785   -1.1627 C.3       1 <0>        -0.1890
      6 C5         -2.0259   -2.2400    0.0425 C.3       1 <0>        -0.0058
      7 C6         -3.4631   -2.7318   -0.1398 C.3       1 <0>         0.0280
      8 O1         -3.9776   -2.2496   -1.3827 O.3       1 <0>        -0.3604
      9 C7         -5.2664   -2.5112   -1.6514 C.2       1 <0>         0.4820
     10 O2         -5.9601   -3.0473   -0.8200 O.2       1 <0>        -0.4701
     11 C8         -5.8482   -2.1362   -2.9900 C.3       1 <0>         0.0449
     12 C9         -5.1392   -2.9244   -4.0932 C.3       1 <0>        -0.1469
     13 C10        -7.3197   -2.4610   -3.0070 C.ar      1 <0>        -0.0913
     14 C11        -8.2400   -1.4815   -3.3303 C.ar      1 <0>        -0.1015
     15 C12        -9.5898   -1.7795   -3.3459 C.ar      1 <0>        -0.1207
     16 C13       -10.0192   -3.0570   -3.0386 C.ar      1 <0>        -0.1045
     17 C14        -9.0988   -4.0367   -2.7162 C.ar      1 <0>        -0.1195
     18 C15        -7.7487   -3.7398   -2.7048 C.ar      1 <0>        -0.0838
     19 C16        -5.6569   -0.6600   -3.2251 C.ar      1 <0>        -0.0827
     20 C17        -6.0947    0.2524   -2.2834 C.ar      1 <0>        -0.1162
     21 C18        -5.9192    1.6065   -2.4990 C.ar      1 <0>        -0.1175
     22 C19        -5.3056    2.0482   -3.6562 C.ar      1 <0>        -0.1106
     23 C20        -4.8669    1.1359   -4.5976 C.ar      1 <0>        -0.1125
     24 C21        -5.0386   -0.2184   -4.3799 C.ar      1 <0>        -0.1044
     25 H1         -3.3330    1.4702    2.3163 H         1 <0>         0.1073
     26 H2         -1.8156    1.5956    1.3942 H         1 <0>         0.0821
     27 H3         -3.3736    1.5140    0.5373 H         1 <0>         0.0808
     28 H4         -2.1575   -0.7117    2.2357 H         1 <0>         0.1327
     29 H5         -3.7155   -0.7933    1.3788 H         1 <0>         0.1272
     30 H6         -0.6242    0.7804    0.3688 H         1 <0>         0.1340
     31 H7         -0.0910   -0.8059    0.9751 H         1 <0>         0.1306
     32 H8         -0.0023   -1.6468   -1.3738 H         1 <0>         0.0799
     33 H9         -0.4668   -0.0288   -1.9522 H         1 <0>         0.0819
     34 H10         1.0881   -0.2633   -1.1183 H         1 <0>         0.1072
     35 H11        -1.4246   -2.5500   -0.8121 H         1 <0>         0.1454
     36 H12        -1.6086   -2.6671    0.9544 H         1 <0>         0.1511
     37 H13        -3.4770   -3.8217   -0.1392 H         1 <0>         0.1151
     38 H14        -4.0808   -2.3601    0.6778 H         1 <0>         0.0934
     39 H15        -5.2776   -3.9921   -3.9231 H         1 <0>         0.0716
     40 H16        -5.5600   -2.6531   -5.0614 H         1 <0>         0.0870
     41 H17        -4.0749   -2.6894   -4.0809 H         1 <0>         0.0764
     42 H18        -7.9046   -0.4834   -3.5704 H         1 <0>         0.1271
     43 H19       -10.3089   -1.0141   -3.5978 H         1 <0>         0.1267
     44 H20       -11.0738   -3.2896   -3.0501 H         1 <0>         0.1270
     45 H21        -9.4343   -5.0347   -2.4758 H         1 <0>         0.1268
     46 H22        -7.0294   -4.5062   -2.4565 H         1 <0>         0.1182
     47 H23        -6.5742   -0.0928   -1.3793 H         1 <0>         0.1182
     48 H24        -6.2619    2.3193   -1.7636 H         1 <0>         0.1264
     49 H25        -5.1691    3.1062   -3.8250 H         1 <0>         0.1276
     50 H26        -4.3878    1.4810   -5.5018 H         1 <0>         0.1297
     51 H27        -4.6926   -0.9314   -5.1137 H         1 <0>         0.1336
     52 H28        -2.4884   -0.3813   -0.6614 H         1 <0>         0.4285
@<TRIPOS>BOND
     1    1    2 1
     2    1   25 1
     3    1   26 1
     4    1   27 1
     5    2    3 1
     6    2   28 1
     7    2   29 1
     8    3    4 1
     9    3    6 1
    10    3   52 1
    11    4    5 1
    12    4   30 1
    13    4   31 1
    14    5   32 1
    15    5   33 1
    16    5   34 1
    17    6    7 1
    18    6   35 1
    19    6   36 1
    20    7    8 1
    21    7   37 1
    22    7   38 1
    23    8    9 1
    24    9   10 2
    25    9   11 1
    26   11   12 1
    27   11   13 1
    28   11   19 1
    29   12   39 1
    30   12   40 1
    31   12   41 1
    32   13   18 ar
    33   13   14 ar
    34   14   15 ar
    35   14   42 1
    36   15   16 ar
    37   15   43 1
    38   16   17 ar
    39   16   44 1
    40   17   18 ar
    41   17   45 1
    42   18   46 1
    43   19   24 ar
    44   19   20 ar
    45   20   21 ar
    46   20   47 1
    47   21   22 ar
    48   21   48 1
    49   22   23 ar
    50   22   49 1
    51   23   24 ar
    52   23   50 1
    53   24   51 1
@<TRIPOS>MOLECULE
ZINC03921860
  108   109     0     0     0
SMALL
USER_CHARGES

@<TRIPOS>ATOM
      1 C1         -0.0173    1.4248    0.0099 C.3       1 <0>         0.0218
      2 O1          0.0021   -0.0041    0.0020 O.3       1 <0>        -0.3317
      3 C2          0.6258   -0.6184    1.0415 C.ar      1 <0>         0.1495
      4 C3          1.2023    0.1385    2.0514 C.ar      1 <0>        -0.2024
      5 C4          1.8353   -0.4882    3.1070 C.ar      1 <0>        -0.0386
      6 C5          1.8947   -1.8689    3.1579 C.ar      1 <0>        -0.1481
      7 C6          1.3214   -2.6252    2.1527 C.ar      1 <0>        -0.0531
      8 C7          0.6822   -2.0032    1.0975 C.ar      1 <0>        -0.2056
      9 C8          0.0521   -2.8284    0.0053 C.3       1 <0>         0.0590
     10 N1          0.9527   -2.8756   -1.1542 N.4       1 <0>        -0.5088
     11 C9          0.3385   -3.6800   -2.2189 C.3       1 <0>        -0.0101
     12 C10         1.2765   -3.7292   -3.4267 C.3       1 <0>        -0.1515
     13 C11         0.6368   -4.5670   -4.5356 C.3       1 <0>        -0.1189
     14 C12         1.5748   -4.6161   -5.7433 C.3       1 <0>        -0.1195
     15 C13         0.9351   -5.4540   -6.8522 C.3       1 <0>        -0.1520
     16 C14         1.8732   -5.5031   -8.0599 C.3       1 <0>        -0.0104
     17 N2          1.2589   -6.3075   -9.1246 N.4       1 <0>        -0.5109
     18 C15         2.1596   -6.3547  -10.2841 C.3       1 <0>        -0.0102
     19 C16         1.5199   -7.1926  -11.3930 C.3       1 <0>        -0.1514
     20 C17         2.4579   -7.2417  -12.6007 C.3       1 <0>        -0.1193
     21 C18         1.8182   -8.0795  -13.7096 C.3       1 <0>        -0.1229
     22 C19         2.7562   -8.1286  -14.9174 C.3       1 <0>        -0.1229
     23 C20         2.1165   -8.9665  -16.0263 C.3       1 <0>        -0.1193
     24 C21         3.0545   -9.0156  -17.2340 C.3       1 <0>        -0.1514
     25 C22         2.4148   -9.8535  -18.3429 C.3       1 <0>        -0.0102
     26 N3          3.3155   -9.9006  -19.5024 N.4       1 <0>        -0.5109
     27 C23         2.7012  -10.7051  -20.5671 C.3       1 <0>        -0.0104
     28 C24         3.6393  -10.7542  -21.7748 C.3       1 <0>        -0.1520
     29 C25         2.9995  -11.5920  -22.8837 C.3       1 <0>        -0.1195
     30 C26         3.9376  -11.6411  -24.0914 C.3       1 <0>        -0.1189
     31 C27         3.2979  -12.4790  -25.2004 C.3       1 <0>        -0.1516
     32 C28         4.2359  -12.5281  -26.4081 C.3       1 <0>        -0.0100
     33 N4          3.6217  -13.3325  -27.4728 N.4       1 <0>        -0.5088
     34 C29         4.5223  -13.3797  -28.6323 C.3       1 <0>         0.0590
     35 C30         3.8922  -14.2050  -29.7245 C.ar      1 <0>        -0.2056
     36 C31         4.2759  -15.5198  -29.9064 C.ar      1 <0>        -0.0530
     37 C32         3.6986  -16.2772  -30.9085 C.ar      1 <0>        -0.1481
     38 C33         2.7357  -15.7214  -31.7310 C.ar      1 <0>        -0.0386
     39 C34         2.3484  -14.4076  -31.5529 C.ar      1 <0>        -0.2024
     40 C35         2.9225  -13.6469  -30.5445 C.ar      1 <0>         0.1495
     41 O2          2.5391  -12.3557  -30.3637 O.3       1 <0>        -0.3317
     42 C36         1.5355  -11.8475  -31.2450 C.3       1 <0>         0.0219
     43 H1          1.0053    1.8021    0.0021 H         1 <0>         0.0655
     44 H2         -0.5445    1.7859   -0.8732 H         1 <0>         0.1108
     45 H3         -0.5275    1.7763    0.9067 H         1 <0>         0.0688
     46 H4          1.1565    1.2168    2.0119 H         1 <0>         0.1425
     47 H5          2.2845    0.1005    3.8932 H         1 <0>         0.1419
     48 H6          2.3900   -2.3570    3.9842 H         1 <0>         0.1408
     49 H7          1.3695   -3.7034    2.1946 H         1 <0>         0.1397
     50 H8         -0.1239   -3.8404    0.3701 H         1 <0>         0.1375
     51 H9         -0.8960   -2.3784   -0.2891 H         1 <0>         0.1383
     52 H10         1.1156   -1.9389   -1.4919 H         1 <0>         0.4288
     53 H11         0.1625   -4.6920   -1.8542 H         1 <0>         0.1322
     54 H12        -0.6096   -3.2300   -2.5134 H         1 <0>         0.1321
     55 H13         1.4525   -2.7172   -3.7914 H         1 <0>         0.0890
     56 H14         2.2246   -4.1792   -3.1322 H         1 <0>         0.0893
     57 H15         0.4608   -5.5790   -4.1708 H         1 <0>         0.0792
     58 H16        -0.3113   -4.1169   -4.8300 H         1 <0>         0.0791
     59 H17         1.7508   -3.6042   -6.1081 H         1 <0>         0.0789
     60 H18         2.5229   -5.0662   -5.4489 H         1 <0>         0.0790
     61 H19         0.7592   -6.4659   -6.4874 H         1 <0>         0.0903
     62 H20        -0.0130   -5.0039   -7.1466 H         1 <0>         0.0902
     63 H21         2.0491   -4.4911   -8.4247 H         1 <0>         0.1327
     64 H22         2.8212   -5.9532   -7.7655 H         1 <0>         0.1328
     65 H23         1.0961   -7.2443   -8.7869 H         1 <0>         0.4293
     66 H24         2.3355   -5.3428  -10.6489 H         1 <0>         0.1323
     67 H25         3.1077   -6.8048   -9.9897 H         1 <0>         0.1324
     68 H26         1.3439   -8.2045  -11.0282 H         1 <0>         0.0885
     69 H27         0.5718   -6.7425  -11.6874 H         1 <0>         0.0884
     70 H28         2.6339   -6.2297  -12.9655 H         1 <0>         0.0754
     71 H29         3.4060   -7.6918  -12.3063 H         1 <0>         0.0755
     72 H30         1.6422   -9.0915  -13.3449 H         1 <0>         0.0693
     73 H31         0.8701   -7.6294  -14.0041 H         1 <0>         0.0692
     74 H32         2.9322   -7.1167  -15.2821 H         1 <0>         0.0692
     75 H33         3.7043   -8.5787  -14.6229 H         1 <0>         0.0692
     76 H34         1.9405   -9.9784  -15.6615 H         1 <0>         0.0755
     77 H35         1.1684   -8.5164  -16.3207 H         1 <0>         0.0754
     78 H36         3.2305   -8.0037  -17.5988 H         1 <0>         0.0884
     79 H37         4.0026   -9.4657  -16.9396 H         1 <0>         0.0885
     80 H38         2.2389  -10.8654  -17.9781 H         1 <0>         0.1324
     81 H39         1.4667   -9.4034  -18.6373 H         1 <0>         0.1324
     82 H40         3.4783   -8.9639  -19.8401 H         1 <0>         0.4293
     83 H41         2.5253  -11.7170  -20.2023 H         1 <0>         0.1328
     84 H42         1.7531  -10.2550  -20.8615 H         1 <0>         0.1327
     85 H43         3.8152   -9.7422  -22.1396 H         1 <0>         0.0902
     86 H44         4.5874  -11.2043  -21.4804 H         1 <0>         0.0903
     87 H45         2.8236  -12.6040  -22.5189 H         1 <0>         0.0790
     88 H46         2.0515  -11.1419  -23.1781 H         1 <0>         0.0789
     89 H47         4.1135  -10.6292  -24.4562 H         1 <0>         0.0791
     90 H48         4.8857  -12.0912  -23.7970 H         1 <0>         0.0792
     91 H49         3.1219  -13.4909  -24.8356 H         1 <0>         0.0894
     92 H50         2.3498  -12.0289  -25.4948 H         1 <0>         0.0890
     93 H51         4.4119  -11.5162  -26.7729 H         1 <0>         0.1321
     94 H52         5.1840  -12.9782  -26.1137 H         1 <0>         0.1322
     95 H53         3.4588  -14.2693  -27.1351 H         1 <0>         0.4262
     96 H54         4.6983  -12.3678  -28.9971 H         1 <0>         0.1382
     97 H55         5.4704  -13.8298  -28.3379 H         1 <0>         0.1375
     98 H56         5.0276  -15.9561  -29.2654 H         1 <0>         0.1397
     99 H57         4.0003  -17.3045  -31.0496 H         1 <0>         0.1408
    100 H58         2.2865  -16.3151  -32.5134 H         1 <0>         0.1418
    101 H59         1.5964  -13.9741  -32.1955 H         1 <0>         0.1425
    102 H60         0.6267  -12.4402  -31.1410 H         1 <0>         0.0655
    103 H61         1.3227  -10.8087  -30.9927 H         1 <0>         0.1108
    104 H62         1.8917  -11.9060  -32.2735 H         1 <0>         0.0688
    105 H63         0.3813   -5.8909   -9.3971 H         1 <0>         0.4293
    106 H64         4.1931  -10.3172  -19.2299 H         1 <0>         0.4293
    107 H65         1.8303   -3.2922   -0.8817 H         1 <0>         0.4262
    108 H66         2.7441  -12.9159  -27.7453 H         1 <0>         0.4288
@<TRIPOS>BOND
     1    1    2 1
     2    1   43 1
     3    1   44 1
     4    1   45 1
     5    2    3 1
     6    3    8 ar
     7    3    4 ar
     8    4    5 ar
     9    4   46 1
    10    5    6 ar
    11    5   47 1
    12    6    7 ar
    13    6   48 1
    14    7    8 ar
    15    7   49 1
    16    8    9 1
    17    9   10 1
    18    9   50 1
    19    9   51 1
    20   10   11 1
    21   10   52 1
    22   10  107 1
    23   11   12 1
    24   11   53 1
    25   11   54 1
    26   12   13 1
    27   12   55 1
    28   12   56 1
    29   13   14 1
    30   13   57 1
    31   13   58 1
    32   14   15 1
    33   14   59 1
    34   14   60 1
    35   15   16 1
    36   15   61 1
    37   15   62 1
    38   16   17 1
    39   16   63 1
    40   16   64 1
    41   17   18 1
    42   17   65 1
    43   17  105 1
    44   18   19 1
    45   18   66 1
    46   18   67 1
    47   19   20 1
    48   19   68 1
    49   19   69 1
    50   20   21 1
    51   20   70 1
    52   20   71 1
    53   21   22 1
    54   21   72 1
    55   21   73 1
    56   22   23 1
    57   22   74 1
    58   22   75 1
    59   23   24 1
    60   23   76 1
    61   23   77 1
    62   24   25 1
    63   24   78 1
    64   24   79 1
    65   25   26 1
    66   25   80 1
    67   25   81 1
    68   26   27 1
    69   26   82 1
    70   26  106 1
    71   27   28 1
    72   27   83 1
    73   27   84 1
    74   28   29 1
    75   28   85 1
    76   28   86 1
    77   29   30 1
    78   29   87 1
    79   29   88 1
    80   30   31 1
    81   30   89 1
    82   30   90 1
    83   31   32 1
    84   31   91 1
    85   31   92 1
    86   32   33 1
    87   32   93 1
    88   32   94 1
    89   33   34 1
    90   33   95 1
    91   33  108 1
    92   34   35 1
    93   34   96 1
    94   34   97 1
    95   35   40 ar
    96   35   36 ar
    97   36   37 ar
    98   36   98 1
    99   37   38 ar
   100   37   99 1
   101   38   39 ar
   102   38  100 1
   103   39   40 ar
   104   39  101 1
   105   40   41 1
   106   41   42 1
   107   42  102 1
   108   42  103 1
   109   42  104 1
@<TRIPOS>MOLECULE
ZINC00002264
   41    43     0     0     0
SMALL
USER_CHARGES

@<TRIPOS>ATOM
      1 C1          0.7658   -0.3473   -1.0644 C.3       1 <0>        -0.0548
      2 N1         -0.0036   -0.0037    0.1389 N.4       1 <0>        -0.3894
      3 C2         -0.0391    1.4563    0.2971 C.3       1 <0>        -0.0477
      4 C3         -1.3742   -0.5153    0.0064 C.3       1 <0>        -0.0001
      5 C4         -1.3490   -2.0451   -0.0023 C.3       1 <0>         0.0179
      6 O1         -0.8829   -2.5210    1.2620 O.3       1 <0>        -0.3363
      7 C5         -0.7999   -3.8710    1.4222 C.2       1 <0>         0.1610
      8 C6         -1.2488   -4.5696    0.4577 C.2       1 <0>        -0.2032
      9 C7         -1.3500   -6.0155    0.2935 C.ar      1 <0>         0.0017
     10 C8         -2.6274   -6.5666   -0.2185 C.ar      1 <0>        -0.1185
     11 C9         -2.7810   -7.8584   -0.3863 C.ar      1 <0>        -0.0929
     12 C10        -1.6766   -8.7788   -0.0646 C.ar      1 <0>        -0.1110
     13 C11        -0.5421   -8.2947    0.3883 C.ar      1 <0>        -0.0866
     14 C12        -0.3707   -6.8406    0.5754 C.ar      1 <0>        -0.1119
     15 S1          1.1725   -6.2399    1.1799 S.3       1 <0>        -0.0138
     16 C13         0.7483   -5.4433    2.6927 C.ar      1 <0>        -0.1087
     17 C14        -0.2021   -4.3246    2.6760 C.ar      1 <0>        -0.0314
     18 C15        -0.5174   -3.7279    3.8095 C.ar      1 <0>        -0.0633
     19 C16         0.0841   -4.1790    5.0751 C.ar      1 <0>        -0.0299
     20 C17         0.9386   -5.1798    5.0804 C.ar      1 <0>        -0.0906
     21 C18         1.2819   -5.8475    3.8244 C.ar      1 <0>        -0.0433
     22 Cl1        -0.3342   -3.3890    6.5632 Cl        1 <0>        -0.0465
     23 H1          1.7828    0.0323   -0.9661 H         1 <0>         0.1280
     24 H2          0.7921   -1.4307   -1.1818 H         1 <0>         0.1221
     25 H3          0.2933    0.1014   -1.9382 H         1 <0>         0.1252
     26 H4         -0.6816    1.7151    1.1386 H         1 <0>         0.1247
     27 H5          0.9693    1.8263    0.4826 H         1 <0>         0.1262
     28 H6         -0.4312    1.9109   -0.6127 H         1 <0>         0.1236
     29 H7         -1.9750   -0.1666    0.8464 H         1 <0>         0.1430
     30 H8         -1.8085   -0.1538   -0.9257 H         1 <0>         0.1509
     31 H9         -2.3545   -2.4240   -0.1849 H         1 <0>         0.1127
     32 H10        -0.6810   -2.3930   -0.7902 H         1 <0>         0.0922
     33 H11        -1.6169   -3.9955   -0.3797 H         1 <0>         0.1306
     34 H12        -3.4409   -5.8970   -0.4556 H         1 <0>         0.1273
     35 H13        -3.7168   -8.2472   -0.7598 H         1 <0>         0.1349
     36 H14        -1.7987   -9.8433   -0.1996 H         1 <0>         0.1374
     37 H15         0.2703   -8.9655    0.6259 H         1 <0>         0.1368
     38 H16        -1.2182   -2.9062    3.8090 H         1 <0>         0.1431
     39 H17         1.3801   -5.5099    6.0091 H         1 <0>         0.1521
     40 H18         1.9826   -6.6694    3.8283 H         1 <0>         0.1546
     41 H19         0.4337   -0.4191    0.9477 H         1 <0>         0.4341
@<TRIPOS>BOND
     1    1    2 1
     2    1   23 1
     3    1   24 1
     4    1   25 1
     5    2    3 1
     6    2    4 1
     7    2   41 1
     8    3   26 1
     9    3   27 1
    10    3   28 1
    11    4    5 1
    12    4   29 1
    13    4   30 1
    14    5    6 1
    15    5   31 1
    16    5   32 1
    17    6    7 1
    18    7   17 1
    19    7    8 2
    20    8    9 1
    21    8   33 1
    22    9   14 ar
    23    9   10 ar
    24   10   11 ar
    25   10   34 1
    26   11   12 ar
    27   11   35 1
    28   12   13 ar
    29   12   36 1
    30   13   14 ar
    31   13   37 1
    32   14   15 1
    33   15   16 1
    34   16   21 ar
    35   16   17 ar
    36   17   18 ar
    37   18   19 ar
    38   18   38 1
    39   19   20 ar
    40   19   22 1
    41   20   21 ar
    42   20   39 1
    43   21   40 1
@<TRIPOS>MOLECULE
ZINC13741670
   25    26     0     0     0
SMALL
USER_CHARGES
3-methoxy-5,6,7,8-tetrahydro-4H-isoxazolo[4,5-c]azepine
@<TRIPOS>ATOM
      1 C1         -0.0127    1.0858    0.0080 C.3       1 <0>         0.0270
      2 O1         -0.6816    1.5467    1.1837 O.3       1 <0>        -0.2823
      3 C2         -0.1496    1.1826    2.3779 C.2       1 <0>         0.2476
      4 C3         -0.6281    1.5128    3.6572 C.2       1 <0>        -0.2937
      5 C4          0.2280    0.9198    4.5094 C.2       1 <0>         0.0375
      6 O2          1.1401    0.2962    3.7655 O.3       1 <0>         0.1301
      7 N1          0.9163    0.4437    2.5796 N.2       1 <0>        -0.3916
      8 C5          0.1106    0.9910    6.0200 C.3       1 <0>        -0.0583
      9 C6         -1.2121    0.2962    6.3916 C.3       1 <0>        -0.1352
     10 C7         -2.3851    1.2116    6.1408 C.3       1 <0>        -0.0189
     11 C8         -1.8209    2.3494    4.0646 C.3       1 <0>         0.1013
     12 H1          0.0021   -0.0041    0.0020 H         1 <0>         0.0673
     13 H2          1.0099    1.4631    0.0003 H         1 <0>         0.0683
     14 H3         -0.5399    1.4469   -0.8751 H         1 <0>         0.1176
     15 H4          0.9485    0.4712    6.4845 H         1 <0>         0.1209
     16 H5          0.0895    2.0315    6.3441 H         1 <0>         0.1184
     17 H6         -1.3253   -0.6055    5.7898 H         1 <0>         0.0924
     18 H7         -1.1900    0.0231    7.4466 H         1 <0>         0.1317
     19 H8         -3.2507    0.7961    6.6567 H         1 <0>         0.1330
     20 H9         -2.1600    2.1768    6.5945 H         1 <0>         0.1309
     21 H10        -1.5042    3.1481    4.7354 H         1 <0>         0.1470
     22 H11        -2.2993    2.7715    3.1808 H         1 <0>         0.1476
     23 N2         -2.7764    1.4358    4.7536 N.4       1 <0>        -0.5152
     24 H12        -3.7137    1.8544    4.7338 H         1 <0>         0.4428
     25 H13        -2.7933    0.5351    4.2609 H         1 <0>         0.4337
@<TRIPOS>BOND
     1    1    2 1
     2    1   12 1
     3    1   13 1
     4    1   14 1
     5    2    3 1
     6    3    7 2
     7    3    4 1
     8    4   11 1
     9    4    5 2
    10    5    6 1
    11    5    8 1
    12    6    7 1
    13    8    9 1
    14    8   15 1
    15    8   16 1
    16    9   10 1
    17    9   17 1
    18    9   18 1
    19   10   19 1
    20   10   20 1
    21   10   23 1
    22   11   21 1
    23   11   22 1
    24   11   23 1
    25   23   24 1
    26   23   25 1
@<TRIPOS>MOLECULE
ZINC13125932
   47    50     0     0     0
SMALL
USER_CHARGES

@<TRIPOS>ATOM
      1 C1         -0.0217    1.4585   -0.1328 C.3       1 <0>        -0.0590
      2 N1          0.0021   -0.0041    0.0020 N.4       1 <0>        -0.2817
      3 C2          0.7608   -0.6210   -1.1184 C.3       1 <0>         0.0561
      4 H1          0.4977   -0.1869   -2.0830 H         1 <0>         0.1686
      5 C3          0.4926   -2.1338   -1.0718 C.3       1 <0>        -0.1407
      6 C4          1.0629   -2.6982    0.2325 C.3       1 <0>         0.0700
      7 C5          0.4998   -1.9174    1.4235 C.3       1 <0>        -0.1619
      8 C6          0.7759   -0.4064    1.2066 C.3       1 <0>         0.0498
      9 H2          0.5168    0.1899    2.0814 H         1 <0>         0.1651
     10 C7          2.2532   -0.2356    0.7836 C.3       1 <0>        -0.0198
     11 H3          3.0204   -0.6888    1.4114 H         1 <0>         0.1870
     12 C8          2.2432   -0.3778   -0.7527 C.3       1 <0>        -0.0336
     13 H4          3.0028   -0.9394   -1.2966 H         1 <0>         0.1917
     14 O1          2.5836    0.8651   -0.0656 O.3       1 <0>        -0.3001
     15 O2          0.7010   -4.0753    0.3530 O.3       1 <0>        -0.3169
     16 C9          1.5490   -4.8720    1.0222 C.2       1 <0>         0.4740
     17 O3          2.5650   -4.4153    1.4902 O.2       1 <0>        -0.4872
     18 C10         1.2339   -6.3361    1.1898 C.3       1 <0>        -0.0326
     19 H5          1.1510   -6.8045    0.2091 H         1 <0>         0.1277
     20 C11        -0.0895   -6.4901    1.9421 C.3       1 <0>         0.0865
     21 O4         -1.1535   -5.9630    1.1470 O.3       1 <0>        -0.5650
     22 C12         2.3368   -7.0010    1.9724 C.ar      1 <0>        -0.0939
     23 C13         2.6257   -6.5773    3.2561 C.ar      1 <0>        -0.0878
     24 C14         3.6375   -7.1871    3.9740 C.ar      1 <0>        -0.1189
     25 C15         4.3600   -8.2210    3.4084 C.ar      1 <0>        -0.1044
     26 C16         4.0705   -8.6453    2.1250 C.ar      1 <0>        -0.1175
     27 C17         3.0559   -8.0383    1.4087 C.ar      1 <0>        -0.1004
     28 C18        -1.3644   -0.5398    0.0624 C.3       1 <0>        -0.0602
     29 H6          0.9810    1.8185   -0.3630 H         1 <0>         0.1414
     30 H7         -0.7018    1.7382   -0.9375 H         1 <0>         0.1233
     31 H8         -0.3621    1.9041    0.8019 H         1 <0>         0.1220
     32 H9         -0.5815   -2.3155   -1.1094 H         1 <0>         0.1197
     33 H10         0.9763   -2.6167   -1.9209 H         1 <0>         0.1282
     34 H11         2.1493   -2.6092    0.2217 H         1 <0>         0.1036
     35 H12        -0.5739   -2.0896    1.4980 H         1 <0>         0.1168
     36 H13         0.9887   -2.2472    2.3402 H         1 <0>         0.1205
     37 H14        -0.2735   -7.5458    2.1414 H         1 <0>         0.0720
     38 H15        -0.0368   -5.9462    2.8852 H         1 <0>         0.0535
     39 H16        -2.0243   -6.0275    1.5626 H         1 <0>         0.3876
     40 H17         2.0612   -5.7695    3.6981 H         1 <0>         0.1161
     41 H18         3.8637   -6.8556    4.9767 H         1 <0>         0.1265
     42 H19         5.1509   -8.6970    3.9690 H         1 <0>         0.1278
     43 H20         4.6352   -9.4528    1.6829 H         1 <0>         0.1293
     44 H21         2.8272   -8.3723    0.4074 H         1 <0>         0.1263
     45 H22        -1.9034   -0.2634   -0.8438 H         1 <0>         0.1279
     46 H23        -1.3255   -1.6260    0.1449 H         1 <0>         0.1361
     47 H24        -1.8783   -0.1276    0.9307 H         1 <0>         0.1266
@<TRIPOS>BOND
     1    1    2 1
     2    1   29 1
     3    1   30 1
     4    1   31 1
     5    2    8 1
     6    2    3 1
     7    2   28 1
     8    3    4 1
     9    3   12 1
    10    3    5 1
    11    5    6 1
    12    5   32 1
    13    5   33 1
    14    6    7 1
    15    6   15 1
    16    6   34 1
    17    7    8 1
    18    7   35 1
    19    7   36 1
    20    8    9 1
    21    8   10 1
    22   10   11 1
    23   10   14 1
    24   10   12 1
    25   12   13 1
    26   12   14 1
    27   15   16 1
    28   16   17 2
    29   16   18 1
    30   18   19 1
    31   18   20 1
    32   18   22 1
    33   20   21 1
    34   20   37 1
    35   20   38 1
    36   21   39 1
    37   22   27 ar
    38   22   23 ar
    39   23   24 ar
    40   23   40 1
    41   24   25 ar
    42   24   41 1
    43   25   26 ar
    44   25   42 1
    45   26   27 ar
    46   26   43 1
    47   27   44 1
    48   28   45 1
    49   28   46 1
    50   28   47 1
@<TRIPOS>MOLECULE
ZINC02041362
   37    37     0     0     0
SMALL
USER_CHARGES

@<TRIPOS>ATOM
      1 C1         -0.0181    1.4423    0.0156 C.3       1 <0>        -0.0477
      2 N1          0.0100   -0.0265    0.0146 N.4       1 <0>        -0.2739
      3 C2          0.7249   -0.5034    1.2061 C.3       1 <0>        -0.0477
      4 C3         -1.3653   -0.5426    0.0295 C.3       1 <0>        -0.0449
      5 C4          0.6985   -0.5022   -1.1927 C.3       1 <0>         0.1314
      6 C5          2.0766    0.0149   -1.2076 C.1       1 <0>        -0.2319
      7 C6          3.1757    0.4274   -1.2195 C.1       1 <0>        -0.0636
      8 C7          4.5538    0.9446   -1.2344 C.3       1 <0>         0.1831
      9 O1          5.2236    0.4818   -2.4088 O.3       1 <0>        -0.3576
     10 C8          6.5026    0.8682   -2.5755 C.2       1 <0>         0.6558
     11 O2          7.0355    1.5790   -1.7464 O.2       1 <0>        -0.5400
     12 N2          7.1917    0.4667   -3.6619 N.am      1 <0>        -0.6415
     13 C9          8.4877    0.9456   -3.8849 C.ar      1 <0>         0.1572
     14 C10         8.9270    1.1870   -5.1802 C.ar      1 <0>        -0.1312
     15 C11        10.2063    1.6595   -5.3977 C.ar      1 <0>        -0.0844
     16 C12        11.0506    1.8921   -4.3275 C.ar      1 <0>        -0.1150
     17 C13        10.6164    1.6528   -3.0356 C.ar      1 <0>        -0.0173
     18 C14         9.3347    1.1856   -2.8115 C.ar      1 <0>        -0.1120
     19 Cl1        11.6797    1.9456   -1.6949 Cl        1 <0>        -0.0555
     20 H1          1.0024    1.8252    0.0046 H         1 <0>         0.1184
     21 H2         -0.5485    1.7961   -0.8684 H         1 <0>         0.1246
     22 H3         -0.5290    1.7953    0.9115 H         1 <0>         0.1260
     23 H4          0.2140   -0.1503    2.1019 H         1 <0>         0.1260
     24 H5          0.7458   -1.5932    1.2053 H         1 <0>         0.1247
     25 H6          1.7454   -0.1204    1.1950 H         1 <0>         0.1184
     26 H7         -1.8957   -0.1887   -0.8545 H         1 <0>         0.1253
     27 H8         -1.3444   -1.6324    0.0288 H         1 <0>         0.1253
     28 H9         -1.8761   -0.1896    0.9253 H         1 <0>         0.1271
     29 H10         0.7194   -1.5920   -1.1934 H         1 <0>         0.1507
     30 H11         0.1681   -0.1484   -2.0767 H         1 <0>         0.1507
     31 H12         4.5329    2.0344   -1.2336 H         1 <0>         0.1120
     32 H13         5.0842    0.5907   -0.3504 H         1 <0>         0.1120
     33 H14         6.7895   -0.1542   -4.2893 H         1 <0>         0.4230
     34 H15         8.2687    1.0050   -6.0168 H         1 <0>         0.1368
     35 H16        10.5479    1.8472   -6.4049 H         1 <0>         0.1435
     36 H17        12.0508    2.2610   -4.5003 H         1 <0>         0.1406
     37 H18         8.9943    1.0031   -1.8029 H         1 <0>         0.1515
@<TRIPOS>BOND
     1    1    2 1
     2    1   20 1
     3    1   21 1
     4    1   22 1
     5    2    3 1
     6    2    4 1
     7    2    5 1
     8    3   23 1
     9    3   24 1
    10    3   25 1
    11    4   26 1
    12    4   27 1
    13    4   28 1
    14    5    6 1
    15    5   29 1
    16    5   30 1
    17    6    7 3
    18    7    8 1
    19    8    9 1
    20    8   31 1
    21    8   32 1
    22    9   10 1
    23   10   11 2
    24   10   12 am
    25   12   13 1
    26   12   33 1
    27   13   18 ar
    28   13   14 ar
    29   14   15 ar
    30   14   34 1
    31   15   16 ar
    32   15   35 1
    33   16   17 ar
    34   16   36 1
    35   17   18 ar
    36   17   19 1
    37   18   37 1
@<TRIPOS>MOLECULE
ZINC19796155
   42    45     0     0     0
SMALL
USER_CHARGES

@<TRIPOS>ATOM
      1 C1         -0.0670    1.4396   -0.3852 C.3       1 <0>         0.0243
      2 N1         -0.0229   -0.0169   -0.1987 N.3       1 <0>        -0.5428
      3 C2          0.3808   -0.6943   -1.4380 C.3       1 <0>         0.0399
      4 C3          0.2401   -2.2095   -1.2572 C.3       1 <0>         0.1263
      5 N2          0.9912   -2.6085   -0.0572 N.pl3     1 <0>        -0.5953
      6 C4          0.7394   -1.8803    1.1955 C.3       1 <0>         0.1122
      7 C5          0.8604   -0.3781    0.9181 C.3       1 <0>         0.0393
      8 C6          1.9051   -3.6365   -0.1053 C.2       1 <0>         0.5098
      9 N3          2.1670   -4.1290   -1.2643 N.2       1 <0>        -0.6041
     10 C7          3.0130   -5.1503   -1.5719 C.ar      1 <0>         0.1655
     11 C8          2.6280   -6.0848   -2.5372 C.ar      1 <0>        -0.1058
     12 C9          3.4872   -7.1047   -2.8991 C.ar      1 <0>        -0.0230
     13 C10         4.7348   -7.2069   -2.3106 C.ar      1 <0>        -0.1209
     14 C11         5.1212   -6.2977   -1.3402 C.ar      1 <0>        -0.1017
     15 C12         4.2618   -5.2835   -0.9546 C.ar      1 <0>         0.1117
     16 N4          4.6314   -4.4326    0.1003 N.pl3     1 <0>        -0.7261
     17 C13         3.8434   -4.4184    1.2519 C.ar      1 <0>         0.2140
     18 C14         2.4943   -4.0640    1.1729 C.ar      1 <0>        -0.1453
     19 C15         1.7072   -4.1133    2.3240 C.ar      1 <0>        -0.0723
     20 C16         2.2727   -4.4729    3.5311 C.ar      1 <0>        -0.1389
     21 C17         3.6189   -4.7825    3.6069 C.ar      1 <0>        -0.0765
     22 C18         4.3974   -4.7629    2.4751 C.ar      1 <0>        -0.1433
     23 Cl1         2.9987   -8.2627   -4.0966 Cl        1 <0>        -0.0679
     24 H1          0.9359    1.8090   -0.5992 H         1 <0>         0.0255
     25 H2         -0.7279    1.6794   -1.2181 H         1 <0>         0.0711
     26 H3         -0.4416    1.9111    0.5233 H         1 <0>         0.0709
     27 H4         -0.2581   -0.3649   -2.2574 H         1 <0>         0.0878
     28 H5          1.4186   -0.4499   -1.6647 H         1 <0>         0.0378
     29 H6         -0.8117   -2.4673   -1.1334 H         1 <0>         0.0720
     30 H7          0.6453   -2.7216   -2.1299 H         1 <0>         0.1060
     31 H8         -0.2645   -2.1065    1.5551 H         1 <0>         0.0792
     32 H9          1.4746   -2.1748    1.9444 H         1 <0>         0.0984
     33 H10         1.8915   -0.1381    0.6586 H         1 <0>         0.0379
     34 H11         0.5693    0.1807    1.8075 H         1 <0>         0.0892
     35 H12         1.6558   -6.0097   -3.0016 H         1 <0>         0.1375
     36 H13         5.4083   -7.9971   -2.6081 H         1 <0>         0.1357
     37 H14         6.0961   -6.3802   -0.8829 H         1 <0>         0.1326
     38 H15         5.4169   -3.8679    0.0299 H         1 <0>         0.4097
     39 H16         0.6563   -3.8699    2.2709 H         1 <0>         0.1344
     40 H17         1.6613   -4.5124    4.4205 H         1 <0>         0.1323
     41 H18         4.0571   -5.0467    4.5580 H         1 <0>         0.1317
     42 H19         5.4473   -5.0071    2.5424 H         1 <0>         0.1313
@<TRIPOS>BOND
     1    1    2 1
     2    1   24 1
     3    1   25 1
     4    1   26 1
     5    2    7 1
     6    2    3 1
     7    3    4 1
     8    3   27 1
     9    3   28 1
    10    4    5 1
    11    4   29 1
    12    4   30 1
    13    5    6 1
    14    5    8 1
    15    6    7 1
    16    6   31 1
    17    6   32 1
    18    7   33 1
    19    7   34 1
    20    8   18 1
    21    8    9 2
    22    9   10 1
    23   10   15 ar
    24   10   11 ar
    25   11   12 ar
    26   11   35 1
    27   12   13 ar
    28   12   23 1
    29   13   14 ar
    30   13   36 1
    31   14   15 ar
    32   14   37 1
    33   15   16 1
    34   16   17 1
    35   16   38 1
    36   17   22 ar
    37   17   18 ar
    38   18   19 ar
    39   19   20 ar
    40   19   39 1
    41   20   21 ar
    42   20   40 1
    43   21   22 ar
    44   21   41 1
    45   22   42 1
@<TRIPOS>MOLECULE
ZINC19796155
   44    47     0     0     0
SMALL
USER_CHARGES

@<TRIPOS>ATOM
      1 C1         -1.5703   -0.0018   -1.9302 C.3       1 <0>        -0.0497
      2 N1         -0.7527   -0.7171   -0.9414 N.4       1 <0>        -0.3854
      3 C2         -1.0498   -2.1535   -1.0104 C.3       1 <0>        -0.0252
      4 C3         -0.2839   -2.8861    0.0962 C.3       1 <0>         0.1048
      5 N2          1.1441   -2.5548   -0.0269 N.pl3     1 <0>        -0.7052
      6 C4          1.5202   -1.1363   -0.1296 C.3       1 <0>         0.1049
      7 C5          0.6692   -0.4862   -1.2256 C.3       1 <0>        -0.0251
      8 C6          2.0831   -3.5253   -0.0448 C.2       1 <0>         0.6309
      9 C7          2.6112   -3.9094    1.2074 C.ar      1 <0>        -0.2438
     10 C8          2.0495   -3.1929    2.2728 C.ar      1 <0>         0.0055
     11 C9          2.4602   -3.4528    3.5483 C.ar      1 <0>        -0.1817
     12 C10         3.4265   -4.4148    3.8208 C.ar      1 <0>         0.0489
     13 C11         4.0101   -5.1439    2.8276 C.ar      1 <0>        -0.2233
     14 C12         3.6302   -4.9235    1.4921 C.ar      1 <0>         0.3343
     15 N3          4.2865   -5.7106    0.6358 N.pl3     1 <0>        -0.6131
     16 C13         4.1767   -5.7728   -0.7271 C.ar      1 <0>         0.1589
     17 C14         5.0408   -6.7320   -1.2562 C.ar      1 <0>        -0.1157
     18 C15         5.0795   -6.9478   -2.6222 C.ar      1 <0>        -0.0495
     19 C16         4.2642   -6.2154   -3.4643 C.ar      1 <0>        -0.0338
     20 C17         3.4016   -5.2585   -2.9468 C.ar      1 <0>        -0.0846
     21 C18         3.3520   -5.0321   -1.5848 C.ar      1 <0>         0.0769
     22 N4          2.4115   -4.0290   -1.2719 N.pl3     1 <0>        -0.5773
     23 Cl1         4.3195   -6.4929   -5.1771 Cl        1 <0>        -0.0159
     24 H1         -1.3348   -0.3678   -2.9295 H         1 <0>         0.1246
     25 H2         -2.6262   -0.1724   -1.7203 H         1 <0>         0.1321
     26 H3         -1.3566    1.0656   -1.8745 H         1 <0>         0.1321
     27 H4         -2.1201   -2.3101   -0.8766 H         1 <0>         0.1569
     28 H5         -0.7442   -2.5415   -1.9820 H         1 <0>         0.1344
     29 H6         -0.6518   -2.5648    1.0707 H         1 <0>         0.1155
     30 H7         -0.4211   -3.9618   -0.0138 H         1 <0>         0.1302
     31 H8          1.3345   -0.6383    0.8220 H         1 <0>         0.1155
     32 H9          2.5758   -1.0551   -0.3891 H         1 <0>         0.1302
     33 H10         0.9228   -0.9247   -2.1907 H         1 <0>         0.1344
     34 H11         0.8655    0.5856   -1.2504 H         1 <0>         0.1569
     35 H12         1.2975   -2.4405    2.0860 H         1 <0>         0.1502
     36 H13         2.0243   -2.8976    4.3657 H         1 <0>         0.1496
     37 H14         3.7223   -4.5886    4.8448 H         1 <0>         0.1558
     38 H15         4.7590   -5.8851    3.0650 H         1 <0>         0.1623
     39 H16         5.6790   -7.3052   -0.6001 H         1 <0>         0.1677
     40 H17         5.7487   -7.6901   -3.0316 H         1 <0>         0.1653
     41 H18         2.7675   -4.6896   -3.6107 H         1 <0>         0.1565
     42 H19         1.9393   -3.6432   -2.0263 H         1 <0>         0.4255
     43 H20         4.9278   -6.3202    1.0333 H         1 <0>         0.4372
     44 H21        -0.9695   -0.3754   -0.0171 H         1 <0>         0.4310
@<TRIPOS>BOND
     1    1    2 1
     2    1   24 1
     3    1   25 1
     4    1   26 1
     5    2    7 1
     6    2    3 1
     7    2   44 1
     8    3    4 1
     9    3   27 1
    10    3   28 1
    11    4    5 1
    12    4   29 1
    13    4   30 1
    14    5    6 1
    15    5    8 1
    16    6    7 1
    17    6   31 1
    18    6   32 1
    19    7   33 1
    20    7   34 1
    21    8   22 1
    22    8    9 2
    23    9   14 ar
    24    9   10 ar
    25   10   11 ar
    26   10   35 1
    27   11   12 ar
    28   11   36 1
    29   12   13 ar
    30   12   37 1
    31   13   14 ar
    32   13   38 1
    33   14   15 2
    34   15   16 1
    35   15   43 1
    36   16   21 ar
    37   16   17 ar
    38   17   18 ar
    39   17   39 1
    40   18   19 ar
    41   18   40 1
    42   19   20 ar
    43   19   23 1
    44   20   21 ar
    45   20   41 1
    46   21   22 1
    47   22   42 1
@<TRIPOS>MOLECULE
ZINC19796155
   43    46     0     0     0
SMALL
USER_CHARGES

@<TRIPOS>ATOM
      1 C1         -0.0523    1.4387   -0.3863 C.3       1 <0>        -0.0469
      2 N1         -0.0147   -0.0168   -0.1908 N.4       1 <0>        -0.3852
      3 C2          0.4863   -0.6601   -1.4120 C.3       1 <0>        -0.0213
      4 C3          0.4181   -2.1823   -1.2510 C.3       1 <0>         0.1002
      5 N2          1.1441   -2.5548   -0.0269 N.pl3     1 <0>        -0.6180
      6 C4          0.8178   -1.8405    1.2170 C.3       1 <0>         0.0860
      7 C5          0.8671   -0.3344    0.9395 C.3       1 <0>        -0.0221
      8 C6          2.1017   -3.5432   -0.0451 C.2       1 <0>         0.5019
      9 N3          2.4234   -4.0210   -1.1951 N.2       1 <0>        -0.5760
     10 C7          3.3217   -5.0050   -1.4750 C.ar      1 <0>         0.1390
     11 C8          3.0096   -5.9522   -2.4541 C.ar      1 <0>        -0.0932
     12 C9          3.9229   -6.9340   -2.7877 C.ar      1 <0>        -0.0267
     13 C10         5.1529   -6.9852   -2.1572 C.ar      1 <0>        -0.1032
     14 C11         5.4673   -6.0631   -1.1730 C.ar      1 <0>        -0.1031
     15 C12         4.5533   -5.0871   -0.8155 C.ar      1 <0>         0.1235
     16 N4          4.8505   -4.2243    0.2524 N.pl3     1 <0>        -0.7273
     17 C13         4.0239   -4.2464    1.3765 C.ar      1 <0>         0.2173
     18 C14         2.6645   -3.9489    1.2520 C.ar      1 <0>        -0.1537
     19 C15         1.8414   -4.0345    2.3754 C.ar      1 <0>        -0.0841
     20 C16         2.3802   -4.3733    3.6007 C.ar      1 <0>        -0.1334
     21 C17         3.7349   -4.6261    3.7220 C.ar      1 <0>        -0.0692
     22 C18         4.5500   -4.5705    2.6174 C.ar      1 <0>        -0.1369
     23 Cl1         3.5248   -8.1083   -4.0027 Cl        1 <0>        -0.0551
     24 H1          0.9534    1.8033   -0.5956 H         1 <0>         0.1211
     25 H2         -0.7066    1.6758   -1.2253 H         1 <0>         0.1256
     26 H3         -0.4316    1.9169    0.5167 H         1 <0>         0.1252
     27 H4         -0.1269   -0.3565   -2.2605 H         1 <0>         0.1425
     28 H5          1.5196   -0.3587   -1.5839 H         1 <0>         0.1315
     29 H6         -0.6226   -2.4957   -1.1694 H         1 <0>         0.0898
     30 H7          0.8819   -2.6629   -2.1125 H         1 <0>         0.1431
     31 H8         -0.1827   -2.1194    1.5479 H         1 <0>         0.0960
     32 H9          1.5457   -2.0950    1.9873 H         1 <0>         0.1385
     33 H10         1.8889   -0.0428    0.6965 H         1 <0>         0.1320
     34 H11         0.5345    0.2092    1.8238 H         1 <0>         0.1439
     35 H12         2.0515   -5.9169   -2.9512 H         1 <0>         0.1396
     36 H13         5.8689   -7.7454   -2.4325 H         1 <0>         0.1422
     37 H14         6.4287   -6.1057   -0.6827 H         1 <0>         0.1382
     38 H15         5.6134   -3.6267    0.2096 H         1 <0>         0.4129
     39 H16         0.7836   -3.8354    2.2868 H         1 <0>         0.1314
     40 H17         1.7411   -4.4409    4.4686 H         1 <0>         0.1357
     41 H18         4.1512   -4.8742    4.6872 H         1 <0>         0.1370
     42 H19         5.6063   -4.7705    2.7202 H         1 <0>         0.1363
     43 H20        -0.9456   -0.3526    0.0057 H         1 <0>         0.4250
@<TRIPOS>BOND
     1    1    2 1
     2    1   24 1
     3    1   25 1
     4    1   26 1
     5    2    7 1
     6    2    3 1
     7    2   43 1
     8    3    4 1
     9    3   27 1
    10    3   28 1
    11    4    5 1
    12    4   29 1
    13    4   30 1
    14    5    6 1
    15    5    8 1
    16    6    7 1
    17    6   31 1
    18    6   32 1
    19    7   33 1
    20    7   34 1
    21    8   18 1
    22    8    9 2
    23    9   10 1
    24   10   15 ar
    25   10   11 ar
    26   11   12 ar
    27   11   35 1
    28   12   13 ar
    29   12   23 1
    30   13   14 ar
    31   13   36 1
    32   14   15 ar
    33   14   37 1
    34   15   16 1
    35   16   17 1
    36   16   38 1
    37   17   22 ar
    38   17   18 ar
    39   18   19 ar
    40   19   20 ar
    41   19   39 1
    42   20   21 ar
    43   20   40 1
    44   21   22 ar
    45   21   41 1
    46   22   42 1
@<TRIPOS>MOLECULE
ZINC21981285
   43    46     0     0     0
SMALL
USER_CHARGES
2-methyl-4-(4-methyl-4-oxido-piperazin-4-ium-1-yl)-10H-thieno[2,3-b][1,5]benzodiazepine
@<TRIPOS>ATOM
      1 C1          2.9038    6.4918    5.1713 C.3       1 <0>        -0.0743
      2 C2          2.5841    5.9872    3.7877 C.2       1 <0>        -0.1570
      3 C3          1.6203    6.4061    2.9476 C.2       1 <0>        -0.1226
      4 C4          1.5187    5.7561    1.6557 C.2       1 <0>        -0.2098
      5 C5          2.4401    4.7329    1.4382 C.2       1 <0>         0.1289
      6 S1          3.3908    4.6901    2.8686 S.3       1 <0>         0.0930
      7 N1          2.5080    3.9286    0.3147 N.pl3     1 <0>        -0.6777
      8 C6          1.3315    3.2142   -0.0160 C.ar      1 <0>         0.1031
      9 C7          1.3808    1.8362   -0.0928 C.ar      1 <0>        -0.1116
     10 C8          0.2284    1.1107   -0.3528 C.ar      1 <0>        -0.1294
     11 C9         -0.9707    1.7703   -0.5405 C.ar      1 <0>        -0.1061
     12 C10        -1.0299    3.1476   -0.4724 C.ar      1 <0>        -0.1148
     13 C11         0.1267    3.8974   -0.2224 C.ar      1 <0>         0.1662
     14 N2          0.0187    5.2530   -0.2091 N.2       1 <0>        -0.6188
     15 C12         0.5397    6.1123    0.6013 C.2       1 <0>         0.5357
     16 N3          0.1661    7.4315    0.4793 N.pl3     1 <0>        -0.5959
     17 C13        -0.9003    7.8326   -0.4514 C.3       1 <0>         0.1204
     18 C14        -0.3898    8.9864   -1.3135 C.3       1 <0>         0.0049
     19 N4          0.0980   10.0673   -0.4475 N.4       1 <0>        -0.1193
     20 O1         -0.9664   10.4715    0.4712 O.3       1 <0>        -0.6424
     21 C15         1.2586    9.6048    0.3239 C.3       1 <0>         0.0037
     22 C16         0.8259    8.4809    1.2713 C.3       1 <0>         0.1099
     23 C17         0.4891   11.2153   -1.2764 C.3       1 <0>        -0.0176
     24 H1          2.2086    7.3022    5.4358 H         1 <0>         0.0841
     25 H2          3.9357    6.8721    5.1935 H         1 <0>         0.0783
     26 H3          2.8005    5.6694    5.8945 H         1 <0>         0.0780
     27 H4          0.9445    7.2010    3.2265 H         1 <0>         0.1434
     28 H5          3.4409    3.8717   -0.2654 H         1 <0>         0.4409
     29 H6          2.3200    1.3223    0.0498 H         1 <0>         0.1236
     30 H7          0.2689    0.0331   -0.4128 H         1 <0>         0.1263
     31 H8         -1.8690    1.2041   -0.7380 H         1 <0>         0.1261
     32 H9         -1.9741    3.6513   -0.6176 H         1 <0>         0.1273
     33 H10        -1.1691    6.9789   -1.0909 H         1 <0>         0.1157
     34 H11        -1.7833    8.1552    0.1198 H         1 <0>         0.0911
     35 H12         0.4314    8.6307   -1.9532 H         1 <0>         0.0895
     36 H13        -1.2087    9.3634   -1.9438 H         1 <0>         0.1146
     37 H14         2.0298    9.2283   -0.3642 H         1 <0>         0.0899
     38 H15         1.6668   10.4417    0.9095 H         1 <0>         0.1156
     39 H16         0.1220    8.8717    2.0209 H         1 <0>         0.0971
     40 H17         1.7054    8.0585    1.7793 H         1 <0>         0.1104
     41 H18         0.8550   12.0266   -0.6299 H         1 <0>         0.0993
     42 H19        -0.3814   11.5673   -1.8494 H         1 <0>         0.1000
     43 H20         1.2866   10.9116   -1.9705 H         1 <0>         0.0805
@<TRIPOS>BOND
     1    1    2 1
     2    1   24 1
     3    1   25 1
     4    1   26 1
     5    2    6 1
     6    2    3 2
     7    3    4 1
     8    3   27 1
     9    4   15 1
    10    4    5 2
    11    5    6 1
    12    5    7 1
    13    7    8 1
    14    7   28 1
    15    8   13 ar
    16    8    9 ar
    17    9   10 ar
    18    9   29 1
    19   10   11 ar
    20   10   30 1
    21   11   12 ar
    22   11   31 1
    23   12   13 ar
    24   12   32 1
    25   13   14 1
    26   14   15 2
    27   15   16 1
    28   16   22 1
    29   16   17 1
    30   17   18 1
    31   17   33 1
    32   17   34 1
    33   18   19 1
    34   18   35 1
    35   18   36 1
    36   19   20 1
    37   19   21 1
    38   19   23 1
    39   21   22 1
    40   21   37 1
    41   21   38 1
    42   22   39 1
    43   22   40 1
    44   23   41 1
    45   23   42 1
    46   23   43 1
@<TRIPOS>MOLECULE
ZINC00901537
   50    54     0     0     0
SMALL
USER_CHARGES
dimethoxy-methyl-BLAH
@<TRIPOS>ATOM
      1 C1          2.6799   -2.3984   -1.8923 C.3       1 <0>        -0.0590
      2 N1          2.4790   -2.7307   -0.4755 N.4       1 <0>        -0.2600
      3 C2          2.4622   -4.1915   -0.3073 C.3       1 <0>        -0.0028
      4 C3          3.6821   -4.7837   -1.0110 C.3       1 <0>        -0.1016
      5 C4          4.9303   -4.0933   -0.5157 C.ar      1 <0>        -0.0792
      6 C5          6.1467   -4.7429   -0.7202 C.ar      1 <0>        -0.0902
      7 C6          7.2964   -4.1153   -0.2692 C.ar      1 <0>         0.0619
      8 C7          7.2310   -2.8687    0.3725 C.ar      1 <0>         0.0501
      9 C8          6.0173   -2.2324    0.5710 C.ar      1 <0>        -0.0829
     10 C9          4.8624   -2.8698    0.1122 C.ar      1 <0>        -0.1140
     11 C10         3.5550   -2.1420    0.3265 C.3       1 <0>         0.0909
     12 H1          3.2899   -2.1942    1.3825 H         1 <0>         0.1466
     13 C11         3.7227   -0.6739   -0.0798 C.3       1 <0>        -0.0920
     14 C12         2.3967    0.0196   -0.0254 C.ar      1 <0>        -0.1196
     15 C13         2.3768    1.4059   -0.0147 C.ar      1 <0>        -0.0627
     16 C14         1.1770    2.0889    0.0020 C.ar      1 <0>        -0.1752
     17 C15        -0.0168    1.3855    0.0097 C.ar      1 <0>         0.1309
     18 C16         0.0021   -0.0041    0.0020 C.ar      1 <0>         0.0857
     19 C17         1.2127   -0.6872   -0.0154 C.ar      1 <0>        -0.1058
     20 C18         1.1906   -2.1918   -0.0192 C.3       1 <0>         0.0527
     21 O1         -1.1676   -0.6978    0.0112 O.3       1 <0>        -0.3219
     22 C19        -1.7396   -1.0220   -1.2576 C.3       1 <0>         0.0302
     23 O2         -1.2021    2.0521    0.0189 O.3       1 <0>        -0.2988
     24 C20        -1.1433    3.4799    0.0264 C.3       1 <0>         0.0196
     25 O3          8.4841   -2.4860    0.7082 O.3       1 <0>        -0.2967
     26 C21         9.3648   -3.3165   -0.0769 C.3       1 <0>         0.2099
     27 O4          8.5893   -4.5061   -0.3323 O.3       1 <0>        -0.2957
     28 H2          2.6769   -1.3154   -2.0155 H         1 <0>         0.1263
     29 H3          3.6363   -2.7996   -2.2274 H         1 <0>         0.1274
     30 H4          1.8755   -2.8338   -2.4852 H         1 <0>         0.1236
     31 H5          2.4979   -4.4372    0.7541 H         1 <0>         0.1342
     32 H6          1.5516   -4.5992   -0.7461 H         1 <0>         0.1391
     33 H7          3.7456   -5.8498   -0.7933 H         1 <0>         0.1270
     34 H8          3.5881   -4.6369   -2.0870 H         1 <0>         0.1077
     35 H9          6.1913   -5.7025   -1.2138 H         1 <0>         0.1554
     36 H10         5.9654   -1.2732    1.0648 H         1 <0>         0.1533
     37 H11         4.4013   -0.1813    0.6164 H         1 <0>         0.1222
     38 H12         4.1392   -0.6224   -1.0858 H         1 <0>         0.1089
     39 H13         3.3065    1.9555   -0.0198 H         1 <0>         0.1424
     40 H14         1.1690    3.1689    0.0088 H         1 <0>         0.1470
     41 H15         0.9892   -2.5502    0.9903 H         1 <0>         0.1443
     42 H16         0.4007   -2.5374   -0.6860 H         1 <0>         0.1388
     43 H17        -2.6674   -1.5740   -1.1075 H         1 <0>         0.1053
     44 H18        -1.9478   -0.1042   -1.8074 H         1 <0>         0.0569
     45 H19        -1.0398   -1.6350   -1.8256 H         1 <0>         0.0408
     46 H20        -2.1551    3.8852    0.0334 H         1 <0>         0.1117
     47 H21        -0.6107    3.8170    0.9157 H         1 <0>         0.0634
     48 H22        -0.6192    3.8266   -0.8642 H         1 <0>         0.0619
     49 H23         9.6236   -2.8211   -1.0127 H         1 <0>         0.0988
     50 H24        10.2641   -3.5609    0.4884 H         1 <0>         0.1433
@<TRIPOS>BOND
     1    1    2 1
     2    1   28 1
     3    1   29 1
     4    1   30 1
     5    2   11 1
     6    2   20 1
     7    2    3 1
     8    3    4 1
     9    3   31 1
    10    3   32 1
    11    4    5 1
    12    4   33 1
    13    4   34 1
    14    5   10 ar
    15    5    6 ar
    16    6    7 ar
    17    6   35 1
    18    7   27 1
    19    7    8 ar
    20    8    9 ar
    21    8   25 1
    22    9   10 ar
    23    9   36 1
    24   10   11 1
    25   11   12 1
    26   11   13 1
    27   13   14 1
    28   13   37 1
    29   13   38 1
    30   14   19 ar
    31   14   15 ar
    32   15   16 ar
    33   15   39 1
    34   16   17 ar
    35   16   40 1
    36   17   18 ar
    37   17   23 1
    38   18   19 ar
    39   18   21 1
    40   19   20 1
    41   20   41 1
    42   20   42 1
    43   21   22 1
    44   22   43 1
    45   22   44 1
    46   22   45 1
    47   23   24 1
    48   24   46 1
    49   24   47 1
    50   24   48 1
    51   25   26 1
    52   26   27 1
    53   26   49 1
    54   26   50 1
@<TRIPOS>MOLECULE
ZINC01630141
   50    54     0     0     0
SMALL
USER_CHARGES
dimethoxy-methyl-BLAH
@<TRIPOS>ATOM
      1 C1         -3.5099    2.6751    1.8605 C.3       1 <0>        -0.0583
      2 N1         -3.6613    3.0403    0.4457 N.4       1 <0>        -0.2584
      3 C2         -4.9172    3.7827    0.2573 C.3       1 <0>        -0.0034
      4 C3         -6.0525    3.0128    0.9300 C.3       1 <0>        -0.1020
      5 C4         -6.0645    1.5913    0.4216 C.ar      1 <0>        -0.0788
      6 C5         -7.2376    0.8578    0.5928 C.ar      1 <0>        -0.0902
      7 C6         -7.2554   -0.4473    0.1288 C.ar      1 <0>         0.0623
      8 C7         -6.1269   -1.0058   -0.4915 C.ar      1 <0>         0.0500
      9 C8         -4.9665   -0.2686   -0.6564 C.ar      1 <0>        -0.0826
     10 C9         -4.9555    1.0466   -0.1864 C.ar      1 <0>        -0.1145
     11 C10        -3.6803    1.8282   -0.3775 C.3       1 <0>         0.0911
     12 H1         -3.5809    2.1074   -1.4264 H         1 <0>         0.1452
     13 C11        -2.4979    0.9414    0.0269 C.3       1 <0>        -0.0925
     14 C12        -1.2252    1.7477    0.0174 C.ar      1 <0>        -0.1194
     15 C13        -0.0126    1.0758    0.0080 C.ar      1 <0>        -0.0629
     16 C14         1.1765    1.7776    0.0004 C.ar      1 <0>        -0.1750
     17 C15         1.1591    3.1631    0.0084 C.ar      1 <0>         0.1304
     18 C16        -0.0559    3.8373    0.0215 C.ar      1 <0>         0.0859
     19 C17        -1.2506    3.1263    0.0268 C.ar      1 <0>        -0.1064
     20 C18        -2.5449    3.8937    0.0290 C.3       1 <0>         0.0509
     21 O1         -0.0764    5.1971    0.0287 O.3       1 <0>        -0.3239
     22 C19        -0.0963    5.8524   -1.2411 C.3       1 <0>         0.0309
     23 O2          2.3267    3.8604    0.0039 O.3       1 <0>        -0.2989
     24 C20         3.5365    3.1000   -0.0092 C.3       1 <0>         0.0197
     25 O3         -6.4112   -2.2797   -0.8461 O.3       1 <0>        -0.2967
     26 C21        -7.5888   -2.6367   -0.0926 C.3       1 <0>         0.2098
     27 O4         -8.2397   -1.3738    0.1592 O.3       1 <0>        -0.2956
     28 H2         -2.5755    2.1306    1.9972 H         1 <0>         0.1264
     29 H3         -3.4962    3.5789    2.4696 H         1 <0>         0.1259
     30 H4         -4.3455    2.0447    2.1645 H         1 <0>         0.1266
     31 H5         -5.1256    3.8838   -0.8078 H         1 <0>         0.1331
     32 H6         -4.8283    4.7707    0.7090 H         1 <0>         0.1398
     33 H7         -7.0040    3.4905    0.6964 H         1 <0>         0.1269
     34 H8         -5.9013    3.0116    2.0094 H         1 <0>         0.1086
     35 H9         -8.1029    1.2922    1.0713 H         1 <0>         0.1555
     36 H10        -4.0974   -0.6970   -1.1333 H         1 <0>         0.1532
     37 H11        -2.4079    0.1146   -0.6776 H         1 <0>         0.1229
     38 H12        -2.6689    0.5466    1.0284 H         1 <0>         0.1076
     39 H13         0.0021   -0.0041    0.0020 H         1 <0>         0.1422
     40 H14         2.1177    1.2480   -0.0121 H         1 <0>         0.1470
     41 H15        -2.4575    4.7419    0.7081 H         1 <0>         0.1493
     42 H16        -2.7456    4.2608   -0.9775 H         1 <0>         0.1350
     43 H17         0.7935    5.5759   -1.8066 H         1 <0>         0.0561
     44 H18        -0.9862    5.5489   -1.7926 H         1 <0>         0.0436
     45 H19        -0.1115    6.9321   -1.0926 H         1 <0>         0.1048
     46 H20         3.5771    2.4665    0.8769 H         1 <0>         0.0630
     47 H21         3.5642    2.4767   -0.9030 H         1 <0>         0.0620
     48 H22         4.3910    3.7767   -0.0116 H         1 <0>         0.1117
     49 H23        -7.3108   -3.1170    0.8456 H         1 <0>         0.0988
     50 H24        -8.2359   -3.2900   -0.6779 H         1 <0>         0.1434
@<TRIPOS>BOND
     1    1    2 1
     2    1   28 1
     3    1   29 1
     4    1   30 1
     5    2   11 1
     6    2   20 1
     7    2    3 1
     8    3    4 1
     9    3   31 1
    10    3   32 1
    11    4    5 1
    12    4   33 1
    13    4   34 1
    14    5   10 ar
    15    5    6 ar
    16    6    7 ar
    17    6   35 1
    18    7   27 1
    19    7    8 ar
    20    8    9 ar
    21    8   25 1
    22    9   10 ar
    23    9   36 1
    24   10   11 1
    25   11   12 1
    26   11   13 1
    27   13   14 1
    28   13   37 1
    29   13   38 1
    30   14   19 ar
    31   14   15 ar
    32   15   16 ar
    33   15   39 1
    34   16   17 ar
    35   16   40 1
    36   17   18 ar
    37   17   23 1
    38   18   19 ar
    39   18   21 1
    40   19   20 1
    41   20   41 1
    42   20   42 1
    43   21   22 1
    44   22   43 1
    45   22   44 1
    46   22   45 1
    47   23   24 1
    48   24   46 1
    49   24   47 1
    50   24   48 1
    51   25   26 1
    52   26   27 1
    53   26   49 1
    54   26   50 1
@<TRIPOS>MOLECULE
ZINC13448098
   37    38     0     0     0
SMALL
USER_CHARGES
(5R)-5-methyl-1-(4-pyrrolidin-1-ylbut-2-ynyl)pyrrolidin-2-one
@<TRIPOS>ATOM
      1 C1         -0.7675    1.5976    1.2366 C.3       1 <0>        -0.1605
      2 C2         -0.0127    1.0858    0.0080 C.3       1 <0>         0.1249
      3 H1          0.0021   -0.0041    0.0020 H         1 <0>         0.0919
      4 C3          1.4292    1.6401   -0.0028 C.3       1 <0>        -0.1290
      5 C4          1.6751    1.8496   -1.5149 C.3       1 <0>        -0.1562
      6 C5          0.2890    2.0224   -2.0958 C.2       1 <0>         0.5212
      7 O1          0.0474    2.4817   -3.1919 O.2       1 <0>        -0.5212
      8 N1         -0.6360    1.5920   -1.2205 N.am      1 <0>        -0.6195
      9 C6         -2.0806    1.6242   -1.4618 C.3       1 <0>         0.2174
     10 C7         -2.6291    2.9049   -0.9866 C.1       1 <0>        -0.0609
     11 C8         -3.0665    3.9263   -0.6075 C.1       1 <0>        -0.2718
     12 C9         -3.6150    5.2069   -0.1323 C.3       1 <0>         0.1448
     13 C10        -3.0618    6.1114   -2.3241 C.3       1 <0>        -0.0047
     14 C11        -2.8426    7.5364   -2.8914 C.3       1 <0>        -0.1475
     15 C12        -3.5826    8.4321   -1.8715 C.3       1 <0>        -0.1462
     16 C13        -3.6596    7.5941   -0.5818 C.3       1 <0>        -0.0101
     17 H2         -0.7856    2.6874    1.2239 H         1 <0>         0.0583
     18 H3         -1.7887    1.2170    1.2202 H         1 <0>         0.0588
     19 H4         -0.2658    1.2530    2.1408 H         1 <0>         0.0802
     20 H5          1.4878    2.5854    0.5366 H         1 <0>         0.0846
     21 H6          2.1294    0.9137    0.4099 H         1 <0>         0.0988
     22 H7          2.2737    2.7448   -1.6836 H         1 <0>         0.1075
     23 H8          2.1635    0.9760   -1.9467 H         1 <0>         0.1126
     24 H9         -2.2730    1.5205   -2.5297 H         1 <0>         0.1202
     25 H10        -2.5569    0.8035   -0.9254 H         1 <0>         0.1184
     26 H11        -4.6898    5.2309   -0.3118 H         1 <0>         0.1441
     27 H12        -3.4226    5.3107    0.9356 H         1 <0>         0.1483
     28 H13        -2.2784    5.4358   -2.6677 H         1 <0>         0.1334
     29 H14        -4.0459    5.7339   -2.6018 H         1 <0>         0.1328
     30 H15        -3.2882    7.6301   -3.8817 H         1 <0>         0.1162
     31 H16        -1.7807    7.7809   -2.9204 H         1 <0>         0.0983
     32 H17        -4.5846    8.6664   -2.2308 H         1 <0>         0.1041
     33 H18        -3.0210    9.3492   -1.6938 H         1 <0>         0.1059
     34 H19        -4.7016    7.4088   -0.3211 H         1 <0>         0.1330
     35 H20        -3.1601    8.1163    0.2342 H         1 <0>         0.1361
     36 N2         -2.9730    6.3346   -0.8725 N.4       1 <0>        -0.3971
     37 H21        -1.9878    6.4040   -0.5918 H         1 <0>         0.4330
@<TRIPOS>BOND
     1    1    2 1
     2    1   17 1
     3    1   18 1
     4    1   19 1
     5    2    3 1
     6    2    8 1
     7    2    4 1
     8    4    5 1
     9    4   20 1
    10    4   21 1
    11    5    6 1
    12    5   22 1
    13    5   23 1
    14    6    7 2
    15    6    8 am
    16    8    9 1
    17    9   10 1
    18    9   24 1
    19    9   25 1
    20   10   11 3
    21   11   12 1
    22   12   26 1
    23   12   27 1
    24   12   36 1
    25   13   14 1
    26   13   28 1
    27   13   29 1
    28   13   36 1
    29   14   15 1
    30   14   30 1
    31   14   31 1
    32   15   16 1
    33   15   32 1
    34   15   33 1
    35   16   34 1
    36   16   35 1
    37   16   36 1
    38   36   37 1
@<TRIPOS>MOLECULE
ZINC13448101
   37    38     0     0     0
SMALL
USER_CHARGES
(5S)-5-methyl-1-(4-pyrrolidin-1-ylbut-2-ynyl)pyrrolidin-2-one
@<TRIPOS>ATOM
      1 C1          0.8633    4.0010   -1.4020 C.3       1 <0>        -0.1630
      2 C2          0.7114    3.4148    0.0030 C.3       1 <0>         0.1256
      3 H1          1.3337    3.9640    0.7096 H         1 <0>         0.0949
      4 C3         -0.7678    3.4598    0.4461 C.3       1 <0>        -0.1291
      5 C4         -1.2661    2.0581    0.0186 C.3       1 <0>        -0.1555
      6 C5         -0.0144    1.2086    0.0087 C.2       1 <0>         0.5215
      7 O1          0.0021   -0.0041    0.0020 O.2       1 <0>        -0.5208
      8 N1          1.0769    1.9934    0.0025 N.am      1 <0>        -0.6189
      9 C6          2.4542    1.4941   -0.0035 C.3       1 <0>         0.2175
     10 C7          2.9090    1.3257   -1.3933 C.1       1 <0>        -0.0622
     11 C8          3.2717    1.1914   -2.5018 C.1       1 <0>        -0.2710
     12 C9          3.7265    1.0230   -3.8916 C.3       1 <0>         0.1445
     13 C10         5.2364   -0.6941   -3.0551 C.3       1 <0>        -0.0050
     14 C11         6.5346   -1.3551   -3.5828 C.3       1 <0>        -0.1474
     15 C12         6.4634   -1.0904   -5.1043 C.3       1 <0>        -0.1464
     16 C13         5.5178    0.1151   -5.2590 C.3       1 <0>        -0.0101
     17 H2          0.2301    3.4488   -2.0965 H         1 <0>         0.0597
     18 H3          0.5643    5.0492   -1.3927 H         1 <0>         0.0780
     19 H4          1.9035    3.9227   -1.7179 H         1 <0>         0.0545
     20 H5         -0.8480    3.5940    1.5248 H         1 <0>         0.0901
     21 H6         -1.3101    4.2430   -0.0838 H         1 <0>         0.0977
     22 H7         -1.7097    2.0955   -0.9763 H         1 <0>         0.1080
     23 H8         -1.9834    1.6721    0.7429 H         1 <0>         0.1097
     24 H9          3.1015    2.2073    0.5067 H         1 <0>         0.1187
     25 H10         2.4948    0.5340    0.5109 H         1 <0>         0.1202
     26 H11         3.0792    0.3097   -4.4018 H         1 <0>         0.1441
     27 H12         3.6859    1.9831   -4.4060 H         1 <0>         0.1484
     28 H13         5.3416   -0.4248   -2.0041 H         1 <0>         0.1336
     29 H14         4.3818   -1.3550   -3.2002 H         1 <0>         0.1334
     30 H15         6.5336   -2.4255   -3.3770 H         1 <0>         0.1162
     31 H16         7.4155   -0.8812   -3.1497 H         1 <0>         0.0983
     32 H17         6.0560   -1.9596   -5.6208 H         1 <0>         0.1042
     33 H18         7.4520   -0.8484   -5.4944 H         1 <0>         0.1060
     34 H19         4.6417   -0.1723   -5.8404 H         1 <0>         0.1330
     35 H20         6.0369    0.9371   -5.7518 H         1 <0>         0.1362
     36 N2          5.1271    0.5033   -3.9030 N.4       1 <0>        -0.3962
     37 H21         5.7598    1.2335   -3.5555 H         1 <0>         0.4318
@<TRIPOS>BOND
     1    1    2 1
     2    1   17 1
     3    1   18 1
     4    1   19 1
     5    2    3 1
     6    2    8 1
     7    2    4 1
     8    4    5 1
     9    4   20 1
    10    4   21 1
    11    5    6 1
    12    5   22 1
    13    5   23 1
    14    6    7 2
    15    6    8 am
    16    8    9 1
    17    9   10 1
    18    9   24 1
    19    9   25 1
    20   10   11 3
    21   11   12 1
    22   12   26 1
    23   12   27 1
    24   12   36 1
    25   13   14 1
    26   13   28 1
    27   13   29 1
    28   13   36 1
    29   14   15 1
    30   14   30 1
    31   14   31 1
    32   15   16 1
    33   15   32 1
    34   15   33 1
    35   16   34 1
    36   16   35 1
    37   16   36 1
    38   36   37 1
@<TRIPOS>MOLECULE
ZINC40423557
   63    67     0     0     0
SMALL
USER_CHARGES

@<TRIPOS>ATOM
      1 C1         -0.0184    1.5028    0.0103 C.3       1 <0>        -0.1268
      2 C2          0.0021   -0.0041    0.0020 C.ar      1 <0>        -0.0625
      3 C3          0.0057   -0.6888   -1.1991 C.ar      1 <0>        -0.1137
      4 C4          0.0245   -2.0707   -1.2067 C.ar      1 <0>        -0.0800
      5 C5          0.0400   -2.7685   -0.0132 C.ar      1 <0>        -0.1189
      6 C6          0.0373   -2.0840    1.1875 C.ar      1 <0>        -0.0887
      7 C7          0.0229   -0.7015    1.1951 C.ar      1 <0>        -0.1622
      8 C8          0.0252    0.0449    2.5043 C.3       1 <0>         0.0434
      9 N1         -1.3417    0.4779    2.8235 N.4       1 <0>        -0.3840
     10 C9         -2.1887   -0.7011    3.0406 C.3       1 <0>        -0.0058
     11 C10        -3.6313   -0.2580    3.2937 C.3       1 <0>        -0.1443
     12 C11        -3.6739    0.6386    4.5345 C.3       1 <0>         0.0742
     13 C12        -2.7299    1.8263    4.3266 C.3       1 <0>        -0.1443
     14 C13        -1.3207    1.3059    4.0353 C.3       1 <0>        -0.0049
     15 N2         -5.0433    1.1294    4.7390 N.3       1 <0>        -0.5293
     16 C14        -5.9936    0.0139    4.8331 C.3       1 <0>         0.0579
     17 C15        -7.4209    0.5621    4.8993 C.3       1 <0>        -0.1344
     18 C16        -7.5553    1.4759    6.1206 C.3       1 <0>         0.1676
     19 C17        -6.5221    2.6017    6.0220 C.3       1 <0>        -0.1348
     20 C18        -5.1209    1.9943    5.9232 C.3       1 <0>         0.0588
     21 N3         -8.9027    2.0498    6.1567 N.am      1 <0>        -0.5359
     22 C19        -9.8278    1.8937    7.1863 C.ar      1 <0>         0.0867
     23 C20        -9.7992    1.2183    8.3969 C.ar      1 <0>        -0.1069
     24 C21       -10.9020    1.2494    9.2276 C.ar      1 <0>        -0.1058
     25 C22       -12.0359    1.9516    8.8565 C.ar      1 <0>        -0.1060
     26 C23       -12.0740    2.6270    7.6525 C.ar      1 <0>        -0.1022
     27 C24       -10.9713    2.6023    6.8122 C.ar      1 <0>         0.0883
     28 N4        -10.7055    3.1670    5.5669 N.am      1 <0>        -0.6441
     29 H1        -11.3154    3.7178    5.0516 H         1 <0>         0.4361
     30 C25        -9.4558    2.8227    5.2031 C.2       1 <0>         0.6837
     31 O1         -8.9102    3.1566    4.1679 O.2       1 <0>        -0.5515
     32 H2          1.0042    1.8801    0.0026 H         1 <0>         0.0896
     33 H3         -0.5455    1.8639   -0.8728 H         1 <0>         0.0862
     34 H4         -0.5286    1.8543    0.9071 H         1 <0>         0.0473
     35 H5         -0.0064   -0.1437   -2.1314 H         1 <0>         0.1358
     36 H6          0.0266   -2.6056   -2.1449 H         1 <0>         0.1361
     37 H7          0.0540   -3.8484   -0.0191 H         1 <0>         0.1358
     38 H8          0.0491   -2.6290    2.1199 H         1 <0>         0.1314
     39 H9          0.3931   -0.6092    3.2948 H         1 <0>         0.1356
     40 H10         0.6733    0.9176    2.4238 H         1 <0>         0.1365
     41 H11        -2.1548   -1.3398    2.1580 H         1 <0>         0.1328
     42 H12        -1.8229   -1.2566    3.9042 H         1 <0>         0.1278
     43 H13        -3.9981    0.2975    2.4305 H         1 <0>         0.0987
     44 H14        -4.2581   -1.1347    3.4564 H         1 <0>         0.1128
     45 H15        -3.3556    0.0684    5.4072 H         1 <0>         0.0598
     46 H16        -3.0780    2.4250    3.4849 H         1 <0>         0.0995
     47 H17        -2.7124    2.4394    5.2277 H         1 <0>         0.1136
     48 H18        -0.9734    0.7077    4.8777 H         1 <0>         0.1296
     49 H19        -0.6459    2.1491    3.8870 H         1 <0>         0.1335
     50 H20        -5.8906   -0.6259    3.9566 H         1 <0>         0.0864
     51 H21        -5.7852   -0.5659    5.7322 H         1 <0>         0.0420
     52 H22        -7.6347    1.1306    3.9942 H         1 <0>         0.0950
     53 H23        -8.1250   -0.2655    4.9848 H         1 <0>         0.0766
     54 H24        -7.3796    0.8988    7.0284 H         1 <0>         0.0948
     55 H25        -6.7218    3.2022    5.1345 H         1 <0>         0.0953
     56 H26        -6.5841    3.2313    6.9096 H         1 <0>         0.0766
     57 H27        -4.9166    1.4052    6.8173 H         1 <0>         0.0420
     58 H28        -4.3840    2.7930    5.8385 H         1 <0>         0.0858
     59 H29        -8.9166    0.6689    8.6894 H         1 <0>         0.1269
     60 H30       -10.8798    0.7234   10.1706 H         1 <0>         0.1354
     61 H31       -12.8946    1.9711    9.5113 H         1 <0>         0.1367
     62 H32       -12.9606    3.1731    7.3661 H         1 <0>         0.1338
     63 H33        -1.7107    1.0176    2.0550 H         1 <0>         0.4209
@<TRIPOS>BOND
     1    1    2 1
     2    1   32 1
     3    1   33 1
     4    1   34 1
     5    2    7 ar
     6    2    3 ar
     7    3    4 ar
     8    3   35 1
     9    4    5 ar
    10    4   36 1
    11    5    6 ar
    12    5   37 1
    13    6    7 ar
    14    6   38 1
    15    7    8 1
    16    8    9 1
    17    8   39 1
    18    8   40 1
    19    9   14 1
    20    9   10 1
    21    9   63 1
    22   10   11 1
    23   10   41 1
    24   10   42 1
    25   11   12 1
    26   11   43 1
    27   11   44 1
    28   12   13 1
    29   12   15 1
    30   12   45 1
    31   13   14 1
    32   13   46 1
    33   13   47 1
    34   14   48 1
    35   14   49 1
    36   15   20 1
    37   15   16 1
    38   16   17 1
    39   16   50 1
    40   16   51 1
    41   17   18 1
    42   17   52 1
    43   17   53 1
    44   18   19 1
    45   18   21 1
    46   18   54 1
    47   19   20 1
    48   19   55 1
    49   19   56 1
    50   20   57 1
    51   20   58 1
    52   21   30 am
    53   21   22 1
    54   22   27 ar
    55   22   23 ar
    56   23   24 ar
    57   23   59 1
    58   24   25 ar
    59   24   60 1
    60   25   26 ar
    61   25   61 1
    62   26   27 ar
    63   26   62 1
    64   27   28 1
    65   28   29 1
    66   28   30 am
    67   30   31 2
@<TRIPOS>MOLECULE
ZINC00537822
   50    52     0     0     0
SMALL
USER_CHARGES

@<TRIPOS>ATOM
      1 C1         -0.0169    1.3952    0.0097 C.ar      1 <0>        -0.0260
      2 C2          1.1683    2.0970    0.0022 C.ar      1 <0>        -0.1650
      3 C3          2.3789    1.4198   -0.0130 C.ar      1 <0>         0.1439
      4 C4          2.4047    0.0329   -0.0212 C.ar      1 <0>        -0.1670
      5 C5          1.2267   -0.6810   -0.0142 C.ar      1 <0>        -0.0432
      6 C6          0.0021   -0.0041    0.0020 C.ar      1 <0>        -0.1967
      7 C7         -1.2591   -0.7596    0.0105 C.2       1 <0>         0.4038
      8 O1         -2.3189   -0.1702    0.0242 O.2       1 <0>        -0.4483
      9 C8         -1.2348   -2.2664    0.0022 C.3       1 <0>        -0.1653
     10 C9         -2.6689   -2.7996    0.0135 C.3       1 <0>        -0.1429
     11 C10        -2.6443   -4.3293    0.0051 C.3       1 <0>        -0.0092
     12 N1         -4.0211   -4.8413    0.0160 N.4       1 <0>        -0.3830
     13 C11        -4.6726   -4.4620    1.2755 C.3       1 <0>        -0.0093
     14 C12        -6.1318   -4.9225    1.2582 C.3       1 <0>        -0.1330
     15 C13        -6.1791   -6.4445    1.0954 C.3       1 <0>         0.1746
     16 C14        -5.4322   -6.8346   -0.1834 C.3       1 <0>        -0.1706
     17 C15        -3.9990   -6.3033   -0.1127 C.3       1 <0>        -0.0017
     18 C16        -7.6135   -6.8966    0.9991 C.ar      1 <0>        -0.1262
     19 C17        -8.5661   -6.0599    0.4482 C.ar      1 <0>        -0.1006
     20 C18        -9.8818   -6.4740    0.3596 C.ar      1 <0>        -0.1039
     21 C19       -10.2453   -7.7262    0.8224 C.ar      1 <0>        -0.0247
     22 C20        -9.2914   -8.5631    1.3735 C.ar      1 <0>        -0.1016
     23 C21        -7.9750   -8.1501    1.4564 C.ar      1 <0>        -0.0934
     24 Cl1       -11.8977   -8.2468    0.7119 Cl        1 <0>        -0.0500
     25 O2         -5.5554   -7.0652    2.2213 O.3       1 <0>        -0.5474
     26 F1          3.5378    2.1141   -0.0204 F         1 <0>        -0.1258
     27 H1         -0.9587    1.9236    0.0260 H         1 <0>         0.1459
     28 H2          1.1551    3.1769    0.0077 H         1 <0>         0.1477
     29 H3          3.3506   -0.4883   -0.0334 H         1 <0>         0.1469
     30 H4          1.2482   -1.7608   -0.0213 H         1 <0>         0.1412
     31 H5         -0.7241   -2.6166   -0.8948 H         1 <0>         0.1127
     32 H6         -0.7064   -2.6261    0.8850 H         1 <0>         0.1127
     33 H7         -3.1796   -2.4493    0.9105 H         1 <0>         0.0952
     34 H8         -3.1973   -2.4398   -0.8693 H         1 <0>         0.0947
     35 H9         -2.1335   -4.6796   -0.8919 H         1 <0>         0.1333
     36 H10        -2.1158   -4.6891    0.8880 H         1 <0>         0.1327
     37 H11        -4.1530   -4.9339    2.1093 H         1 <0>         0.1388
     38 H12        -4.6353   -3.3788    1.3915 H         1 <0>         0.1356
     39 H13        -6.6132   -4.6415    2.1949 H         1 <0>         0.1238
     40 H14        -6.6524   -4.4509    0.4248 H         1 <0>         0.1045
     41 H15        -5.4137   -7.9204   -0.2771 H         1 <0>         0.1175
     42 H16        -5.9384   -6.4027   -1.0467 H         1 <0>         0.1009
     43 H17        -3.4644   -6.5795   -1.0215 H         1 <0>         0.1329
     44 H18        -3.4937   -6.7360    0.7507 H         1 <0>         0.1354
     45 H19        -8.2824   -5.0823    0.0874 H         1 <0>         0.1334
     46 H20       -10.6260   -5.8201   -0.0704 H         1 <0>         0.1408
     47 H21        -9.5746   -9.5405    1.7352 H         1 <0>         0.1414
     48 H22        -7.2294   -8.8051    1.8823 H         1 <0>         0.1323
     49 H23        -5.5495   -8.0314    2.1846 H         1 <0>         0.3907
     50 H24        -4.5327   -4.4442   -0.7578 H         1 <0>         0.4215
@<TRIPOS>BOND
     1    1    6 ar
     2    1    2 ar
     3    1   27 1
     4    2    3 ar
     5    2   28 1
     6    3    4 ar
     7    3   26 1
     8    4    5 ar
     9    4   29 1
    10    5    6 ar
    11    5   30 1
    12    6    7 1
    13    7    8 2
    14    7    9 1
    15    9   10 1
    16    9   31 1
    17    9   32 1
    18   10   11 1
    19   10   33 1
    20   10   34 1
    21   11   12 1
    22   11   35 1
    23   11   36 1
    24   12   17 1
    25   12   13 1
    26   12   50 1
    27   13   14 1
    28   13   37 1
    29   13   38 1
    30   14   15 1
    31   14   39 1
    32   14   40 1
    33   15   16 1
    34   15   18 1
    35   15   25 1
    36   16   17 1
    37   16   41 1
    38   16   42 1
    39   17   43 1
    40   17   44 1
    41   18   23 ar
    42   18   19 ar
    43   19   20 ar
    44   19   45 1
    45   20   21 ar
    46   20   46 1
    47   21   22 ar
    48   21   24 1
    49   22   23 ar
    50   22   47 1
    51   23   48 1
    52   25   49 1
@<TRIPOS>MOLECULE
ZINC30691727
   63    67     0     0     0
SMALL
USER_CHARGES
[(3R)-1-(3-phenoxypropyl)quinuclidin-1-ium-3-yl] 2-hydroxy-2,2-bis(2-thienyl)acetate
@<TRIPOS>ATOM
      1 C1         -2.9656    6.5546   -8.4273 C.ar      1 <0>        -0.1485
      2 C2         -1.6613    6.8167   -8.0507 C.ar      1 <0>        -0.0773
      3 C3         -1.1638    6.2966   -6.8716 C.ar      1 <0>        -0.1468
      4 C4         -1.9741    5.5107   -6.0651 C.ar      1 <0>         0.1194
      5 C5         -3.2806    5.2444   -6.4480 C.ar      1 <0>        -0.2082
      6 C6         -3.7753    5.7719   -7.6251 C.ar      1 <0>        -0.0796
      7 O1         -1.4870    4.9979   -4.9046 O.3       1 <0>        -0.3132
      8 C7         -2.3777    4.1977   -4.1246 C.3       1 <0>         0.0625
      9 C8         -1.6572    3.7128   -2.8650 C.3       1 <0>        -0.1548
     10 C9         -2.6108    2.8561   -2.0298 C.3       1 <0>        -0.0106
     11 N1         -1.9190    2.3905   -0.8204 N.4       1 <0>        -0.2517
     12 C10        -0.7581    1.5954   -1.2275 C.3       1 <0>        -0.0154
     13 C11        -0.0127    1.0858    0.0080 C.3       1 <0>        -0.1366
     14 C12        -0.7362    1.5833    1.2663 C.3       1 <0>        -0.0941
     15 C13        -2.1794    1.0633    1.2321 C.3       1 <0>        -0.1359
     16 C14        -2.8579    1.5739   -0.0476 C.3       1 <0>        -0.0114
     17 C15        -0.7766    3.1167    1.2267 C.3       1 <0>         0.0720
     18 H1         -1.2660    3.5285    2.1216 H         1 <0>         0.1241
     19 C16        -1.4969    3.5615   -0.0482 C.3       1 <0>        -0.0312
     20 O2          0.5791    3.6367    1.2262 O.3       1 <0>        -0.3249
     21 C17         0.7695    4.8425    1.7845 C.2       1 <0>         0.4941
     22 O3         -0.1657    5.4435    2.2578 O.2       1 <0>        -0.4660
     23 C18         2.1496    5.4466    1.8208 C.3       1 <0>         0.3564
     24 C19         2.4178    6.1650    0.5235 C.2       1 <0>        -0.2327
     25 C20         2.9730    5.6881   -0.6174 C.2       1 <0>        -0.1007
     26 C21         3.1197    6.5380   -1.6976 C.2       1 <0>        -0.1730
     27 C22         2.7138    7.8260   -1.5805 C.2       1 <0>        -0.1486
     28 S1          2.0940    7.8671    0.0932 S.3       1 <0>         0.0902
     29 C23         2.2403    6.4239    2.9644 C.2       1 <0>        -0.2201
     30 C24         2.6085    6.2019    4.2498 C.2       1 <0>        -0.1026
     31 C25         2.6216    7.2625    5.1361 C.2       1 <0>        -0.1696
     32 C26         2.2555    8.4913    4.6961 C.2       1 <0>        -0.1486
     33 S2          1.8829    8.1730    2.9794 S.3       1 <0>         0.0881
     34 O4          3.1181    4.4113    2.0011 O.3       1 <0>        -0.5486
     35 H2         -3.3527    6.9621   -9.3495 H         1 <0>         0.1291
     36 H3         -1.0311    7.4290   -8.6787 H         1 <0>         0.1342
     37 H4         -0.1449    6.5014   -6.5780 H         1 <0>         0.1314
     38 H5         -3.9120    4.6291   -5.8241 H         1 <0>         0.1246
     39 H6         -4.7940    5.5691   -7.9211 H         1 <0>         0.1283
     40 H7         -3.2539    4.7978   -3.8378 H         1 <0>         0.0727
     41 H8         -2.7052    3.3303   -4.7166 H         1 <0>         0.0736
     42 H9         -0.7810    3.1127   -3.1518 H         1 <0>         0.1021
     43 H10        -1.3297    4.5802   -2.2730 H         1 <0>         0.0980
     44 H11        -3.4869    3.4562   -1.7430 H         1 <0>         0.1357
     45 H12        -2.9383    1.9887   -2.6217 H         1 <0>         0.1389
     46 H13        -1.0940    0.7365   -1.8271 H         1 <0>         0.1339
     47 H14        -0.0792    2.2186   -1.8280 H         1 <0>         0.1328
     48 H15         0.0032   -0.0140   -0.0011 H         1 <0>         0.1061
     49 H16         1.0189    1.4675   -0.0028 H         1 <0>         0.1109
     50 H17        -0.2195    1.2326    2.1718 H         1 <0>         0.1296
     51 H18        -2.1730   -0.0367    1.2377 H         1 <0>         0.1137
     52 H19        -2.7228    1.4313    2.1149 H         1 <0>         0.1058
     53 H20        -3.7339    2.1810    0.2246 H         1 <0>         0.1328
     54 H21        -3.1813    0.7146   -0.6535 H         1 <0>         0.1361
     55 H22        -0.8135    4.1738   -0.6548 H         1 <0>         0.1410
     56 H23        -2.3796    4.1584    0.2247 H         1 <0>         0.1437
     57 H24         3.2934    4.6588   -0.6824 H         1 <0>         0.1417
     58 H25         3.5554    6.1824   -2.6196 H         1 <0>         0.1416
     59 H26         2.7545    8.6209   -2.3104 H         1 <0>         0.1926
     60 H27         2.8903    5.2116    4.5760 H         1 <0>         0.1392
     61 H28         2.9147    7.1136    6.1648 H         1 <0>         0.1424
     62 H29         2.2032    9.4215    5.2423 H         1 <0>         0.1931
     63 H30         4.1880    4.6618    2.0523 H         1 <0>         0.4377
@<TRIPOS>BOND
     1    1    6 ar
     2    1    2 ar
     3    1   35 1
     4    2    3 ar
     5    2   36 1
     6    3    4 ar
     7    3   37 1
     8    4    5 ar
     9    4    7 1
    10    5    6 ar
    11    5   38 1
    12    6   39 1
    13    7    8 1
    14    8    9 1
    15    8   40 1
    16    8   41 1
    17    9   10 1
    18    9   42 1
    19    9   43 1
    20   10   11 1
    21   10   44 1
    22   10   45 1
    23   11   16 1
    24   11   19 1
    25   11   12 1
    26   12   13 1
    27   12   46 1
    28   12   47 1
    29   13   14 1
    30   13   48 1
    31   13   49 1
    32   14   15 1
    33   14   17 1
    34   14   50 1
    35   15   16 1
    36   15   51 1
    37   15   52 1
    38   16   53 1
    39   16   54 1
    40   17   18 1
    41   17   19 1
    42   17   20 1
    43   19   55 1
    44   19   56 1
    45   20   21 1
    46   21   22 2
    47   21   23 1
    48   23   24 1
    49   23   29 1
    50   23   34 1
    51   24   28 1
    52   24   25 2
    53   25   26 1
    54   25   57 1
    55   26   27 2
    56   26   58 1
    57   27   28 1
    58   27   59 1
    59   29   33 1
    60   29   30 2
    61   30   31 1
    62   30   60 1
    63   31   32 2
    64   31   61 1
    65   32   33 1
    66   32   62 1
    67   34   63 1
@<TRIPOS>MOLECULE
ZINC26153621
   53    57     0     0     0
SMALL
USER_CHARGES

@<TRIPOS>ATOM
      1 C1         -0.0187    1.5258    0.0104 C.3       1 <0>        -0.1522
      2 C2          0.0021   -0.0041    0.0020 C.3       1 <0>         0.0569
      3 O1          0.6932   -0.4774    1.1597 O.3       1 <0>        -0.3463
      4 C3          0.8011   -1.8137    1.3045 C.2       1 <0>         0.5494
      5 O2          0.3211   -2.5565    0.4699 O.2       1 <0>        -0.4936
      6 C4          1.4977   -2.3715    2.4691 C.2       1 <0>        -0.2203
      7 C5          0.9425   -2.7049    3.6754 C.2       1 <0>         0.1513
      8 N1          1.9012   -3.1911    4.5055 N.pl3     1 <0>        -0.5673
      9 H1          1.7463   -3.4929    5.4142 H         1 <0>         0.4236
     10 C6          3.1165   -3.1953    3.8769 C.ar      1 <0>         0.0664
     11 C7          2.9221   -2.6879    2.5700 C.ar      1 <0>        -0.0283
     12 C8          3.9801   -2.5680    1.6737 C.ar      1 <0>        -0.1265
     13 C9          5.2320   -2.9740    2.1065 C.ar      1 <0>         0.1259
     14 C10         5.4198   -3.4777    3.3914 C.ar      1 <0>        -0.1221
     15 C11         4.3828   -3.5930    4.2994 C.ar      1 <0>        -0.0822
     16 O3          6.3035   -2.8858    1.2703 O.3       1 <0>        -0.2996
     17 C12         6.1708   -2.0298    0.1322 C.3       1 <0>         0.3066
     18 H2          6.1414   -0.9914    0.4625 H         1 <0>         0.0580
     19 C13         7.3470   -2.2283   -0.7857 C.ar      1 <0>        -0.1242
     20 C14         8.6139   -2.3105   -0.2239 C.ar      1 <0>        -0.0453
     21 C15         9.7236   -2.4882   -1.0229 C.ar      1 <0>        -0.2137
     22 C16         9.5749   -2.5853   -2.3991 C.ar      1 <0>         0.1417
     23 C17         8.3106   -2.5051   -2.9595 C.ar      1 <0>        -0.1583
     24 C18         7.1979   -2.3285   -2.1527 C.ar      1 <0>        -0.0124
     25 C19         5.8414   -2.2563   -2.8057 C.3       1 <0>        -0.0805
     26 C20         4.8319   -1.6383   -1.8386 C.3       1 <0>         0.0556
     27 N2          4.9171   -2.3561   -0.5597 N.3       1 <0>        -0.5406
     28 C21         3.7670   -2.0153    0.2932 C.3       1 <0>         0.0958
     29 O4         10.6641   -2.7578   -3.1932 O.3       1 <0>        -0.3159
     30 C22        11.9351   -2.8309   -2.5442 C.3       1 <0>         0.0260
     31 C23        -0.5145   -2.5541    4.0295 C.3       1 <0>        -0.1059
     32 H3          1.0039    1.9031    0.0027 H         1 <0>         0.0661
     33 H4         -0.5459    1.8868   -0.8726 H         1 <0>         0.0807
     34 H5         -0.5289    1.8773    0.9072 H         1 <0>         0.0672
     35 H6         -1.0205   -0.3814    0.0098 H         1 <0>         0.0691
     36 H7          0.5123   -0.3556   -0.8948 H         1 <0>         0.0674
     37 H8          6.4114   -3.7829    3.6914 H         1 <0>         0.1367
     38 H9          4.5461   -3.9864    5.2919 H         1 <0>         0.1418
     39 H10         8.7312   -2.2344    0.8470 H         1 <0>         0.1309
     40 H11        10.7060   -2.5513   -0.5788 H         1 <0>         0.1318
     41 H12         8.1916   -2.5801   -4.0303 H         1 <0>         0.1348
     42 H13         5.9043   -1.6428   -3.7045 H         1 <0>         0.0893
     43 H14         5.5157   -3.2607   -3.0763 H         1 <0>         0.0942
     44 H15         5.0673   -0.5847   -1.6883 H         1 <0>         0.0482
     45 H16         3.8264   -1.7357   -2.2480 H         1 <0>         0.0915
     46 H17         2.8597   -2.4435   -0.1329 H         1 <0>         0.0972
     47 H18         3.6648   -0.9315    0.3482 H         1 <0>         0.0559
     48 H19        12.7170   -2.9691   -3.2909 H         1 <0>         0.1018
     49 H20        12.1164   -1.9070   -1.9950 H         1 <0>         0.0568
     50 H21        11.9414   -3.6725   -1.8515 H         1 <0>         0.0572
     51 H22        -1.0484   -3.4678    3.7682 H         1 <0>         0.0903
     52 H23        -0.6112   -2.3701    5.0995 H         1 <0>         0.0818
     53 H24        -0.9378   -1.7153    3.4768 H         1 <0>         0.0874
@<TRIPOS>BOND
     1    1    2 1
     2    1   32 1
     3    1   33 1
     4    1   34 1
     5    2    3 1
     6    2   35 1
     7    2   36 1
     8    3    4 1
     9    4    5 2
    10    4    6 1
    11    6   11 1
    12    6    7 2
    13    7    8 1
    14    7   31 1
    15    8    9 1
    16    8   10 1
    17   10   15 ar
    18   10   11 ar
    19   11   12 ar
    20   12   28 1
    21   12   13 ar
    22   13   14 ar
    23   13   16 1
    24   14   15 ar
    25   14   37 1
    26   15   38 1
    27   16   17 1
    28   17   18 1
    29   17   27 1
    30   17   19 1
    31   19   24 ar
    32   19   20 ar
    33   20   21 ar
    34   20   39 1
    35   21   22 ar
    36   21   40 1
    37   22   23 ar
    38   22   29 1
    39   23   24 ar
    40   23   41 1
    41   24   25 1
    42   25   26 1
    43   25   42 1
    44   25   43 1
    45   26   27 1
    46   26   44 1
    47   26   45 1
    48   27   28 1
    49   28   46 1
    50   28   47 1
    51   29   30 1
    52   30   48 1
    53   30   49 1
    54   30   50 1
    55   31   51 1
    56   31   52 1
    57   31   53 1
@<TRIPOS>MOLECULE
ZINC26153628
   53    57     0     0     0
SMALL
USER_CHARGES
ethyl methoxy-methyl-BLAHcarboxylate
@<TRIPOS>ATOM
      1 C1          7.9821    1.9533   -1.6207 C.3       1 <0>        -0.1552
      2 C2          7.6855    0.8685   -0.5834 C.3       1 <0>         0.0574
      3 O1          7.0721   -0.2729   -1.2386 O.3       1 <0>        -0.3505
      4 C3          6.7459   -1.3238   -0.4592 C.2       1 <0>         0.5509
      5 O2          6.9683   -1.2867    0.7357 O.2       1 <0>        -0.4995
      6 C4          6.1226   -2.5119   -1.0528 C.2       1 <0>        -0.2273
      7 C5          6.7653   -3.6109   -1.5564 C.2       1 <0>         0.1456
      8 N1          5.8547   -4.5055   -2.0199 N.pl3     1 <0>        -0.5790
      9 H1          6.1919   -5.4543   -2.4628 H         1 <0>         0.4500
     10 C6          4.5852   -4.0286   -1.8384 C.ar      1 <0>         0.0774
     11 C7          4.6911   -2.7576   -1.2248 C.ar      1 <0>        -0.0297
     12 C8          3.5616   -2.0092   -0.9074 C.ar      1 <0>        -0.1274
     13 C9          2.3264   -2.5542   -1.2186 C.ar      1 <0>         0.1252
     14 C10         2.2249   -3.8056   -1.8220 C.ar      1 <0>        -0.1239
     15 C11         3.3360   -4.5645   -2.1424 C.ar      1 <0>        -0.0831
     16 O3          1.1895   -1.8579   -0.9466 O.3       1 <0>        -0.3019
     17 C12         1.2893   -0.7844   -0.0068 C.3       1 <0>         0.3064
     18 H2          1.4853   -1.2087    0.9890 H         1 <0>         0.0573
     19 C13         0.0021   -0.0041    0.0020 C.ar      1 <0>        -0.1223
     20 C14        -1.1943   -0.7084    0.0041 C.ar      1 <0>        -0.0450
     21 C15        -2.4001   -0.0395    0.0162 C.ar      1 <0>        -0.2137
     22 C16        -2.4200    1.3478    0.0267 C.ar      1 <0>         0.1417
     23 C17        -1.2262    2.0506    0.0189 C.ar      1 <0>        -0.1583
     24 C18        -0.0166    1.3745    0.0096 C.ar      1 <0>        -0.0122
     25 C19         1.2568    2.1810    0.0018 C.3       1 <0>        -0.0815
     26 C20         2.4333    1.3014    0.4082 C.3       1 <0>         0.0548
     27 N2          2.4160    0.0723   -0.3984 N.3       1 <0>        -0.5414
     28 C21         3.6826   -0.6629   -0.2520 C.3       1 <0>         0.0972
     29 O4         -3.6045    2.0138    0.0394 O.3       1 <0>        -0.3156
     30 C22        -4.7940    1.2219    0.0414 C.3       1 <0>         0.0226
     31 C23         8.2600   -3.8000   -1.5904 C.3       1 <0>        -0.1088
     32 H3          8.4468    2.8180   -1.1243 H         1 <0>         0.0816
     33 H4          7.0439    2.2671   -2.1016 H         1 <0>         0.0685
     34 H5          8.6689    1.5547   -2.3819 H         1 <0>         0.0677
     35 H6          8.6237    0.5547   -0.1025 H         1 <0>         0.0717
     36 H7          6.9987    1.2670    0.1779 H         1 <0>         0.0701
     37 H8          1.2440   -4.1976   -2.0468 H         1 <0>         0.1356
     38 H9          3.2389   -5.5336   -2.6091 H         1 <0>         0.1407
     39 H10        -1.1805   -1.7883   -0.0042 H         1 <0>         0.1309
     40 H11        -3.3268   -0.5942    0.0179 H         1 <0>         0.1318
     41 H12        -1.2382    3.1305    0.0270 H         1 <0>         0.1348
     42 H13         1.4335    2.5775   -1.0089 H         1 <0>         0.0948
     43 H14         1.1665    3.0157    0.7125 H         1 <0>         0.0907
     44 H15         3.3741    1.8445    0.2351 H         1 <0>         0.0913
     45 H16         2.3486    1.0454    1.4746 H         1 <0>         0.0472
     46 H17         3.9079   -0.7943    0.8166 H         1 <0>         0.0560
     47 H18         4.4933   -0.0937   -0.7303 H         1 <0>         0.0963
     48 H19        -5.6739    1.8820    0.0521 H         1 <0>         0.1033
     49 H20        -4.8059    0.5805    0.9350 H         1 <0>         0.0577
     50 H21        -4.8178    0.5937   -0.8613 H         1 <0>         0.0581
     51 H22         8.4963   -4.7718   -2.0484 H         1 <0>         0.0795
     52 H23         8.6566   -3.7718   -0.5648 H         1 <0>         0.0901
     53 H24         8.7181   -2.9944   -2.1829 H         1 <0>         0.0910
@<TRIPOS>BOND
     1    1    2 1
     2    1   32 1
     3    1   33 1
     4    1   34 1
     5    2    3 1
     6    2   35 1
     7    2   36 1
     8    3    4 1
     9    4    5 2
    10    4    6 1
    11    6   11 1
    12    6    7 2
    13    7    8 1
    14    7   31 1
    15    8    9 1
    16    8   10 1
    17   10   15 ar
    18   10   11 ar
    19   11   12 ar
    20   12   28 1
    21   12   13 ar
    22   13   14 ar
    23   13   16 1
    24   14   15 ar
    25   14   37 1
    26   15   38 1
    27   16   17 1
    28   17   18 1
    29   17   27 1
    30   17   19 1
    31   19   24 ar
    32   19   20 ar
    33   20   21 ar
    34   20   39 1
    35   21   22 ar
    36   21   40 1
    37   22   23 ar
    38   22   29 1
    39   23   24 ar
    40   23   41 1
    41   24   25 1
    42   25   26 1
    43   25   42 1
    44   25   43 1
    45   26   27 1
    46   26   44 1
    47   26   45 1
    48   27   28 1
    49   28   46 1
    50   28   47 1
    51   29   30 1
    52   30   48 1
    53   30   49 1
    54   30   50 1
    55   31   51 1
    56   31   52 1
    57   31   53 1
@<TRIPOS>MOLECULE
ZINC52957434
   42    45     0     0     0
SMALL
USER_CHARGES

@<TRIPOS>ATOM
      1 C1         -0.0944    1.5263   -0.1201 C.3       1 <0>        -0.0688
      2 C2         -0.0505    0.0202   -0.0907 C.2       1 <0>        -0.1748
      3 C3         -1.0807   -0.8454   -0.0644 C.2       1 <0>        -0.1163
      4 C4         -0.7418   -2.2563   -0.0406 C.2       1 <0>        -0.2133
      5 C5          0.6238   -2.5293   -0.0718 C.2       1 <0>         0.0879
      6 S1          1.3770   -1.0447   -0.0901 S.3       1 <0>         0.1606
      7 N1          1.1872   -3.7946   -0.1169 N.pl3     1 <0>        -0.6680
      8 C6          0.7759   -4.6303   -1.1815 C.ar      1 <0>         0.0944
      9 C7          1.7302   -5.1445   -2.0382 C.ar      1 <0>        -0.1117
     10 C8          1.3513   -5.9441   -3.1053 C.ar      1 <0>        -0.1309
     11 C9          0.0149   -6.2253   -3.3132 C.ar      1 <0>        -0.1055
     12 C10        -0.9459   -5.7252   -2.4574 C.ar      1 <0>        -0.1158
     13 C11        -0.5794   -4.9262   -1.3671 C.ar      1 <0>         0.1690
     14 N2         -1.5605   -4.5108   -0.5207 N.2       1 <0>        -0.6205
     15 C12        -1.7264   -3.3603    0.0396 C.2       1 <0>         0.5341
     16 N3         -2.8842   -3.1467    0.7528 N.pl3     1 <0>        -0.5932
     17 C13        -3.9636   -4.1457    0.7567 C.3       1 <0>         0.1269
     18 C14        -4.3489   -4.4403    2.2103 C.3       1 <0>         0.0398
     19 N4         -4.6668   -3.1798    2.8945 N.3       1 <0>        -0.5426
     20 C15        -3.4950   -2.2959    2.9543 C.3       1 <0>         0.0389
     21 C16        -3.0721   -1.9161    1.5361 C.3       1 <0>         0.1148
     22 C17        -5.2057   -3.4313    4.2377 C.3       1 <0>         0.0244
     23 H1          0.9222    1.9190   -0.1423 H         1 <0>         0.0737
     24 H2         -0.6310    1.8568   -1.0094 H         1 <0>         0.0816
     25 H3         -0.6060    1.8924    0.7700 H         1 <0>         0.0802
     26 H4         -2.1065   -0.5075   -0.0608 H         1 <0>         0.1456
     27 H5          1.8293   -4.0917    0.5466 H         1 <0>         0.4180
     28 H6          2.7746   -4.9225   -1.8762 H         1 <0>         0.1231
     29 H7          2.0991   -6.3460   -3.7728 H         1 <0>         0.1261
     30 H8         -0.2801   -6.8405   -4.1504 H         1 <0>         0.1258
     31 H9         -1.9878   -5.9514   -2.6300 H         1 <0>         0.1270
     32 H10        -4.8280   -3.7529    0.2212 H         1 <0>         0.0711
     33 H11        -3.6171   -5.0610    0.2770 H         1 <0>         0.1044
     34 H12        -5.2205   -5.0947    2.2301 H         1 <0>         0.0873
     35 H13        -3.5156   -4.9284    2.7157 H         1 <0>         0.0374
     36 H14        -3.7472   -1.3950    3.5137 H         1 <0>         0.0889
     37 H15        -2.6736   -2.8139    3.4494 H         1 <0>         0.0369
     38 H16        -2.1365   -1.3580    1.5715 H         1 <0>         0.0997
     39 H17        -3.8491   -1.3049    1.0770 H         1 <0>         0.0767
     40 H18        -4.4683   -3.9738    4.8294 H         1 <0>         0.0253
     41 H19        -5.4324   -2.4814    4.7219 H         1 <0>         0.0703
     42 H20        -6.1163   -4.0252    4.1585 H         1 <0>         0.0713
@<TRIPOS>BOND
     1    1    2 1
     2    1   23 1
     3    1   24 1
     4    1   25 1
     5    2    6 1
     6    2    3 2
     7    3    4 1
     8    3   26 1
     9    4   15 1
    10    4    5 2
    11    5    6 1
    12    5    7 1
    13    7    8 1
    14    7   27 1
    15    8   13 ar
    16    8    9 ar
    17    9   10 ar
    18    9   28 1
    19   10   11 ar
    20   10   29 1
    21   11   12 ar
    22   11   30 1
    23   12   13 ar
    24   12   31 1
    25   13   14 1
    26   14   15 2
    27   15   16 1
    28   16   21 1
    29   16   17 1
    30   17   18 1
    31   17   32 1
    32   17   33 1
    33   18   19 1
    34   18   34 1
    35   18   35 1
    36   19   20 1
    37   19   22 1
    38   20   21 1
    39   20   36 1
    40   20   37 1
    41   21   38 1
    42   21   39 1
    43   22   40 1
    44   22   41 1
    45   22   42 1
@<TRIPOS>MOLECULE
ZINC19632628
   52    55     0     0     0
SMALL
USER_CHARGES

@<TRIPOS>ATOM
      1 C1         -0.4222    1.1482    0.6028 C.ar      1 <0>        -0.1079
      2 C2          0.6601    2.0108    0.6026 C.ar      1 <0>        -0.0952
      3 C3          1.9368    1.5210    0.3963 C.ar      1 <0>        -0.0793
      4 C4          2.1340    0.1654    0.1908 C.ar      1 <0>        -0.0873
      5 C5          1.0452   -0.7167    0.1927 C.ar      1 <0>        -0.0908
      6 C6         -0.2395   -0.2037    0.4004 C.ar      1 <0>        -0.0870
      7 C7          1.2251   -2.1556   -0.0120 C.2       1 <0>         0.5212
      8 N1          2.0971   -2.9363    0.4789 N.2       1 <0>        -0.6117
      9 C8          3.1087   -2.7110    1.3539 C.ar      1 <0>         0.2104
     10 C9          3.2947   -3.6064    2.4136 C.ar      1 <0>        -0.1316
     11 C10         4.3181   -3.4115    3.3191 C.ar      1 <0>        -0.0780
     12 C11         5.1704   -2.3312    3.1890 C.ar      1 <0>        -0.1476
     13 C12         4.9978   -1.4353    2.1471 C.ar      1 <0>        -0.0510
     14 C13         3.9732   -1.6184    1.2348 C.ar      1 <0>        -0.1819
     15 S1          3.7601   -0.4608   -0.0781 S.3       1 <0>        -0.0275
     16 N2          0.3163   -2.7473   -0.8595 N.pl3     1 <0>        -0.5971
     17 C14        -0.6501   -1.9363   -1.6155 C.3       1 <0>         0.1142
     18 C15        -0.5734   -2.3385   -3.0921 C.3       1 <0>         0.0413
     19 N3         -0.7548   -3.7915   -3.2106 N.3       1 <0>        -0.5271
     20 C16         0.3255   -4.5204   -2.5327 C.3       1 <0>         0.0377
     21 C17         0.2897   -4.2071   -1.0378 C.3       1 <0>         0.1287
     22 C18        -0.8596   -4.1958   -4.6190 C.3       1 <0>         0.0576
     23 C19        -1.2935   -5.6609   -4.6980 C.3       1 <0>         0.0650
     24 O1         -2.6131   -5.7962   -4.1666 O.3       1 <0>        -0.3622
     25 C20        -3.1162   -7.1334   -4.1936 C.3       1 <0>         0.0601
     26 C21        -4.5277   -7.1593   -3.6039 C.3       1 <0>         0.0791
     27 O2         -5.4078   -6.4072   -4.4416 O.3       1 <0>        -0.5670
     28 H1         -1.4167    1.5359    0.7671 H         1 <0>         0.1359
     29 H2          0.5074    3.0678    0.7633 H         1 <0>         0.1366
     30 H3          2.7802    2.1956    0.3949 H         1 <0>         0.1400
     31 H4         -1.0908   -0.8682    0.4022 H         1 <0>         0.1365
     32 H5          2.6340   -4.4536    2.5234 H         1 <0>         0.1290
     33 H6          4.4539   -4.1074    4.1338 H         1 <0>         0.1290
     34 H7          5.9705   -2.1856    3.8997 H         1 <0>         0.1292
     35 H8          5.6644   -0.5916    2.0462 H         1 <0>         0.1310
     36 H9         -1.6561   -2.1191   -1.2380 H         1 <0>         0.0794
     37 H10        -0.4029   -0.8799   -1.5104 H         1 <0>         0.0944
     38 H11        -1.3582   -1.8273   -3.6496 H         1 <0>         0.0896
     39 H12         0.4003   -2.0595   -3.4950 H         1 <0>         0.0388
     40 H13         0.1926   -5.5915   -2.6845 H         1 <0>         0.0867
     41 H14         1.2866   -4.2109   -2.9434 H         1 <0>         0.0380
     42 H15         1.1579   -4.6513   -0.5510 H         1 <0>         0.1050
     43 H16        -0.6243   -4.6124   -0.6037 H         1 <0>         0.0706
     44 H17        -1.5972   -3.5708   -5.1225 H         1 <0>         0.0867
     45 H18         0.1092   -4.0770   -5.1042 H         1 <0>         0.0497
     46 H19        -1.2855   -5.9865   -5.7382 H         1 <0>         0.0526
     47 H20        -0.6040   -6.2757   -4.1195 H         1 <0>         0.0489
     48 H21        -3.1461   -7.4897   -5.2233 H         1 <0>         0.0532
     49 H22        -2.4645   -7.7788   -3.6046 H         1 <0>         0.0607
     50 H23        -4.8770   -8.1899   -3.5424 H         1 <0>         0.0590
     51 H24        -4.5127   -6.7206   -2.6061 H         1 <0>         0.0550
     52 H25        -6.3221   -6.3804   -4.1280 H         1 <0>         0.3794
@<TRIPOS>BOND
     1    1    6 ar
     2    1    2 ar
     3    1   28 1
     4    2    3 ar
     5    2   29 1
     6    3    4 ar
     7    3   30 1
     8    4   15 1
     9    4    5 ar
    10    5    6 ar
    11    5    7 1
    12    6   31 1
    13    7    8 2
    14    7   16 1
    15    8    9 1
    16    9   14 ar
    17    9   10 ar
    18   10   11 ar
    19   10   32 1
    20   11   12 ar
    21   11   33 1
    22   12   13 ar
    23   12   34 1
    24   13   14 ar
    25   13   35 1
    26   14   15 1
    27   16   21 1
    28   16   17 1
    29   17   18 1
    30   17   36 1
    31   17   37 1
    32   18   19 1
    33   18   38 1
    34   18   39 1
    35   19   20 1
    36   19   22 1
    37   20   21 1
    38   20   40 1
    39   20   41 1
    40   21   42 1
    41   21   43 1
    42   22   23 1
    43   22   44 1
    44   22   45 1
    45   23   24 1
    46   23   46 1
    47   23   47 1
    48   24   25 1
    49   25   26 1
    50   25   48 1
    51   25   49 1
    52   26   27 1
    53   26   50 1
    54   26   51 1
    55   27   52 1
@<TRIPOS>MOLECULE
ZINC01530795
   34    35     0     0     0
SMALL
USER_CHARGES

@<TRIPOS>ATOM
      1 C1         -0.0188    1.5357    0.0105 C.3       1 <0>        -0.1444
      2 C2          1.4678    1.9597   -0.0014 C.3       1 <0>        -0.1453
      3 C3          2.1905    0.7049    0.5496 C.3       1 <0>        -0.0056
      4 N1          1.4211   -0.4185   -0.0440 N.4       1 <0>        -0.3963
      5 C4          0.0021   -0.0041    0.0020 C.3       1 <0>        -0.0071
      6 C5          1.6177   -1.6408    0.7468 C.3       1 <0>         0.1397
      7 C6          0.9478   -2.7694    0.0803 C.1       1 <0>        -0.2723
      8 C7          0.4136   -3.6696   -0.4513 C.1       1 <0>        -0.0629
      9 C8         -0.2563   -4.7982   -1.1178 C.3       1 <0>         0.2164
     10 N2         -0.0602   -6.0172   -0.3292 N.am      1 <0>        -0.6260
     11 C9          1.0683   -6.9401   -0.4981 C.3       1 <0>         0.1002
     12 C10         1.0971   -7.7957    0.7879 C.3       1 <0>        -0.1324
     13 C11        -0.3768   -7.7207    1.2495 C.3       1 <0>        -0.1565
     14 C12        -0.8877   -6.4310    0.6460 C.2       1 <0>         0.5177
     15 O1         -1.8983   -5.8555    0.9901 O.2       1 <0>        -0.5163
     16 H1         -0.5096    1.9024    0.9120 H         1 <0>         0.1051
     17 H2         -0.5267    1.9121   -0.8775 H         1 <0>         0.1049
     18 H3          1.7979    2.1803   -1.0166 H         1 <0>         0.0985
     19 H4          1.6298    2.8165    0.6527 H         1 <0>         0.1191
     20 H5          3.2275    0.6801    0.2150 H         1 <0>         0.1387
     21 H6          2.1355    0.6761    1.6379 H         1 <0>         0.1377
     22 H7         -0.4673   -0.3868    0.9083 H         1 <0>         0.1306
     23 H8         -0.5226   -0.3777   -0.8773 H         1 <0>         0.1268
     24 H9          2.6839   -1.8504    0.8326 H         1 <0>         0.1483
     25 H10         1.1935   -1.5023    1.7412 H         1 <0>         0.1479
     26 H11        -1.3225   -4.5886   -1.2036 H         1 <0>         0.1237
     27 H12         0.1679   -4.9366   -2.1122 H         1 <0>         0.1211
     28 H13         0.9093   -7.5748   -1.3699 H         1 <0>         0.0838
     29 H14         1.9993   -6.3827   -0.6012 H         1 <0>         0.0759
     30 H15         1.3846   -8.8234    0.5663 H         1 <0>         0.0994
     31 H16         1.7619   -7.3582    1.5327 H         1 <0>         0.0801
     32 H17        -0.9394   -8.5734    0.8695 H         1 <0>         0.1140
     33 H18        -0.4342   -7.6786    2.3372 H         1 <0>         0.1068
     34 H19         1.7084   -0.5705   -0.9992 H         1 <0>         0.4287
@<TRIPOS>BOND
     1    1    5 1
     2    1    2 1
     3    1   16 1
     4    1   17 1
     5    2    3 1
     6    2   18 1
     7    2   19 1
     8    3    4 1
     9    3   20 1
    10    3   21 1
    11    4    5 1
    12    4    6 1
    13    4   34 1
    14    5   22 1
    15    5   23 1
    16    6    7 1
    17    6   24 1
    18    6   25 1
    19    7    8 3
    20    8    9 1
    21    9   10 1
    22    9   26 1
    23    9   27 1
    24   10   14 am
    25   10   11 1
    26   11   12 1
    27   11   28 1
    28   11   29 1
    29   12   13 1
    30   12   30 1
    31   12   31 1
    32   13   14 1
    33   13   32 1
    34   13   33 1
    35   14   15 2
@<TRIPOS>MOLECULE
ZINC02555356
   50    52     0     0     0
SMALL
USER_CHARGES

@<TRIPOS>ATOM
      1 C1         -3.1267   -0.2398    0.1757 C.3       1 <0>        -0.0449
      2 N1         -2.4812   -1.5594    0.1832 N.4       1 <0>        -0.2704
      3 C2         -1.7895   -1.7714   -1.0939 C.3       1 <0>        -0.0003
      4 C3         -1.1837   -3.1762   -1.1232 C.3       1 <0>        -0.1466
      5 C4         -0.1859   -3.3201    0.0296 C.3       1 <0>         0.0757
      6 C5         -0.9013   -3.0239    1.3509 C.3       1 <0>        -0.1700
      7 C6         -1.5175   -1.6247    1.2885 C.3       1 <0>         0.0007
      8 O1          0.3283   -4.6531    0.0530 O.3       1 <0>        -0.3322
      9 C7          1.5761   -4.8169    0.5200 C.2       1 <0>         0.4751
     10 O2          2.2106   -3.8601    0.8965 O.2       1 <0>        -0.4822
     11 C8          2.1855   -6.1941    0.5748 C.3       1 <0>         0.0102
     12 C9          2.2374   -6.7760   -0.8144 C.ar      1 <0>        -0.0829
     13 C10         2.7976   -6.0487   -1.8479 C.ar      1 <0>        -0.1141
     14 C11         2.8453   -6.5825   -3.1221 C.ar      1 <0>        -0.1137
     15 C12         2.3332   -7.8437   -3.3628 C.ar      1 <0>        -0.1099
     16 C13         1.7738   -8.5714   -2.3291 C.ar      1 <0>        -0.1128
     17 C14         1.7300   -8.0393   -1.0540 C.ar      1 <0>        -0.1005
     18 C15         3.5819   -6.1036    1.1341 C.ar      1 <0>        -0.0883
     19 C16         4.4953   -5.2298    0.5745 C.ar      1 <0>        -0.0834
     20 C17         5.7762   -5.1468    1.0876 C.ar      1 <0>        -0.1203
     21 C18         6.1436   -5.9373    2.1604 C.ar      1 <0>        -0.1066
     22 C19         5.2300   -6.8105    2.7205 C.ar      1 <0>        -0.1191
     23 C20         3.9478   -6.8903    2.2102 C.ar      1 <0>        -0.1032
     24 C21        -3.5014   -2.6009    0.3629 C.3       1 <0>        -0.0576
     25 H1         -2.3702    0.5340    0.0450 H         1 <0>         0.1222
     26 H2         -3.8426   -0.1902   -0.6448 H         1 <0>         0.1241
     27 H3         -3.6462   -0.0841    1.1211 H         1 <0>         0.1237
     28 H4         -2.5002   -1.6655   -1.9135 H         1 <0>         0.1386
     29 H5         -0.9963   -1.0318   -1.2041 H         1 <0>         0.1311
     30 H6         -1.9760   -3.9166   -1.0133 H         1 <0>         0.1030
     31 H7         -0.6690   -3.3310   -2.0715 H         1 <0>         0.1211
     32 H8          0.6335   -2.6144   -0.1074 H         1 <0>         0.1004
     33 H9         -1.6878   -3.7612    1.5121 H         1 <0>         0.1012
     34 H10        -0.1848   -3.0698    2.1710 H         1 <0>         0.1165
     35 H11        -0.7302   -0.8883    1.1274 H         1 <0>         0.1313
     36 H12        -2.0275   -1.4106    2.2277 H         1 <0>         0.1359
     37 H13         1.5786   -6.8347    1.2146 H         1 <0>         0.1257
     38 H14         3.1977   -5.0633   -1.6599 H         1 <0>         0.1172
     39 H15         3.2823   -6.0140   -3.9297 H         1 <0>         0.1259
     40 H16         2.3698   -8.2604   -4.3585 H         1 <0>         0.1273
     41 H17         1.3734   -9.5566   -2.5172 H         1 <0>         0.1290
     42 H18         1.2964   -8.6093   -0.2456 H         1 <0>         0.1269
     43 H19         4.2082   -4.6122   -0.2637 H         1 <0>         0.1178
     44 H20         6.4900   -4.4646    0.6500 H         1 <0>         0.1252
     45 H21         7.1446   -5.8730    2.5608 H         1 <0>         0.1265
     46 H22         5.5172   -7.4283    3.5585 H         1 <0>         0.1279
     47 H23         3.2328   -7.5698    2.6502 H         1 <0>         0.1245
     48 H24        -4.2192   -2.5516   -0.4560 H         1 <0>         0.1246
     49 H25        -3.0235   -3.5805    0.3687 H         1 <0>         0.1262
     50 H26        -4.0187   -2.4434    1.3093 H         1 <0>         0.1239
@<TRIPOS>BOND
     1    1    2 1
     2    1   25 1
     3    1   26 1
     4    1   27 1
     5    2    7 1
     6    2    3 1
     7    2   24 1
     8    3    4 1
     9    3   28 1
    10    3   29 1
    11    4    5 1
    12    4   30 1
    13    4   31 1
    14    5    6 1
    15    5    8 1
    16    5   32 1
    17    6    7 1
    18    6   33 1
    19    6   34 1
    20    7   35 1
    21    7   36 1
    22    8    9 1
    23    9   10 2
    24    9   11 1
    25   11   12 1
    26   11   18 1
    27   11   37 1
    28   12   17 ar
    29   12   13 ar
    30   13   14 ar
    31   13   38 1
    32   14   15 ar
    33   14   39 1
    34   15   16 ar
    35   15   40 1
    36   16   17 ar
    37   16   41 1
    38   17   42 1
    39   18   23 ar
    40   18   19 ar
    41   19   20 ar
    42   19   43 1
    43   20   21 ar
    44   20   44 1
    45   21   22 ar
    46   21   45 1
    47   22   23 ar
    48   22   46 1
    49   23   47 1
    50   24   48 1
    51   24   49 1
    52   24   50 1
@<TRIPOS>MOLECULE
ZINC53093622
   41    44     0     0     0
SMALL
USER_CHARGES

@<TRIPOS>ATOM
      1 C1         -0.0167    1.3770    0.0096 C.ar      1 <0>        -0.1146
      2 C2          1.1682    2.0941    0.0022 C.ar      1 <0>        -0.0340
      3 C3          2.3850    1.4392   -0.0350 C.ar      1 <0>        -0.1214
      4 C4          2.4182    0.0542   -0.0544 C.ar      1 <0>         0.2295
      5 C5          1.2220   -0.6724   -0.0084 C.ar      1 <0>        -0.2077
      6 C6          0.0021   -0.0041    0.0020 C.ar      1 <0>        -0.0576
      7 C7          1.2923   -2.1456    0.0915 C.cat     1 <0>         0.6493
      8 N1          1.9379   -2.7068    1.1687 N.pl3     1 <0>        -0.6709
      9 C8          3.2978   -2.4923    1.4384 C.ar      1 <0>         0.1177
     10 C9          3.8713   -3.3252    2.4013 C.ar      1 <0>        -0.1136
     11 C10         5.2027   -3.1988    2.7410 C.ar      1 <0>        -0.0174
     12 C11         5.9817   -2.2367    2.1233 C.ar      1 <0>        -0.0776
     13 C12         5.4240   -1.4097    1.1716 C.ar      1 <0>        -0.0996
     14 C13         4.0774   -1.5302    0.8199 C.ar      1 <0>         0.1552
     15 N2          3.6093   -0.6472   -0.1555 N.pl3     1 <0>        -0.7209
     16 Cl1         5.8981   -4.2435    3.9404 Cl        1 <0>        -0.0237
     17 N3          0.7521   -2.8989   -0.8242 N.pl3     1 <0>        -0.4958
     18 C14         0.0648   -2.3068   -1.9822 C.3       1 <0>         0.0455
     19 C15         0.6136   -2.9561   -3.2570 C.3       1 <0>        -0.0179
     20 N4          0.4845   -4.4153   -3.1565 N.4       1 <0>        -0.5113
     21 C16         1.3262   -4.9178   -2.0634 C.3       1 <0>        -0.0158
     22 C17         0.8175   -4.3657   -0.7324 C.3       1 <0>         0.0343
     23 H1         -0.9610    1.9008    0.0260 H         1 <0>         0.1542
     24 H2          1.1413    3.1736    0.0259 H         1 <0>         0.1545
     25 H3          3.3052    2.0043   -0.0493 H         1 <0>         0.1549
     26 H4         -0.9234   -0.5608    0.0038 H         1 <0>         0.1404
     27 H5          3.2659   -4.0772    2.8855 H         1 <0>         0.1496
     28 H6          7.0241   -2.1335    2.3862 H         1 <0>         0.1568
     29 H7          6.0356   -0.6598    0.6919 H         1 <0>         0.1541
     30 H8          4.1494   -0.5176   -0.9507 H         1 <0>         0.4203
     31 H9         -1.0064   -2.4943   -1.9076 H         1 <0>         0.1432
     32 H10         0.2506   -1.2331   -2.0088 H         1 <0>         0.1637
     33 H11         0.0490   -2.5996   -4.1185 H         1 <0>         0.1754
     34 H12         1.6643   -2.6915   -3.3762 H         1 <0>         0.1495
     35 H13        -0.4788   -4.6547   -2.9751 H         1 <0>         0.4375
     36 H14         1.2866   -6.0069   -2.0453 H         1 <0>         0.1741
     37 H15         2.3553   -4.5939   -2.2187 H         1 <0>         0.1489
     38 H16         1.5008   -4.6526    0.0670 H         1 <0>         0.1537
     39 H17        -0.1763   -4.7647   -0.5294 H         1 <0>         0.1437
     40 H18         1.4306   -3.2763    1.7680 H         1 <0>         0.4407
     41 H19         0.7757   -4.8380   -4.0252 H         1 <0>         0.4531
@<TRIPOS>BOND
     1    1    6 ar
     2    1    2 ar
     3    1   23 1
     4    2    3 ar
     5    2   24 1
     6    3    4 ar
     7    3   25 1
     8    4   15 1
     9    4    5 ar
    10    5    6 ar
    11    5    7 1
    12    6   26 1
    13    7    8 1
    14    7   17 2
    15    8    9 1
    16    8   40 1
    17    9   14 ar
    18    9   10 ar
    19   10   11 ar
    20   10   27 1
    21   11   12 ar
    22   11   16 1
    23   12   13 ar
    24   12   28 1
    25   13   14 ar
    26   13   29 1
    27   14   15 1
    28   15   30 1
    29   17   22 1
    30   17   18 1
    31   18   19 1
    32   18   31 1
    33   18   32 1
    34   19   20 1
    35   19   33 1
    36   19   34 1
    37   20   21 1
    38   20   35 1
    39   20   41 1
    40   21   22 1
    41   21   36 1
    42   21   37 1
    43   22   38 1
    44   22   39 1
@<TRIPOS>MOLECULE
ZINC00538312
   58    62     0     0     0
SMALL
USER_CHARGES

@<TRIPOS>ATOM
      1 C1         -0.0184    1.5028    0.0103 C.3       1 <0>        -0.1195
      2 C2          0.0021   -0.0041    0.0020 C.2       1 <0>         0.2267
      3 C3         -1.1658   -0.7051    0.0037 C.2       1 <0>        -0.3134
      4 C4         -1.0976   -2.1102    0.0026 C.2       1 <0>         0.5229
      5 O1         -2.1195   -2.7763   -0.0037 O.2       1 <0>        -0.5388
      6 N1          0.1170   -2.7181    0.0083 N.am      1 <0>        -0.5055
      7 C5          1.2324   -1.9722   -0.0125 C.2       1 <0>         0.4317
      8 N2          1.1610   -0.6576   -0.0126 N.2       1 <0>        -0.5532
      9 C6          2.6152   -2.5746   -0.0542 C.3       1 <0>        -0.0794
     10 C7          2.5757   -4.0399    0.3747 C.3       1 <0>        -0.1325
     11 C8          1.4654   -4.7382   -0.4208 C.3       1 <0>        -0.1400
     12 C9          0.1227   -4.1811    0.0440 C.3       1 <0>         0.0852
     13 C10        -2.4949    0.0052    0.0071 C.3       1 <0>        -0.0659
     14 C11        -3.0069    0.1361   -1.4287 C.3       1 <0>        -0.0060
     15 N3         -4.3025    0.8286   -1.4254 N.4       1 <0>        -0.3843
     16 C12        -5.2942    0.0044   -0.7242 C.3       1 <0>        -0.0080
     17 C13        -6.6248    0.7562   -0.6469 C.3       1 <0>        -0.1417
     18 C14        -7.1187    1.0558   -2.0652 C.3       1 <0>        -0.0246
     19 C15        -6.0446    1.8523   -2.8116 C.3       1 <0>        -0.1421
     20 C16        -4.7355    1.0599   -2.8086 C.3       1 <0>        -0.0031
     21 C17        -8.3887    1.8641   -1.9963 C.2       1 <0>         0.1325
     22 C18        -9.6953    1.4738   -2.5327 C.ar      1 <0>        -0.2134
     23 C19       -10.1611    0.3470   -3.2152 C.ar      1 <0>        -0.0098
     24 C20       -11.4711    0.2760   -3.5942 C.ar      1 <0>        -0.1750
     25 C21       -12.3461    1.3174   -3.3066 C.ar      1 <0>         0.1749
     26 C22       -11.9048    2.4388   -2.6332 C.ar      1 <0>        -0.1638
     27 C23       -10.5757    2.5285   -2.2393 C.ar      1 <0>         0.1187
     28 O2         -9.8642    3.4688   -1.5855 O.3       1 <0>        -0.0749
     29 N4         -8.5274    3.0311   -1.4462 N.2       1 <0>        -0.2751
     30 F1        -13.6388    1.2314   -3.6896 F         1 <0>        -0.1154
     31 H1          1.0042    1.8801    0.0026 H         1 <0>         0.0924
     32 H2         -0.5455    1.8639   -0.8728 H         1 <0>         0.0828
     33 H3         -0.5286    1.8543    0.9071 H         1 <0>         0.0913
     34 H4          3.0059   -2.5077   -1.0696 H         1 <0>         0.1148
     35 H5          3.2691   -2.0204    0.6191 H         1 <0>         0.1189
     36 H6          3.5346   -4.5121    0.1611 H         1 <0>         0.0978
     37 H7          2.3615   -4.1056    1.4415 H         1 <0>         0.0782
     38 H8          1.5965   -4.5420   -1.4849 H         1 <0>         0.0801
     39 H9          1.5014   -5.8120   -0.2372 H         1 <0>         0.1025
     40 H10        -0.0688   -4.5145    1.0639 H         1 <0>         0.0935
     41 H11        -0.6654   -4.5576   -0.6081 H         1 <0>         0.1043
     42 H12        -3.2109   -0.5666    0.5975 H         1 <0>         0.0984
     43 H13        -2.3754    0.9974    0.4422 H         1 <0>         0.0964
     44 H14        -2.2909    0.7079   -2.0190 H         1 <0>         0.1297
     45 H15        -3.1264   -0.8561   -1.8638 H         1 <0>         0.1316
     46 H16        -5.4368   -0.9309   -1.2655 H         1 <0>         0.1347
     47 H17        -4.9399   -0.2107    0.2839 H         1 <0>         0.1394
     48 H18        -7.3603    0.1418   -0.1276 H         1 <0>         0.1195
     49 H19        -6.4834    1.6916   -0.1055 H         1 <0>         0.0988
     50 H20        -7.3090    0.1197   -2.5902 H         1 <0>         0.1177
     51 H21        -6.3653    2.0214   -3.8395 H         1 <0>         0.1196
     52 H22        -5.8912    2.8104   -2.3151 H         1 <0>         0.0992
     53 H23        -3.9686    1.6240   -3.3394 H         1 <0>         0.1371
     54 H24        -4.8899    0.1021   -3.3055 H         1 <0>         0.1330
     55 H25        -9.4868   -0.4654   -3.4426 H         1 <0>         0.1453
     56 H26       -11.8300   -0.5955   -4.1217 H         1 <0>         0.1542
     57 H27       -12.5906    3.2435   -2.4131 H         1 <0>         0.1583
     58 H28        -4.2082    1.7141   -0.9510 H         1 <0>         0.4233
@<TRIPOS>BOND
     1    1    2 1
     2    1   31 1
     3    1   32 1
     4    1   33 1
     5    2    8 1
     6    2    3 2
     7    3    4 1
     8    3   13 1
     9    4    5 2
    10    4    6 am
    11    6   12 1
    12    6    7 1
    13    7    8 2
    14    7    9 1
    15    9   10 1
    16    9   34 1
    17    9   35 1
    18   10   11 1
    19   10   36 1
    20   10   37 1
    21   11   12 1
    22   11   38 1
    23   11   39 1
    24   12   40 1
    25   12   41 1
    26   13   14 1
    27   13   42 1
    28   13   43 1
    29   14   15 1
    30   14   44 1
    31   14   45 1
    32   15   20 1
    33   15   16 1
    34   15   58 1
    35   16   17 1
    36   16   46 1
    37   16   47 1
    38   17   18 1
    39   17   48 1
    40   17   49 1
    41   18   19 1
    42   18   21 1
    43   18   50 1
    44   19   20 1
    45   19   51 1
    46   19   52 1
    47   20   53 1
    48   20   54 1
    49   21   29 2
    50   21   22 1
    51   22   27 ar
    52   22   23 ar
    53   23   24 ar
    54   23   55 1
    55   24   25 ar
    56   24   56 1
    57   25   26 ar
    58   25   30 1
    59   26   27 ar
    60   26   57 1
    61   27   28 1
    62   28   29 1
@<TRIPOS>MOLECULE
ZINC00393133
   27    27     0     0     0
SMALL
USER_CHARGES

@<TRIPOS>ATOM
      1 C1         -0.0184    1.5028    0.0103 C.3       1 <0>        -0.0903
      2 C2          0.0021   -0.0041    0.0020 C.2       1 <0>         0.0441
      3 C3         -1.0783   -0.8055    0.0027 C.2       1 <0>        -0.2215
      4 C4         -0.6011   -2.1363   -0.0068 C.2       1 <0>        -0.1369
      5 C5          0.7423   -2.0686   -0.0126 C.2       1 <0>        -0.1097
      6 O1          1.1020   -0.7746   -0.0131 O.3       1 <0>        -0.1683
      7 C6          1.6840   -3.2450   -0.0226 C.3       1 <0>         0.0911
      8 N1          1.9837   -3.6206   -1.4108 N.4       1 <0>        -0.2728
      9 C7          2.6109   -2.4855   -2.1007 C.3       1 <0>        -0.0459
     10 C8          2.9016   -4.7675   -1.4206 C.3       1 <0>        -0.0445
     11 C9          0.7381   -3.9845   -2.0994 C.3       1 <0>        -0.0521
     12 H1          1.0042    1.8801    0.0026 H         1 <0>         0.0837
     13 H2         -0.5455    1.8639   -0.8728 H         1 <0>         0.0985
     14 H3         -0.5286    1.8543    0.9071 H         1 <0>         0.0995
     15 H4         -2.1119   -0.4924    0.0097 H         1 <0>         0.1627
     16 H5         -1.2002   -3.0349   -0.0086 H         1 <0>         0.1603
     17 H6          2.6082   -2.9750    0.4883 H         1 <0>         0.1418
     18 H7          1.2186   -4.0873    0.4893 H         1 <0>         0.1533
     19 H8          3.5351   -2.2155   -1.5898 H         1 <0>         0.1226
     20 H9          2.8332   -2.7642   -3.1308 H         1 <0>         0.1240
     21 H10         1.9298   -1.6345   -2.0935 H         1 <0>         0.1181
     22 H11         2.4362   -5.6097   -0.9087 H         1 <0>         0.1240
     23 H12         3.1240   -5.0461   -2.4506 H         1 <0>         0.1257
     24 H13         3.8258   -4.4974   -0.9097 H         1 <0>         0.1234
     25 H14         0.0570   -3.1336   -2.0921 H         1 <0>         0.1216
     26 H15         0.9604   -4.2632   -3.1294 H         1 <0>         0.1243
     27 H16         0.2727   -4.8268   -1.5875 H         1 <0>         0.1233
@<TRIPOS>BOND
     1    1    2 1
     2    1   12 1
     3    1   13 1
     4    1   14 1
     5    2    6 1
     6    2    3 2
     7    3    4 1
     8    3   15 1
     9    4    5 2
    10    4   16 1
    11    5    6 1
    12    5    7 1
    13    7    8 1
    14    7   17 1
    15    7   18 1
    16    8    9 1
    17    8   10 1
    18    8   11 1
    19    9   19 1
    20    9   20 1
    21    9   21 1
    22   10   22 1
    23   10   23 1
    24   10   24 1
    25   11   25 1
    26   11   26 1
    27   11   27 1
@<TRIPOS>MOLECULE
ZINC03831050
   29    28     0     0     0
SMALL
USER_CHARGES

@<TRIPOS>ATOM
      1 C1         -0.3928    1.6474    0.1249 C.3       1 <0>        -0.1734
      2 C2         -0.2100    0.1289    0.0830 C.3       1 <0>         0.0559
      3 H1          0.2528   -0.2070    1.0110 H         1 <0>         0.1076
      4 C3         -1.5740   -0.5447   -0.0797 C.3       1 <0>        -0.0025
      5 N1         -1.4134   -2.0025    0.0048 N.4       1 <0>        -0.2723
      6 C4         -0.7209   -2.3473    1.2536 C.3       1 <0>        -0.0557
      7 C5         -2.7354   -2.6427   -0.0149 C.3       1 <0>        -0.0453
      8 C6         -0.6233   -2.4752   -1.1399 C.3       1 <0>        -0.0476
      9 O1          0.6281   -0.2197   -1.0206 O.3       1 <0>        -0.3570
     10 C7          1.9494   -0.2717   -0.7899 C.2       1 <0>         0.4581
     11 O2          2.3802   -0.0291    0.3126 O.2       1 <0>        -0.4920
     12 C8          2.8956   -0.6324   -1.9060 C.3       1 <0>        -0.1528
     13 H2          0.5790    2.1273    0.2408 H         1 <0>         0.0824
     14 H3         -0.8556    1.9833   -0.8031 H         1 <0>         0.0803
     15 H4         -1.0321    1.9133    0.9667 H         1 <0>         0.0873
     16 H5         -2.2430   -0.2065    0.7116 H         1 <0>         0.1484
     17 H6         -1.9960   -0.2813   -1.0495 H         1 <0>         0.1425
     18 H7         -1.3071   -1.9965    2.1029 H         1 <0>         0.1261
     19 H8         -0.6017   -3.4289    1.3163 H         1 <0>         0.1274
     20 H9          0.2600   -1.8722    1.2682 H         1 <0>         0.1179
     21 H10        -3.2492   -2.3869   -0.9415 H         1 <0>         0.1238
     22 H11        -2.6162   -3.7244    0.0478 H         1 <0>         0.1246
     23 H12        -3.3216   -2.2920    0.8345 H         1 <0>         0.1227
     24 H13         0.4164   -2.1734   -1.0131 H         1 <0>         0.1208
     25 H14        -0.6817   -3.5621   -1.1976 H         1 <0>         0.1201
     26 H15        -1.0184   -2.0408   -2.0582 H         1 <0>         0.1260
     27 H16         2.3282   -0.8156   -2.8184 H         1 <0>         0.0962
     28 H17         3.5933    0.1887   -2.0706 H         1 <0>         0.1169
     29 H18         3.4498   -1.5314   -1.6361 H         1 <0>         0.1137
@<TRIPOS>BOND
     1    1    2 1
     2    1   13 1
     3    1   14 1
     4    1   15 1
     5    2    3 1
     6    2    4 1
     7    2    9 1
     8    4    5 1
     9    4   16 1
    10    4   17 1
    11    5    6 1
    12    5    7 1
    13    5    8 1
    14    6   18 1
    15    6   19 1
    16    6   20 1
    17    7   21 1
    18    7   22 1
    19    7   23 1
    20    8   24 1
    21    8   25 1
    22    8   26 1
    23    9   10 1
    24   10   11 2
    25   10   12 1
    26   12   27 1
    27   12   28 1
    28   12   29 1
@<TRIPOS>MOLECULE
ZINC03831051
   29    28     0     0     0
SMALL
USER_CHARGES

@<TRIPOS>ATOM
      1 C1         -0.0441    1.7102   -0.8814 C.3       1 <0>        -0.1735
      2 C2         -0.0857    0.2133   -0.5678 C.3       1 <0>         0.0558
      3 H1          0.3181    0.0397    0.4297 H         1 <0>         0.1075
      4 C3          0.7533   -0.5469   -1.5970 C.3       1 <0>        -0.0028
      5 N1          0.8440   -1.9602   -1.2070 N.4       1 <0>        -0.2723
      6 C4         -0.4922   -2.5686   -1.2564 C.3       1 <0>        -0.0488
      7 C5          1.7385   -2.6673   -2.1332 C.3       1 <0>        -0.0453
      8 C6          1.3765   -2.0582    0.1586 C.3       1 <0>        -0.0560
      9 O1         -1.4374   -0.2472   -0.6214 O.3       1 <0>        -0.3566
     10 C7         -2.1441   -0.1964    0.5187 C.2       1 <0>         0.4582
     11 O2         -1.6320    0.2252    1.5286 O.2       1 <0>        -0.4920
     12 C8         -3.5762   -0.6650    0.5390 C.3       1 <0>        -0.1528
     13 H2          0.9870    2.0615   -0.8405 H         1 <0>         0.0873
     14 H3         -0.4478    1.8839   -1.8789 H         1 <0>         0.0804
     15 H4         -0.6418    2.2518   -0.1482 H         1 <0>         0.0824
     16 H5          0.2830   -0.4699   -2.5773 H         1 <0>         0.1427
     17 H6          1.7539   -0.1166   -1.6393 H         1 <0>         0.1486
     18 H7         -0.9549   -2.3516   -2.2191 H         1 <0>         0.1260
     19 H8         -0.4049   -3.6478   -1.1302 H         1 <0>         0.1202
     20 H9         -1.1082   -2.1579   -0.4564 H         1 <0>         0.1209
     21 H10         2.7300   -2.2159   -2.0966 H         1 <0>         0.1228
     22 H11         1.8059   -3.7160   -1.8439 H         1 <0>         0.1245
     23 H12         1.3434   -2.5946   -3.1465 H         1 <0>         0.1237
     24 H13         0.7128   -1.5335    0.8459 H         1 <0>         0.1184
     25 H14         1.4439   -3.1069    0.4480 H         1 <0>         0.1274
     26 H15         2.3680   -1.6068    0.1952 H         1 <0>         0.1262
     27 H16        -3.8606   -1.0075   -0.4560 H         1 <0>         0.0963
     28 H17        -3.6800   -1.4855    1.2490 H         1 <0>         0.1138
     29 H18        -4.2240    0.1589    0.8385 H         1 <0>         0.1169
@<TRIPOS>BOND
     1    1    2 1
     2    1   13 1
     3    1   14 1
     4    1   15 1
     5    2    3 1
     6    2    4 1
     7    2    9 1
     8    4    5 1
     9    4   16 1
    10    4   17 1
    11    5    6 1
    12    5    7 1
    13    5    8 1
    14    6   18 1
    15    6   19 1
    16    6   20 1
    17    7   21 1
    18    7   22 1
    19    7   23 1
    20    8   24 1
    21    8   25 1
    22    8   26 1
    23    9   10 1
    24   10   11 2
    25   10   12 1
    26   12   27 1
    27   12   28 1
    28   12   29 1
@<TRIPOS>MOLECULE
ZINC19632927
   48    51     0     0     0
SMALL
USER_CHARGES

@<TRIPOS>ATOM
      1 C1         -0.0178    1.4648    0.0101 C.3       1 <0>        -0.0455
      2 N1          0.0021   -0.0041    0.0020 N.4       1 <0>        -0.3894
      3 C2          0.6881   -0.4775   -1.2074 C.3       1 <0>        -0.0008
      4 C3          0.6925   -2.0076   -1.2257 C.3       1 <0>         0.0269
      5 N2          1.3783   -2.5070   -0.0254 N.3       1 <0>        -0.5225
      6 C4          0.7172   -2.0206    1.1938 C.3       1 <0>         0.0161
      7 C5          0.7125   -0.4904    1.1921 C.3       1 <0>         0.0015
      8 C6          1.4533   -3.9741   -0.0341 C.3       1 <0>         0.0426
      9 C7          2.3669   -4.4368    1.0715 C.2       1 <0>         0.5351
     10 O1          2.9027   -3.6245    1.7954 O.2       1 <0>        -0.4900
     11 N3          2.5885   -5.7534    1.2559 N.am      1 <0>        -0.5088
     12 C8          3.4268   -6.1930    2.2788 C.ar      1 <0>         0.1626
     13 C9          4.7558   -5.7953    2.3068 C.ar      1 <0>        -0.1029
     14 C10         5.5974   -6.2612    3.2975 C.ar      1 <0>        -0.0752
     15 C11         5.1221   -7.1293    4.2666 C.ar      1 <0>        -0.1148
     16 C12         3.8013   -7.5220    4.2622 C.ar      1 <0>        -0.0472
     17 C13         2.9321   -7.0440    3.2767 C.ar      1 <0>        -0.1388
     18 C14         1.5076   -7.3936    3.3274 C.2       1 <0>         0.5693
     19 O2          0.9941   -7.4628    4.4272 O.2       1 <0>        -0.5115
     20 N4          0.7308   -7.6402    2.2834 N.am      1 <0>        -0.6546
     21 C15         1.1049   -7.6466    0.9429 C.ar      1 <0>         0.1116
     22 C16         1.9766   -6.6982    0.4280 C.ar      1 <0>         0.3036
     23 N5          2.2523   -6.6867   -0.8690 N.ar      1 <0>        -0.4707
     24 C17         1.7527   -7.5835   -1.6967 C.ar      1 <0>         0.1138
     25 C18         0.9140   -8.5804   -1.2402 C.ar      1 <0>        -0.1334
     26 C19         0.5835   -8.6183    0.0940 C.ar      1 <0>        -0.0812
     27 H1          1.0047    1.8421    0.0024 H         1 <0>         0.1237
     28 H2         -0.5450    1.8259   -0.8730 H         1 <0>         0.1244
     29 H3         -0.5280    1.8163    0.9069 H         1 <0>         0.1243
     30 H4          0.1675   -0.1052   -2.0897 H         1 <0>         0.1384
     31 H5          1.7147   -0.1111   -1.2098 H         1 <0>         0.1397
     32 H6         -0.3339   -2.3742   -1.2371 H         1 <0>         0.0623
     33 H7          1.2146   -2.3592   -2.1156 H         1 <0>         0.1270
     34 H8         -0.3088   -2.3874    1.2222 H         1 <0>         0.0573
     35 H9          1.2573   -2.3817    2.0691 H         1 <0>         0.1369
     36 H10         1.7390   -0.1239    1.1774 H         1 <0>         0.1407
     37 H11         0.2100   -0.1276    2.0887 H         1 <0>         0.1368
     38 H12         0.4575   -4.3897    0.1196 H         1 <0>         0.0732
     39 H13         1.8441   -4.3122   -0.9938 H         1 <0>         0.1348
     40 H14         5.1327   -5.1207    1.5523 H         1 <0>         0.1352
     41 H15         6.6308   -5.9477    3.3166 H         1 <0>         0.1412
     42 H16         5.7903   -7.5006    5.0294 H         1 <0>         0.1426
     43 H17         3.4373   -8.1998    5.0202 H         1 <0>         0.1436
     44 H18        -0.1996   -7.8381    2.4737 H         1 <0>         0.4153
     45 H19         2.0029   -7.5372   -2.7463 H         1 <0>         0.1750
     46 H20         0.5246   -9.3217   -1.9223 H         1 <0>         0.1560
     47 H21        -0.0739   -9.3867    0.4732 H         1 <0>         0.1543
     48 H22        -0.9446   -0.3531    0.0097 H         1 <0>         0.4216
@<TRIPOS>BOND
     1    1    2 1
     2    1   27 1
     3    1   28 1
     4    1   29 1
     5    2    7 1
     6    2    3 1
     7    2   48 1
     8    3    4 1
     9    3   30 1
    10    3   31 1
    11    4    5 1
    12    4   32 1
    13    4   33 1
    14    5    6 1
    15    5    8 1
    16    6    7 1
    17    6   34 1
    18    6   35 1
    19    7   36 1
    20    7   37 1
    21    8    9 1
    22    8   38 1
    23    8   39 1
    24    9   10 2
    25    9   11 am
    26   11   22 1
    27   11   12 1
    28   12   17 ar
    29   12   13 ar
    30   13   14 ar
    31   13   40 1
    32   14   15 ar
    33   14   41 1
    34   15   16 ar
    35   15   42 1
    36   16   17 ar
    37   16   43 1
    38   17   18 1
    39   18   19 2
    40   18   20 am
    41   20   21 1
    42   20   44 1
    43   21   26 ar
    44   21   22 ar
    45   22   23 ar
    46   23   24 ar
    47   24   25 ar
    48   24   45 1
    49   25   26 ar
    50   25   46 1
    51   26   47 1
@<TRIPOS>MOLECULE
ZINC19632927
   48    51     0     0     0
SMALL
USER_CHARGES

@<TRIPOS>ATOM
      1 C1         -0.0178    1.4648    0.0101 C.3       1 <0>         0.0196
      2 N1          0.0021   -0.0041    0.0020 N.3       1 <0>        -0.5444
      3 C2          0.6054   -0.5158   -1.2366 C.3       1 <0>         0.0258
      4 C3          0.5529   -2.0452   -1.2320 C.3       1 <0>        -0.0018
      5 N2          1.2823   -2.5567   -0.0641 N.4       1 <0>        -0.3733
      6 C4          0.6533   -2.0570    1.1655 C.3       1 <0>        -0.0155
      7 C5          0.7065   -0.5278    1.1808 C.3       1 <0>         0.0300
      8 C6          1.2470   -4.0253   -0.0699 C.3       1 <0>        -0.0244
      9 C7          2.0969   -4.5526    1.0573 C.2       1 <0>         0.5235
     10 O1          2.6751   -3.7810    1.7931 O.2       1 <0>        -0.4949
     11 N3          2.2146   -5.8816    1.2479 N.am      1 <0>        -0.4846
     12 C8          2.9932   -6.3804    2.2906 C.ar      1 <0>         0.1484
     13 C9          4.3473   -6.0836    2.3497 C.ar      1 <0>        -0.1002
     14 C10         5.1280   -6.6089    3.3605 C.ar      1 <0>        -0.0741
     15 C11         4.5660   -7.4364    4.3187 C.ar      1 <0>        -0.1065
     16 C12         3.2199   -7.7288    4.2833 C.ar      1 <0>        -0.0453
     17 C13         2.4126   -7.1893    3.2772 C.ar      1 <0>        -0.1310
     18 C14         0.9650   -7.4308    3.2944 C.2       1 <0>         0.5660
     19 O2          0.4220   -7.4585    4.3818 O.2       1 <0>        -0.5020
     20 N4          0.1966   -7.6210    2.2325 N.am      1 <0>        -0.6563
     21 C15         0.6007   -7.6588    0.9012 C.ar      1 <0>         0.1240
     22 C16         1.5531   -6.7799    0.4064 C.ar      1 <0>         0.2781
     23 N5          1.8594   -6.7924   -0.8838 N.ar      1 <0>        -0.4751
     24 C17         1.3134   -7.6512   -1.7224 C.ar      1 <0>         0.1160
     25 C18         0.3916   -8.5811   -1.2851 C.ar      1 <0>        -0.1227
     26 C19         0.0278   -8.5907    0.0409 C.ar      1 <0>        -0.0791
     27 H1          1.0047    1.8421    0.0024 H         1 <0>         0.0402
     28 H2         -0.5450    1.8259   -0.8730 H         1 <0>         0.0841
     29 H3         -0.5280    1.8163    0.9069 H         1 <0>         0.0845
     30 H4          0.0516   -0.1355   -2.0950 H         1 <0>         0.1271
     31 H5          1.6430   -0.1877   -1.2984 H         1 <0>         0.0626
     32 H6         -0.4855   -2.3730   -1.1840 H         1 <0>         0.1398
     33 H7          1.0127   -2.4272   -2.1434 H         1 <0>         0.1394
     34 H8         -0.3857   -2.3847    1.2013 H         1 <0>         0.1346
     35 H9          1.1874   -2.4478    2.0316 H         1 <0>         0.1491
     36 H10         1.7458   -0.1998    1.1589 H         1 <0>         0.0634
     37 H11         0.2266   -0.1562    2.0862 H         1 <0>         0.1249
     38 H12         0.2194   -4.3646    0.0604 H         1 <0>         0.1577
     39 H13         1.6338   -4.3943   -1.0199 H         1 <0>         0.1742
     40 H14         4.7915   -5.4410    1.6039 H         1 <0>         0.1353
     41 H15         6.1812   -6.3738    3.4038 H         1 <0>         0.1444
     42 H16         5.1863   -7.8550    5.0974 H         1 <0>         0.1462
     43 H17         2.7883   -8.3754    5.0330 H         1 <0>         0.1472
     44 H18        -0.7502   -7.7480    2.4009 H         1 <0>         0.4187
     45 H19         1.5909   -7.6265   -2.7658 H         1 <0>         0.1794
     46 H20        -0.0363   -9.2928   -1.9757 H         1 <0>         0.1603
     47 H21        -0.6942   -9.3066    0.4050 H         1 <0>         0.1586
     48 H22         2.2406   -2.2435   -0.1027 H         1 <0>         0.4278
@<TRIPOS>BOND
     1    1    2 1
     2    1   27 1
     3    1   28 1
     4    1   29 1
     5    2    7 1
     6    2    3 1
     7    3    4 1
     8    3   30 1
     9    3   31 1
    10    4    5 1
    11    4   32 1
    12    4   33 1
    13    5    6 1
    14    5    8 1
    15    5   48 1
    16    6    7 1
    17    6   34 1
    18    6   35 1
    19    7   36 1
    20    7   37 1
    21    8    9 1
    22    8   38 1
    23    8   39 1
    24    9   10 2
    25    9   11 am
    26   11   22 1
    27   11   12 1
    28   12   17 ar
    29   12   13 ar
    30   13   14 ar
    31   13   40 1
    32   14   15 ar
    33   14   41 1
    34   15   16 ar
    35   15   42 1
    36   16   17 ar
    37   16   43 1
    38   17   18 1
    39   18   19 2
    40   18   20 am
    41   20   21 1
    42   20   44 1
    43   21   26 ar
    44   21   22 ar
    45   22   23 ar
    46   23   24 ar
    47   24   25 ar
    48   24   45 1
    49   25   26 ar
    50   25   46 1
    51   26   47 1
@<TRIPOS>MOLECULE
ZINC19632927
   47    50     0     0     0
SMALL
USER_CHARGES

@<TRIPOS>ATOM
      1 C1         -0.0178    1.4648    0.0101 C.3       1 <0>         0.0248
      2 N1          0.0021   -0.0041    0.0020 N.3       1 <0>        -0.5479
      3 C2          0.6031   -0.5158   -1.2375 C.3       1 <0>         0.0571
      4 C3          0.5329   -2.0447   -1.2421 C.3       1 <0>         0.0591
      5 N2          1.2373   -2.5683   -0.0634 N.3       1 <0>        -0.5228
      6 C4          0.6362   -2.0566    1.1762 C.3       1 <0>         0.0505
      7 C5          0.7064   -0.5277    1.1807 C.3       1 <0>         0.0599
      8 C6          1.2572   -4.0372   -0.0715 C.3       1 <0>         0.0451
      9 C7          2.1875   -4.5329    1.0055 C.2       1 <0>         0.5341
     10 O1          2.7761   -3.7405    1.7103 O.2       1 <0>        -0.4817
     11 N3          2.3656   -5.8566    1.1853 N.am      1 <0>        -0.5193
     12 C8          3.2191   -6.3265    2.1819 C.ar      1 <0>         0.1729
     13 C9          4.5622   -5.9787    2.1669 C.ar      1 <0>        -0.1042
     14 C10         5.4170   -6.4750    3.1313 C.ar      1 <0>        -0.0765
     15 C11         4.9406   -7.3239    4.1167 C.ar      1 <0>        -0.1213
     16 C12         3.6066   -7.6669    4.1551 C.ar      1 <0>        -0.0489
     17 C13         2.7249   -7.1575    3.1968 C.ar      1 <0>        -0.1413
     18 C14         1.2907   -7.4536    3.2934 C.2       1 <0>         0.5714
     19 O2          0.8103   -7.5027    4.4091 O.2       1 <0>        -0.5168
     20 N4          0.4724   -7.6719    2.2751 N.am      1 <0>        -0.6527
     21 C15         0.8031   -7.6933    0.9234 C.ar      1 <0>         0.1066
     22 C16         1.6928   -6.7786    0.3792 C.ar      1 <0>         0.3179
     23 N5          1.9273   -6.7785   -0.9260 N.ar      1 <0>        -0.4679
     24 C17         1.3685   -7.6566   -1.7356 C.ar      1 <0>         0.1140
     25 C18         0.5081   -8.6211   -1.2507 C.ar      1 <0>        -0.1400
     26 C19         0.2190   -8.6455    0.0935 C.ar      1 <0>        -0.0822
     27 H1          1.0047    1.8421    0.0024 H         1 <0>         0.0275
     28 H2         -0.5450    1.8259   -0.8730 H         1 <0>         0.0690
     29 H3         -0.5280    1.8163    0.9069 H         1 <0>         0.0692
     30 H4          0.0565   -0.1241   -2.0954 H         1 <0>         0.0824
     31 H5          1.6447   -0.1994   -1.2942 H         1 <0>         0.0451
     32 H6         -0.5098   -2.3609   -1.2128 H         1 <0>         0.0448
     33 H7          1.0041   -2.4277   -2.1472 H         1 <0>         0.0835
     34 H8         -0.4053   -2.3729    1.2329 H         1 <0>         0.0384
     35 H9          1.1828   -2.4483    2.0340 H         1 <0>         0.0945
     36 H10         1.7492   -0.2115    1.1515 H         1 <0>         0.0462
     37 H11         0.2352   -0.1447    2.0859 H         1 <0>         0.0803
     38 H12         0.2519   -4.4152    0.1146 H         1 <0>         0.0611
     39 H13         1.6043   -4.3905   -1.0424 H         1 <0>         0.1222
     40 H14         4.9398   -5.3192    1.3995 H         1 <0>         0.1359
     41 H15         6.4613   -6.2003    3.1169 H         1 <0>         0.1387
     42 H16         5.6185   -7.7193    4.8587 H         1 <0>         0.1391
     43 H17         3.2419   -8.3300    4.9256 H         1 <0>         0.1408
     44 H18        -0.4582   -7.8347    2.4953 H         1 <0>         0.4144
     45 H19         1.5866   -7.6205   -2.7927 H         1 <0>         0.1727
     46 H20         0.0697   -9.3478   -1.9185 H         1 <0>         0.1527
     47 H21        -0.4542   -9.3885    0.4949 H         1 <0>         0.1514
@<TRIPOS>BOND
     1    1    2 1
     2    1   27 1
     3    1   28 1
     4    1   29 1
     5    2    7 1
     6    2    3 1
     7    3    4 1
     8    3   30 1
     9    3   31 1
    10    4    5 1
    11    4   32 1
    12    4   33 1
    13    5    6 1
    14    5    8 1
    15    6    7 1
    16    6   34 1
    17    6   35 1
    18    7   36 1
    19    7   37 1
    20    8    9 1
    21    8   38 1
    22    8   39 1
    23    9   10 2
    24    9   11 am
    25   11   22 1
    26   11   12 1
    27   12   17 ar
    28   12   13 ar
    29   13   14 ar
    30   13   40 1
    31   14   15 ar
    32   14   41 1
    33   15   16 ar
    34   15   42 1
    35   16   17 ar
    36   16   43 1
    37   17   18 1
    38   18   19 2
    39   18   20 am
    40   20   21 1
    41   20   44 1
    42   21   26 ar
    43   21   22 ar
    44   22   23 ar
    45   23   24 ar
    46   24   25 ar
    47   24   45 1
    48   25   26 ar
    49   25   46 1
    50   26   47 1
