@<TRIPOS>MOLECULE
ZINC05160057
   40    41     0     0     0
SMALL
USER_CHARGES
1-[2-(3-pyrrolidin-1-ylprop-1-ynyl)-1-piperidyl]ethanone
@<TRIPOS>ATOM
      1 C1          7.8536    1.1026    2.1619 C.3       1 <0>        -0.1818
      2 C2          7.1213    2.1564    1.3718 C.2       1 <0>         0.5181
      3 O1          7.3539    2.2993    0.1901 O.2       1 <0>        -0.5360
      4 N1          6.2079    2.9401    1.9784 N.am      1 <0>        -0.6121
      5 C3          5.8368    2.7092    3.3812 C.3       1 <0>         0.0993
      6 C4          6.0130    4.0169    4.1594 C.3       1 <0>        -0.1407
      7 C5          5.2137    5.1265    3.4723 C.3       1 <0>        -0.1226
      8 C6          5.7438    5.3346    2.0518 C.3       1 <0>        -0.1261
      9 C7          5.5646    4.0418    1.2497 C.3       1 <0>         0.2329
     10 H1          6.0271    4.1532    0.2689 H         1 <0>         0.1337
     11 C8          4.1297    3.7558    1.0889 C.1       1 <0>        -0.0464
     12 C9          2.9852    3.5276    0.9607 C.1       1 <0>        -0.2749
     13 C10         1.5503    3.2415    0.7999 C.3       1 <0>         0.1452
     14 C11        -0.0278    1.5530    0.0507 C.3       1 <0>        -0.0091
     15 C12        -0.0119    0.0132    0.0482 C.3       1 <0>        -0.1466
     16 C13         1.4845   -0.3751    0.0574 C.3       1 <0>        -0.1468
     17 C14         2.1679    0.8926    0.6287 C.3       1 <0>        -0.0049
     18 H2          7.4475    1.0584    3.1725 H         1 <0>         0.0859
     19 H3          7.7296    0.1339    1.6778 H         1 <0>         0.0993
     20 H4          8.9135    1.3532    2.2069 H         1 <0>         0.1040
     21 H5          6.4811    1.9405    3.8078 H         1 <0>         0.1023
     22 H6          4.7965    2.3887    3.4360 H         1 <0>         0.0663
     23 H7          7.0684    4.2885    4.1804 H         1 <0>         0.0765
     24 H8          5.6507    3.8857    5.1791 H         1 <0>         0.0833
     25 H9          5.3175    6.0524    4.0379 H         1 <0>         0.0779
     26 H10         4.1621    4.8430    3.4295 H         1 <0>         0.0614
     27 H11         6.8018    5.5937    2.0926 H         1 <0>         0.0893
     28 H12         5.1897    6.1408    1.5711 H         1 <0>         0.0848
     29 H13         1.0726    4.0657    0.2702 H         1 <0>         0.1504
     30 H14         1.0907    3.1255    1.7814 H         1 <0>         0.1444
     31 H15        -0.5472    1.9204   -0.8343 H         1 <0>         0.1365
     32 H16        -0.5207    1.9178    0.9519 H         1 <0>         0.1335
     33 H17        -0.5080   -0.3717    0.9391 H         1 <0>         0.1040
     34 H18        -0.4979   -0.3687   -0.8496 H         1 <0>         0.1061
     35 H19         1.6566   -1.2325    0.7080 H         1 <0>         0.1158
     36 H20         1.8359   -0.5802   -0.9538 H         1 <0>         0.0982
     37 H21         2.0949    0.9121    1.7160 H         1 <0>         0.1315
     38 H22         3.2101    0.9431    0.3134 H         1 <0>         0.1315
     39 N2          1.3778    1.9738    0.0285 N.4       1 <0>        -0.3970
     40 H23         1.6796    2.1261   -0.9410 H         1 <0>         0.4329
@<TRIPOS>BOND
     1    1    2 1
     2    1   18 1
     3    1   19 1
     4    1   20 1
     5    2    3 2
     6    2    4 am
     7    4    9 1
     8    4    5 1
     9    5    6 1
    10    5   21 1
    11    5   22 1
    12    6    7 1
    13    6   23 1
    14    6   24 1
    15    7    8 1
    16    7   25 1
    17    7   26 1
    18    8    9 1
    19    8   27 1
    20    8   28 1
    21    9   10 1
    22    9   11 1
    23   11   12 3
    24   12   13 1
    25   13   29 1
    26   13   30 1
    27   13   39 1
    28   14   15 1
    29   14   31 1
    30   14   32 1
    31   14   39 1
    32   15   16 1
    33   15   33 1
    34   15   34 1
    35   16   17 1
    36   16   35 1
    37   16   36 1
    38   17   37 1
    39   17   38 1
    40   17   39 1
    41   39   40 1
@<TRIPOS>MOLECULE
ZINC05160067
   40    41     0     0     0
SMALL
USER_CHARGES
1-[2-(3-pyrrolidin-1-ylprop-1-ynyl)-1-piperidyl]ethanone
@<TRIPOS>ATOM
      1 C1         -4.6353    2.4818   -1.2400 C.3       1 <0>        -0.1852
      2 C2         -4.0129    2.0178    0.0517 C.2       1 <0>         0.5251
      3 O1         -4.5822    2.2149    1.1043 O.2       1 <0>        -0.5553
      4 N1         -2.8236    1.3839    0.0372 N.am      1 <0>        -0.6089
      5 C3         -2.1802    1.0285   -1.2350 C.3       1 <0>         0.0978
      6 C4         -0.7561    1.5929   -1.2419 C.3       1 <0>        -0.1410
      7 C5         -0.0098    1.0987   -0.0005 C.3       1 <0>        -0.1231
      8 C6         -0.7222    1.5998    1.2579 C.3       1 <0>        -0.1268
      9 C7         -2.1457    1.0355    1.2932 C.3       1 <0>         0.2445
     10 H1         -2.1065   -0.0487    1.3988 H         1 <0>         0.1072
     11 C8         -2.8815    1.6156    2.4285 C.1       1 <0>        -0.0380
     12 C9         -3.4684    2.0782    3.3340 C.1       1 <0>        -0.2555
     13 C10        -4.2042    2.6583    4.4692 C.3       1 <0>         0.1520
     14 C11        -2.0858    2.6746    5.6694 C.3       1 <0>         0.0005
     15 C12        -1.6801    2.7397    7.1632 C.3       1 <0>        -0.1474
     16 C13        -2.9315    3.3501    7.8351 C.3       1 <0>        -0.1456
     17 C14        -4.0902    3.0644    6.8619 C.3       1 <0>        -0.0105
     18 H2         -4.0304    2.1377   -2.0789 H         1 <0>         0.0882
     19 H3         -5.6419    2.0726   -1.3259 H         1 <0>         0.0988
     20 H4         -4.6837    3.5707   -1.2495 H         1 <0>         0.0999
     21 H5         -2.7465    1.4556   -2.0627 H         1 <0>         0.1025
     22 H6         -2.1440   -0.0560   -1.3382 H         1 <0>         0.0809
     23 H7         -0.7964    2.6821   -1.2326 H         1 <0>         0.0716
     24 H8         -0.2353    1.2553   -2.1379 H         1 <0>         0.0875
     25 H9          0.0086    0.0089    0.0022 H         1 <0>         0.0724
     26 H10         1.0115    1.4791   -0.0154 H         1 <0>         0.0796
     27 H11        -0.1773    1.2671    2.1413 H         1 <0>         0.0856
     28 H12        -0.7628    2.6890    1.2436 H         1 <0>         0.0747
     29 H13        -4.2379    3.7427    4.3644 H         1 <0>         0.1381
     30 H14        -5.2199    2.2629    4.4840 H         1 <0>         0.1433
     31 H15        -1.5130    1.9076    5.1482 H         1 <0>         0.1332
     32 H16        -1.9538    3.6457    5.1922 H         1 <0>         0.1288
     33 H17        -0.8142    3.3876    7.2999 H         1 <0>         0.1139
     34 H18        -1.4814    1.7413    7.5528 H         1 <0>         0.0965
     35 H19        -2.8041    4.4246    7.9666 H         1 <0>         0.1029
     36 H20        -3.1172    2.8700    8.7959 H         1 <0>         0.1042
     37 H21        -4.5183    4.0025    6.5086 H         1 <0>         0.1316
     38 H22        -4.8550    2.4684    7.3599 H         1 <0>         0.1336
     39 N2         -3.5103    2.3145    5.7468 N.4       1 <0>        -0.3937
     40 H23        -3.6045    1.3069    5.9204 H         1 <0>         0.4358
@<TRIPOS>BOND
     1    1    2 1
     2    1   18 1
     3    1   19 1
     4    1   20 1
     5    2    3 2
     6    2    4 am
     7    4    9 1
     8    4    5 1
     9    5    6 1
    10    5   21 1
    11    5   22 1
    12    6    7 1
    13    6   23 1
    14    6   24 1
    15    7    8 1
    16    7   25 1
    17    7   26 1
    18    8    9 1
    19    8   27 1
    20    8   28 1
    21    9   10 1
    22    9   11 1
    23   11   12 3
    24   12   13 1
    25   13   29 1
    26   13   30 1
    27   13   39 1
    28   14   15 1
    29   14   31 1
    30   14   32 1
    31   14   39 1
    32   15   16 1
    33   15   33 1
    34   15   34 1
    35   16   17 1
    36   16   35 1
    37   16   36 1
    38   17   37 1
    39   17   38 1
    40   17   39 1
    41   39   40 1
@<TRIPOS>MOLECULE
ZINC00020245
   46    48     0     0     0
SMALL
USER_CHARGES

@<TRIPOS>ATOM
      1 C1         -5.6836    1.3838    0.0162 C.3       1 <0>        -0.0473
      2 N1         -5.6620   -0.0833   -0.0564 N.4       1 <0>        -0.3868
      3 C2         -6.3713   -0.5242   -1.2649 C.3       1 <0>        -0.0522
      4 C3         -4.2702   -0.5505   -0.1076 C.3       1 <0>        -0.0086
      5 C4         -4.2434   -2.0795   -0.0575 C.3       1 <0>        -0.1781
      6 C5         -2.7938   -2.5661   -0.1108 C.3       1 <0>         0.1490
      7 N2         -2.7704   -4.0309   -0.1190 N.pl3     1 <0>        -0.6108
      8 C6         -2.7295   -4.7451   -1.3212 C.ar      1 <0>         0.1758
      9 C7         -1.6865   -4.4783   -2.2022 C.ar      1 <0>        -0.1411
     10 C8         -1.5734   -5.1772   -3.3856 C.ar      1 <0>        -0.1022
     11 C9         -2.5089   -6.1508   -3.6854 C.ar      1 <0>        -0.1266
     12 C10        -3.5489   -6.4041   -2.8209 C.ar      1 <0>        -0.1101
     13 C11        -3.6933   -5.6947   -1.6266 C.ar      1 <0>        -0.0998
     14 C12        -4.9357   -6.0340   -0.8354 C.3       1 <0>        -0.0687
     15 C13        -5.1005   -5.1892    0.4158 C.3       1 <0>        -0.0773
     16 C14        -3.9592   -5.4030    1.3779 C.ar      1 <0>        -0.0996
     17 C15        -2.7824   -4.7590    1.0748 C.ar      1 <0>         0.1523
     18 C16        -1.6837   -4.8488    1.9126 C.ar      1 <0>        -0.1184
     19 C17        -1.7825   -5.6251    3.0560 C.ar      1 <0>        -0.1094
     20 C18        -2.9565   -6.2950    3.3488 C.ar      1 <0>        -0.1165
     21 C19        -4.0679   -6.1865    2.5030 C.ar      1 <0>        -0.1028
     22 H1         -6.7163    1.7305    0.0542 H         1 <0>         0.1245
     23 H2         -5.1573    1.7109    0.9129 H         1 <0>         0.1235
     24 H3         -5.1933    1.7984   -0.8646 H         1 <0>         0.1221
     25 H4         -6.3552   -1.6128   -1.3188 H         1 <0>         0.1231
     26 H5         -7.4040   -0.1775   -1.2269 H         1 <0>         0.1246
     27 H6         -5.8810   -0.1096   -2.1457 H         1 <0>         0.1227
     28 H7         -3.8061   -0.2091   -1.0329 H         1 <0>         0.1308
     29 H8         -3.7207   -0.1494    0.7440 H         1 <0>         0.1320
     30 H9         -4.7075   -2.4209    0.8678 H         1 <0>         0.0908
     31 H10        -4.7929   -2.4806   -0.9091 H         1 <0>         0.0915
     32 H11        -2.3174   -2.1901   -1.0161 H         1 <0>         0.0824
     33 H12        -2.2550   -2.1990    0.7627 H         1 <0>         0.0801
     34 H13        -0.9599   -3.7176   -1.9576 H         1 <0>         0.1215
     35 H14        -0.7646   -4.9667   -4.0697 H         1 <0>         0.1276
     36 H15        -2.4229   -6.7145   -4.6025 H         1 <0>         0.1250
     37 H16        -4.2693   -7.1687   -3.0712 H         1 <0>         0.1222
     38 H17        -5.8074   -5.8880   -1.4734 H         1 <0>         0.0793
     39 H18        -4.8898   -7.0837   -0.5452 H         1 <0>         0.0765
     40 H19        -5.1365   -4.1371    0.1334 H         1 <0>         0.0724
     41 H20        -6.0358   -5.4578    0.9068 H         1 <0>         0.0709
     42 H21        -0.7686   -4.3248    1.6795 H         1 <0>         0.1257
     43 H22        -0.9372   -5.7074    3.7231 H         1 <0>         0.1275
     44 H23        -3.0178   -6.9071    4.2365 H         1 <0>         0.1269
     45 H24        -4.9880   -6.7067    2.7249 H         1 <0>         0.1290
     46 H25        -6.1159   -0.4671    0.7589 H         1 <0>         0.4268
@<TRIPOS>BOND
     1    1    2 1
     2    1   22 1
     3    1   23 1
     4    1   24 1
     5    2    3 1
     6    2    4 1
     7    2   46 1
     8    3   25 1
     9    3   26 1
    10    3   27 1
    11    4    5 1
    12    4   28 1
    13    4   29 1
    14    5    6 1
    15    5   30 1
    16    5   31 1
    17    6    7 1
    18    6   32 1
    19    6   33 1
    20    7   17 1
    21    7    8 1
    22    8   13 ar
    23    8    9 ar
    24    9   10 ar
    25    9   34 1
    26   10   11 ar
    27   10   35 1
    28   11   12 ar
    29   11   36 1
    30   12   13 ar
    31   12   37 1
    32   13   14 1
    33   14   15 1
    34   14   38 1
    35   14   39 1
    36   15   16 1
    37   15   40 1
    38   15   41 1
    39   16   21 ar
    40   16   17 ar
    41   17   18 ar
    42   18   19 ar
    43   18   42 1
    44   19   20 ar
    45   19   43 1
    46   20   21 ar
    47   20   44 1
    48   21   45 1
@<TRIPOS>MOLECULE
ZINC01851873
   31    32     0     0     0
SMALL
USER_CHARGES
1-[4-(1-methyl-1-azoniacycloprop-1-yl)but-2-ynyl]pyrrolidin-2-one
@<TRIPOS>ATOM
      1 C1         -1.3361    2.9013   -1.0538 C.3       1 <0>        -0.0206
      2 N1         -0.7232    1.5724   -1.1821 N.4       1 <0>        -0.3499
      3 C2         -1.4464    0.5764   -1.9838 C.3       1 <0>        -0.0045
      4 C3         -0.1562    1.2204   -2.4907 C.3       1 <0>         0.0008
      5 C4         -0.0127    1.0858    0.0080 C.3       1 <0>         0.1609
      6 C5         -0.7017    1.5605    1.2191 C.1       1 <0>        -0.2588
      7 C6         -1.2512    1.9391    2.1850 C.1       1 <0>        -0.0718
      8 C7         -1.9402    2.4139    3.3961 C.3       1 <0>         0.2178
      9 N2         -1.2316    1.9286    4.5829 N.am      1 <0>        -0.6243
     10 C8         -1.5211    0.6581    5.2584 C.3       1 <0>         0.0986
     11 C9         -0.2830    0.3707    6.1396 C.3       1 <0>        -0.1325
     12 C10         0.2687    1.7952    6.3789 C.3       1 <0>        -0.1566
     13 C11        -0.2368    2.5923    5.1966 C.2       1 <0>         0.5206
     14 O1          0.1928    3.6731    4.8527 O.2       1 <0>        -0.5256
     15 H1         -0.5964    3.6668   -1.2885 H         1 <0>         0.1207
     16 H2         -2.1751    2.9827   -1.7448 H         1 <0>         0.1234
     17 H3         -1.6915    3.0405   -0.0328 H         1 <0>         0.1217
     18 H4         -1.3989   -0.4636   -1.6610 H         1 <0>         0.1682
     19 H5         -2.3825    0.8850   -2.4492 H         1 <0>         0.1678
     20 H6         -0.2385    1.9552   -3.2916 H         1 <0>         0.1699
     21 H7          0.7459    0.6087   -2.5028 H         1 <0>         0.1705
     22 H8          0.0021   -0.0041    0.0020 H         1 <0>         0.1469
     23 H9          1.0099    1.4631    0.0003 H         1 <0>         0.1451
     24 H10        -1.9550    3.5037    3.4021 H         1 <0>         0.1221
     25 H11        -2.9628    2.0366    3.4038 H         1 <0>         0.1232
     26 H12        -2.4134    0.7545    5.8769 H         1 <0>         0.0839
     27 H13        -1.6536   -0.1373    4.5251 H         1 <0>         0.0805
     28 H14         0.4436   -0.2450    5.6094 H         1 <0>         0.0829
     29 H15        -0.5758   -0.0972    7.0795 H         1 <0>         0.0993
     30 H16         1.3585    1.7847    6.3940 H         1 <0>         0.1067
     31 H17        -0.1209    2.2059    7.3104 H         1 <0>         0.1132
@<TRIPOS>BOND
     1    1    2 1
     2    1   15 1
     3    1   16 1
     4    1   17 1
     5    2    4 1
     6    2    3 1
     7    2    5 1
     8    3    4 1
     9    3   18 1
    10    3   19 1
    11    4   20 1
    12    4   21 1
    13    5    6 1
    14    5   22 1
    15    5   23 1
    16    6    7 3
    17    7    8 1
    18    8    9 1
    19    8   24 1
    20    8   25 1
    21    9   13 am
    22    9   10 1
    23   10   11 1
    24   10   26 1
    25   10   27 1
    26   11   12 1
    27   11   28 1
    28   11   29 1
    29   12   13 1
    30   12   30 1
    31   12   31 1
    32   13   14 2
@<TRIPOS>MOLECULE
ZINC00968257
   45    47     0     0     0
SMALL
USER_CHARGES

@<TRIPOS>ATOM
      1 C1         -0.0178    1.4648    0.0101 C.3       1 <0>        -0.0532
      2 N1          0.0021   -0.0041    0.0020 N.4       1 <0>        -0.3871
      3 C2         -1.3761   -0.5125    0.0124 C.3       1 <0>        -0.0473
      4 C3          0.6897   -0.4778   -1.2066 C.3       1 <0>        -0.0075
      5 C4          2.1588   -0.0534   -1.1571 C.3       1 <0>        -0.1202
      6 C5          2.8641   -0.5394   -2.3970 C.2       1 <0>        -0.1679
      7 C6          3.5250    0.3270   -3.1738 C.2       1 <0>         0.0063
      8 C7          3.5927    1.7771   -2.8453 C.ar      1 <0>        -0.0588
      9 C8          4.0673    2.1470   -1.5880 C.ar      1 <0>        -0.1130
     10 C9          4.1752    3.4781   -1.2462 C.ar      1 <0>        -0.1230
     11 C10         3.8096    4.4415   -2.1695 C.ar      1 <0>        -0.1074
     12 C11         3.3311    4.0773   -3.4068 C.ar      1 <0>        -0.1261
     13 C12         3.1954    2.7364   -3.7740 C.ar      1 <0>        -0.0534
     14 C13         2.5869    2.5170   -5.1377 C.3       1 <0>        -0.0764
     15 C14         2.3799    1.0595   -5.4939 C.3       1 <0>        -0.0807
     16 C15         3.6776    0.3005   -5.5991 C.ar      1 <0>        -0.0737
     17 C16         4.2334   -0.1117   -4.4047 C.ar      1 <0>        -0.0690
     18 C17         5.3905   -0.8775   -4.3777 C.ar      1 <0>        -0.0956
     19 C18         6.0025   -1.1900   -5.5806 C.ar      1 <0>        -0.1191
     20 C19         5.4694   -0.7426   -6.7762 C.ar      1 <0>        -0.1081
     21 C20         4.2868    0.0121   -6.7962 C.ar      1 <0>        -0.1083
     22 H1          1.0047    1.8421    0.0024 H         1 <0>         0.1238
     23 H2         -0.5450    1.8259   -0.8730 H         1 <0>         0.1221
     24 H3         -0.5280    1.8163    0.9069 H         1 <0>         0.1250
     25 H4         -1.9033   -0.1515   -0.8706 H         1 <0>         0.1216
     26 H5         -1.3613   -1.6024    0.0065 H         1 <0>         0.1236
     27 H6         -1.8863   -0.1610    0.9092 H         1 <0>         0.1246
     28 H7          0.6270   -1.5648   -1.2578 H         1 <0>         0.1321
     29 H8          0.2158   -0.0447   -2.0875 H         1 <0>         0.1294
     30 H9          2.2214    1.0336   -1.1059 H         1 <0>         0.0996
     31 H10         2.6326   -0.4865   -0.2761 H         1 <0>         0.0954
     32 H11         2.8363   -1.5868   -2.6585 H         1 <0>         0.1308
     33 H12         4.3519    1.3857   -0.8767 H         1 <0>         0.1233
     34 H13         4.5405    3.7651   -0.2712 H         1 <0>         0.1290
     35 H14         3.9003    5.4876   -1.9168 H         1 <0>         0.1264
     36 H15         3.0534    4.8470   -4.1116 H         1 <0>         0.1247
     37 H16         1.6223    3.0233   -5.1729 H         1 <0>         0.0854
     38 H17         3.2393    2.9678   -5.8855 H         1 <0>         0.0834
     39 H18         1.7604    0.5939   -4.7274 H         1 <0>         0.0703
     40 H19         1.8587    1.0007   -6.4494 H         1 <0>         0.0792
     41 H20         5.8038   -1.2219   -3.4413 H         1 <0>         0.1267
     42 H21         6.9025   -1.7870   -5.5850 H         1 <0>         0.1278
     43 H22         5.9677   -0.9772   -7.7052 H         1 <0>         0.1274
     44 H23         3.8663    0.3630   -7.7270 H         1 <0>         0.1314
     45 H24         0.4901   -0.3383    0.8195 H         1 <0>         0.4266
@<TRIPOS>BOND
     1    1    2 1
     2    1   22 1
     3    1   23 1
     4    1   24 1
     5    2    3 1
     6    2    4 1
     7    2   45 1
     8    3   25 1
     9    3   26 1
    10    3   27 1
    11    4    5 1
    12    4   28 1
    13    4   29 1
    14    5    6 1
    15    5   30 1
    16    5   31 1
    17    6    7 2
    18    6   32 1
    19    7   17 1
    20    7    8 1
    21    8   13 ar
    22    8    9 ar
    23    9   10 ar
    24    9   33 1
    25   10   11 ar
    26   10   34 1
    27   11   12 ar
    28   11   35 1
    29   12   13 ar
    30   12   36 1
    31   13   14 1
    32   14   15 1
    33   14   37 1
    34   14   38 1
    35   15   16 1
    36   15   39 1
    37   15   40 1
    38   16   21 ar
    39   16   17 ar
    40   17   18 ar
    41   18   19 ar
    42   18   41 1
    43   19   20 ar
    44   19   42 1
    45   20   21 ar
    46   20   43 1
    47   21   44 1
@<TRIPOS>MOLECULE
ZINC00000504
   41    44     0     0     0
SMALL
USER_CHARGES

@<TRIPOS>ATOM
      1 C1         -0.0178    1.4648    0.0101 C.3       1 <0>        -0.0457
      2 N1          0.0021   -0.0041    0.0020 N.4       1 <0>        -0.3851
      3 C2         -1.3782   -0.5248    0.0610 C.3       1 <0>        -0.0107
      4 C3         -1.3147   -2.0017   -0.3247 C.3       1 <0>         0.1097
      5 N2         -0.2536   -2.6823    0.4304 N.pl3     1 <0>        -0.6570
      6 C4         -0.1632   -4.0681    0.2474 C.ar      1 <0>         0.1515
      7 C5          0.1651   -4.5655   -1.0110 C.ar      1 <0>        -0.1283
      8 C6          0.3219   -5.9257   -1.1894 C.ar      1 <0>        -0.1053
      9 C7          0.1595   -6.7897   -0.1216 C.ar      1 <0>        -0.1122
     10 C8         -0.1903   -6.2968    1.1226 C.ar      1 <0>        -0.0978
     11 C9         -0.3794   -4.9379    1.2936 C.ar      1 <0>        -0.0863
     12 C10        -0.9055   -4.4020    2.5876 C.3       1 <0>        -0.0401
     13 C11         0.0255   -3.4607    3.2849 C.ar      1 <0>        -0.0434
     14 C12         0.2033   -3.7275    4.6483 C.ar      1 <0>        -0.1164
     15 C13         1.0009   -2.9352    5.4386 C.ar      1 <0>        -0.1037
     16 C14         1.6407   -1.8450    4.8776 C.ar      1 <0>        -0.1092
     17 C15         1.4792   -1.5873    3.5373 C.ar      1 <0>        -0.1345
     18 C16         0.6836   -2.4040    2.7249 C.ar      1 <0>        -0.1120
     19 C17         0.6957   -2.0166    1.2712 C.3       1 <0>         0.2145
     20 H1          1.6762   -2.3177    0.9022 H         1 <0>         0.0814
     21 C18         0.7079   -0.4980    1.1840 C.3       1 <0>        -0.0096
     22 H2          1.0047    1.8421    0.0024 H         1 <0>         0.1256
     23 H3         -0.5450    1.8259   -0.8730 H         1 <0>         0.1278
     24 H4         -0.5280    1.8163    0.9069 H         1 <0>         0.1233
     25 H5         -1.7720   -0.4210    1.0720 H         1 <0>         0.1359
     26 H6         -2.0104    0.0166   -0.6429 H         1 <0>         0.1459
     27 H7         -2.2727   -2.4732   -0.1054 H         1 <0>         0.1007
     28 H8         -1.1096   -2.0872   -1.3918 H         1 <0>         0.0828
     29 H9          0.2970   -3.8905   -1.8436 H         1 <0>         0.1222
     30 H10         0.5722   -6.3158   -2.1649 H         1 <0>         0.1292
     31 H11         0.3058   -7.8509   -0.2596 H         1 <0>         0.1304
     32 H12        -0.3156   -6.9709    1.9570 H         1 <0>         0.1304
     33 H13        -1.8427   -3.8810    2.3915 H         1 <0>         0.0851
     34 H14        -1.1118   -5.2412    3.2519 H         1 <0>         0.0847
     35 H15        -0.2988   -4.5760    5.0892 H         1 <0>         0.1275
     36 H16         1.1270   -3.1618    6.4870 H         1 <0>         0.1317
     37 H17         2.2602   -1.2030    5.4861 H         1 <0>         0.1308
     38 H18         1.9776   -0.7345    3.1006 H         1 <0>         0.1191
     39 H19         1.7417   -0.1544    1.1475 H         1 <0>         0.1407
     40 H20         0.2329   -0.0891    2.0758 H         1 <0>         0.1370
     41 H21         0.4593   -0.3360   -0.8339 H         1 <0>         0.4294
@<TRIPOS>BOND
     1    1    2 1
     2    1   22 1
     3    1   23 1
     4    1   24 1
     5    2   21 1
     6    2    3 1
     7    2   41 1
     8    3    4 1
     9    3   25 1
    10    3   26 1
    11    4    5 1
    12    4   27 1
    13    4   28 1
    14    5   19 1
    15    5    6 1
    16    6   11 ar
    17    6    7 ar
    18    7    8 ar
    19    7   29 1
    20    8    9 ar
    21    8   30 1
    22    9   10 ar
    23    9   31 1
    24   10   11 ar
    25   10   32 1
    26   11   12 1
    27   12   13 1
    28   12   33 1
    29   12   34 1
    30   13   18 ar
    31   13   14 ar
    32   14   15 ar
    33   14   35 1
    34   15   16 ar
    35   15   36 1
    36   16   17 ar
    37   16   37 1
    38   17   18 ar
    39   17   38 1
    40   18   19 1
    41   19   20 1
    42   19   21 1
    43   21   39 1
    44   21   40 1
