@<TRIPOS>MOLECULE
ZINC10269851
   37    39     0     0     0
SMALL
USER_CHARGES
(4-thiazol-2-ylpiperazin-1-yl)-[2-(trifluoromethyl)phenyl]-methanone
@<TRIPOS>ATOM
      1 C1          0.1966   -2.5251   -0.7041 C.ar      1 <0>        -0.0922
      2 C2          1.2207   -2.0704    0.1080 C.ar      1 <0>        -0.0952
      3 C3          1.0435   -0.9422    0.8888 C.ar      1 <0>        -0.0767
      4 C4         -0.1610   -0.2694    0.8710 C.ar      1 <0>        -0.1338
      5 C5         -1.1978   -0.7227    0.0543 C.ar      1 <0>        -0.0851
      6 C6         -1.0105   -1.8585   -0.7355 C.ar      1 <0>        -0.0983
      7 C7         -2.4889   -0.0030    0.0253 C.2       1 <0>         0.5515
      8 O1         -2.5096    1.2108    0.0866 O.2       1 <0>        -0.5050
      9 N1         -3.6430   -0.6927   -0.0691 N.am      1 <0>        -0.6085
     10 C8         -3.6444   -2.1634   -0.0848 C.3       1 <0>         0.0981
     11 C9         -4.6415   -2.6557    0.9761 C.3       1 <0>         0.0386
     12 N2         -5.9498   -2.0314    0.7382 N.pl3     1 <0>        -0.4311
     13 C10        -5.8799   -0.5722    0.8928 C.3       1 <0>         0.0522
     14 C11        -4.9340    0.0055   -0.1654 C.3       1 <0>         0.1161
     15 C12        -6.9173   -2.5732    1.5697 C.2       1 <0>         0.2566
     16 N3         -7.7148   -1.9599    2.4233 N.2       1 <0>        -0.5484
     17 C13        -8.5924   -2.6337    3.1430 C.2       1 <0>         0.0507
     18 C14        -8.6519   -3.9787    2.9956 C.2       1 <0>        -0.2305
     19 S1         -7.3858   -4.2343    1.7608 S.3       1 <0>         0.0638
     20 C15        -0.3543    0.9557    1.7269 C.3       1 <0>         0.5050
     21 F1          0.8163    1.2090    2.4499 F         1 <0>        -0.1795
     22 F2         -0.6449    2.0539    0.9104 F         1 <0>        -0.1506
     23 F3         -1.4139    0.7416    2.6150 F         1 <0>        -0.1768
     24 H1          0.3430   -3.4037   -1.3149 H         1 <0>         0.1430
     25 H2          2.1641   -2.5958    0.1286 H         1 <0>         0.1430
     26 H3          1.8483   -0.5899    1.5170 H         1 <0>         0.1474
     27 H4         -1.8089   -2.2142   -1.3699 H         1 <0>         0.1465
     28 H5         -3.9476   -2.5188   -1.0696 H         1 <0>         0.0917
     29 H6         -2.6461   -2.5330    0.1496 H         1 <0>         0.1100
     30 H7         -4.2840   -2.3839    1.9693 H         1 <0>         0.0628
     31 H8         -4.7378   -3.7393    0.9078 H         1 <0>         0.1013
     32 H9         -5.5051   -0.3294    1.8871 H         1 <0>         0.0627
     33 H10        -6.8742   -0.1448    0.7640 H         1 <0>         0.1064
     34 H11        -4.7887    1.0705    0.0157 H         1 <0>         0.1095
     35 H12        -5.3571   -0.1426   -1.1589 H         1 <0>         0.0852
     36 H13        -9.2449   -2.1247    3.8369 H         1 <0>         0.1711
     37 H14        -9.2886   -4.6983    3.4886 H         1 <0>         0.1984
@<TRIPOS>BOND
     1    1    6 ar
     2    1    2 ar
     3    1   24 1
     4    2    3 ar
     5    2   25 1
     6    3    4 ar
     7    3   26 1
     8    4    5 ar
     9    4   20 1
    10    5    6 ar
    11    5    7 1
    12    6   27 1
    13    7    8 2
    14    7    9 am
    15    9   14 1
    16    9   10 1
    17   10   11 1
    18   10   28 1
    19   10   29 1
    20   11   12 1
    21   11   30 1
    22   11   31 1
    23   12   13 1
    24   12   15 1
    25   13   14 1
    26   13   32 1
    27   13   33 1
    28   14   34 1
    29   14   35 1
    30   15   19 1
    31   15   16 2
    32   16   17 1
    33   17   18 2
    34   17   36 1
    35   18   19 1
    36   18   37 1
    37   20   21 1
    38   20   22 1
    39   20   23 1
@<TRIPOS>MOLECULE
ZINC45254195
   39    41     0     0     0
SMALL
USER_CHARGES

@<TRIPOS>ATOM
      1 C1          0.5953    1.3734    1.0672 C.ar      1 <0>        -0.0891
      2 C2          1.1720    2.0861    0.0306 C.ar      1 <0>        -0.1015
      3 C3          1.7741    1.4216   -1.0228 C.ar      1 <0>        -0.0756
      4 C4          1.8028    0.0423   -1.0463 C.ar      1 <0>        -0.1423
      5 C5          1.2230   -0.6825   -0.0041 C.ar      1 <0>        -0.0749
      6 C6          0.6175   -0.0057    1.0561 C.ar      1 <0>        -0.0909
      7 C7          1.2496   -2.1606   -0.0230 C.2       1 <0>         0.5493
      8 O1          2.3077   -2.7480   -0.1368 O.2       1 <0>        -0.5104
      9 N1          0.1007   -2.8567    0.0860 N.am      1 <0>        -0.5992
     10 C8         -1.1953   -2.1638    0.0985 C.3       1 <0>         0.0879
     11 C9         -2.0749   -2.7496   -1.0130 C.3       1 <0>         0.1196
     12 N2         -2.0542   -4.2151   -0.9051 N.pl3     1 <0>        -0.5737
     13 C10        -0.7582   -4.9080   -0.9176 C.3       1 <0>         0.1162
     14 C11         0.1211   -4.3226    0.1883 C.3       1 <0>         0.0977
     15 C12        -3.2279   -4.9263   -0.7938 C.2       1 <0>         0.2702
     16 N3         -4.4666   -4.4625   -0.7725 N.2       1 <0>        -0.5875
     17 C13        -5.4940   -5.2630   -0.6614 C.2       1 <0>         0.0857
     18 C14        -5.2102   -6.6219   -0.5675 C.2       1 <0>        -0.2393
     19 S1         -3.4270   -6.5920   -0.6600 S.3       1 <0>         0.1033
     20 C15        -6.0890   -7.7207   -0.4391 C.2       1 <0>         0.5583
     21 O2         -7.2998   -7.5353   -0.3969 O.co2     1 <0>        -0.6760
     22 O3         -5.6405   -8.8592   -0.3700 O.co2     1 <0>        -0.6869
     23 C16         2.4582   -0.6799   -2.1951 C.3       1 <0>         0.5022
     24 F1          2.9616    0.2541   -3.1069 F         1 <0>        -0.1790
     25 F2          3.5059   -1.4711   -1.7118 F         1 <0>        -0.1544
     26 F3          1.5157   -1.4933   -2.8333 F         1 <0>        -0.1747
     27 H1          0.1308    1.8983    1.8889 H         1 <0>         0.1412
     28 H2          1.1517    3.1658    0.0439 H         1 <0>         0.1409
     29 H3          2.2224    1.9837   -1.8287 H         1 <0>         0.1454
     30 H4          0.1674   -0.5607    1.8659 H         1 <0>         0.1415
     31 H5         -1.6795   -2.3109    1.0639 H         1 <0>         0.0818
     32 H6         -1.0427   -1.0992   -0.0786 H         1 <0>         0.0963
     33 H7         -3.0971   -2.3888   -0.8990 H         1 <0>         0.1084
     34 H8         -1.6845   -2.4488   -1.9853 H         1 <0>         0.0682
     35 H9         -0.9108   -5.9726   -0.7405 H         1 <0>         0.0984
     36 H10        -0.2740   -4.7609   -1.8830 H         1 <0>         0.0782
     37 H11         1.1430   -4.6833    0.0706 H         1 <0>         0.1103
     38 H12        -0.2671   -4.6269    1.1603 H         1 <0>         0.0812
     39 H13        -6.5074   -4.8901   -0.6432 H         1 <0>         0.1736
@<TRIPOS>BOND
     1    1    6 ar
     2    1    2 ar
     3    1   27 1
     4    2    3 ar
     5    2   28 1
     6    3    4 ar
     7    3   29 1
     8    4    5 ar
     9    4   23 1
    10    5    6 ar
    11    5    7 1
    12    6   30 1
    13    7    8 2
    14    7    9 am
    15    9   14 1
    16    9   10 1
    17   10   11 1
    18   10   31 1
    19   10   32 1
    20   11   12 1
    21   11   33 1
    22   11   34 1
    23   12   13 1
    24   12   15 1
    25   13   14 1
    26   13   35 1
    27   13   36 1
    28   14   37 1
    29   14   38 1
    30   15   19 1
    31   15   16 2
    32   16   17 1
    33   17   18 2
    34   17   39 1
    35   18   19 1
    36   18   20 1
    37   20   21 2
    38   20   22 1
    39   23   24 1
    40   23   25 1
    41   23   26 1
@<TRIPOS>MOLECULE
ZINC45288748
   41    43     0     0     0
SMALL
USER_CHARGES

@<TRIPOS>ATOM
      1 C1          0.5953    1.3734    1.0672 C.ar      1 <0>        -0.0883
      2 C2          1.1720    2.0861    0.0306 C.ar      1 <0>        -0.0975
      3 C3          1.7741    1.4216   -1.0228 C.ar      1 <0>        -0.0737
      4 C4          1.8028    0.0423   -1.0463 C.ar      1 <0>        -0.1412
      5 C5          1.2230   -0.6825   -0.0041 C.ar      1 <0>        -0.0807
      6 C6          0.6175   -0.0057    1.0561 C.ar      1 <0>        -0.0920
      7 C7          1.2496   -2.1606   -0.0230 C.2       1 <0>         0.5529
      8 O1          2.3077   -2.7480   -0.1368 O.2       1 <0>        -0.5019
      9 N1          0.1007   -2.8567    0.0860 N.am      1 <0>        -0.6058
     10 C8         -1.1953   -2.1638    0.0985 C.3       1 <0>         0.0887
     11 C9         -2.0749   -2.7496   -1.0130 C.3       1 <0>         0.1106
     12 N2         -2.0542   -4.2151   -0.9051 N.pl3     1 <0>        -0.5560
     13 C10        -0.7582   -4.9080   -0.9176 C.3       1 <0>         0.1066
     14 C11         0.1211   -4.3226    0.1883 C.3       1 <0>         0.0982
     15 C12        -3.2292   -4.9271   -0.7937 C.2       1 <0>         0.3171
     16 N3         -4.4668   -4.4641   -0.7724 N.2       1 <0>        -0.5974
     17 C13        -5.4951   -5.2670   -0.6613 C.2       1 <0>         0.1572
     18 C14        -5.2120   -6.6223   -0.5680 C.2       1 <0>        -0.3402
     19 S1         -3.4288   -6.5927   -0.6598 S.3       1 <0>         0.1867
     20 C15        -6.1216   -7.7594   -0.4357 C.2       1 <0>         0.6188
     21 O2         -5.6762   -8.8905   -0.3672 O.2       1 <0>        -0.5451
     22 N4         -7.4531   -7.5555   -0.3897 N.am      1 <0>        -0.8451
     23 C16         2.4582   -0.6799   -2.1951 C.3       1 <0>         0.5021
     24 F1          2.9616    0.2541   -3.1069 F         1 <0>        -0.1763
     25 F2          3.5059   -1.4711   -1.7118 F         1 <0>        -0.1539
     26 F3          1.5157   -1.4933   -2.8333 F         1 <0>        -0.1776
     27 H1          0.1308    1.8983    1.8889 H         1 <0>         0.1426
     28 H2          1.1517    3.1658    0.0439 H         1 <0>         0.1432
     29 H3          2.2224    1.9837   -1.8287 H         1 <0>         0.1475
     30 H4          0.1674   -0.5607    1.8659 H         1 <0>         0.1408
     31 H5         -1.6795   -2.3109    1.0639 H         1 <0>         0.0833
     32 H6         -1.0427   -1.0992   -0.0786 H         1 <0>         0.1037
     33 H7         -3.0971   -2.3888   -0.8990 H         1 <0>         0.1131
     34 H8         -1.6845   -2.4488   -1.9853 H         1 <0>         0.0808
     35 H9         -0.9108   -5.9726   -0.7405 H         1 <0>         0.0993
     36 H10        -0.2740   -4.7609   -1.8830 H         1 <0>         0.0916
     37 H11         1.1430   -4.6833    0.0706 H         1 <0>         0.1167
     38 H12        -0.2671   -4.6269    1.1603 H         1 <0>         0.0827
     39 H13        -6.5087   -4.8946   -0.6430 H         1 <0>         0.1776
     40 H14        -7.8079   -6.6544   -0.4443 H         1 <0>         0.4012
     41 H15        -8.0565   -8.3099   -0.3019 H         1 <0>         0.4099
@<TRIPOS>BOND
     1    1    6 ar
     2    1    2 ar
     3    1   27 1
     4    2    3 ar
     5    2   28 1
     6    3    4 ar
     7    3   29 1
     8    4    5 ar
     9    4   23 1
    10    5    6 ar
    11    5    7 1
    12    6   30 1
    13    7    8 2
    14    7    9 am
    15    9   14 1
    16    9   10 1
    17   10   11 1
    18   10   31 1
    19   10   32 1
    20   11   12 1
    21   11   33 1
    22   11   34 1
    23   12   13 1
    24   12   15 1
    25   13   14 1
    26   13   35 1
    27   13   36 1
    28   14   37 1
    29   14   38 1
    30   15   19 1
    31   15   16 2
    32   16   17 1
    33   17   18 2
    34   17   39 1
    35   18   19 1
    36   18   20 1
    37   20   21 2
    38   20   22 am
    39   22   40 1
    40   22   41 1
    41   23   24 1
    42   23   25 1
    43   23   26 1
