@<TRIPOS>MOLECULE
ZINC08021086
   42    44     0     0     0
SMALL
USER_CHARGES
4-methoxy-N-[5-[[3-(trifluoromethyl)phenyl]methyl]thiazol-2-yl]-benzamide
@<TRIPOS>ATOM
      1 C1          3.0152    9.4302  -11.2447 C.3       1 <0>         0.0228
      2 O1          1.6033    9.3431  -11.0421 O.3       1 <0>        -0.3101
      3 C2          1.1808    8.9031   -9.8298 C.ar      1 <0>         0.1622
      4 C3         -0.1799    8.7949   -9.5674 C.ar      1 <0>        -0.1578
      5 C4         -0.6127    8.3490   -8.3387 C.ar      1 <0>        -0.0114
      6 C5          0.3182    8.0044   -7.3549 C.ar      1 <0>        -0.1775
      7 C6          1.6854    8.1192   -7.6211 C.ar      1 <0>        -0.0427
      8 C7          2.1100    8.5614   -8.8541 C.ar      1 <0>        -0.2160
      9 C8         -0.1412    7.5265   -6.0366 C.2       1 <0>         0.5605
     10 O2         -1.3311    7.4321   -5.8050 O.2       1 <0>        -0.4652
     11 N1          0.7581    7.1948   -5.0892 N.am      1 <0>        -0.6192
     12 C9          0.3257    6.7449   -3.8483 C.2       1 <0>         0.3072
     13 N2         -0.9074    6.5759   -3.4117 N.2       1 <0>        -0.5090
     14 C10        -1.1457    6.1295   -2.1940 C.2       1 <0>         0.0674
     15 C11        -0.0907    5.8566   -1.3879 C.2       1 <0>        -0.1990
     16 S1          1.2698    6.2602   -2.4738 S.3       1 <0>         0.0583
     17 C12        -0.0705    5.3471    0.0302 C.3       1 <0>         0.0159
     18 C13        -0.0501    3.8402    0.0223 C.ar      1 <0>        -0.0843
     19 C14         1.1565    3.1653    0.0076 C.ar      1 <0>        -0.0790
     20 C15         1.1752    1.7833    0.0004 C.ar      1 <0>        -0.1165
     21 C16        -0.0126    1.0758    0.0080 C.ar      1 <0>        -0.0726
     22 C17        -1.2188    1.7505    0.0173 C.ar      1 <0>        -0.1794
     23 C18        -1.2375    3.1329    0.0303 C.ar      1 <0>        -0.0595
     24 C19        -2.5135    0.9794    0.0192 C.3       1 <0>         0.5076
     25 F1         -2.2393   -0.3924    0.0104 F         1 <0>        -0.1768
     26 F2         -3.2463    1.3011    1.1668 F         1 <0>        -0.1757
     27 F3         -3.2571    1.3136   -1.1177 F         1 <0>        -0.1749
     28 H1          3.4448   10.1189  -10.5172 H         1 <0>         0.0600
     29 H2          3.4619    8.4439  -11.1191 H         1 <0>         0.0600
     30 H3          3.2159    9.7944  -12.2523 H         1 <0>         0.1053
     31 H4         -0.8987    9.0614  -10.3282 H         1 <0>         0.1431
     32 H5         -1.6701    8.2652   -8.1356 H         1 <0>         0.1473
     33 H6          2.4079    7.8579   -6.8621 H         1 <0>         0.1283
     34 H7          3.1663    8.6466   -9.0620 H         1 <0>         0.1385
     35 H8          1.7074    7.2701   -5.2740 H         1 <0>         0.4244
     36 H9         -2.1582    5.9882   -1.8456 H         1 <0>         0.1722
     37 H10        -0.9605    5.6956    0.5541 H         1 <0>         0.1055
     38 H11         0.8192    5.7199    0.5376 H         1 <0>         0.0958
     39 H12         2.0843    3.7180    0.0014 H         1 <0>         0.1324
     40 H13         2.1177    1.2561   -0.0115 H         1 <0>         0.1371
     41 H14         0.0021   -0.0041    0.0020 H         1 <0>         0.1393
     42 H15        -2.1800    3.6601    0.0422 H         1 <0>         0.1355
@<TRIPOS>BOND
     1    1    2 1
     2    1   28 1
     3    1   29 1
     4    1   30 1
     5    2    3 1
     6    3    8 ar
     7    3    4 ar
     8    4    5 ar
     9    4   31 1
    10    5    6 ar
    11    5   32 1
    12    6    7 ar
    13    6    9 1
    14    7    8 ar
    15    7   33 1
    16    8   34 1
    17    9   10 2
    18    9   11 am
    19   11   12 1
    20   11   35 1
    21   12   16 1
    22   12   13 2
    23   13   14 1
    24   14   15 2
    25   14   36 1
    26   15   16 1
    27   15   17 1
    28   17   18 1
    29   17   37 1
    30   17   38 1
    31   18   23 ar
    32   18   19 ar
    33   19   20 ar
    34   19   39 1
    35   20   21 ar
    36   20   40 1
    37   21   22 ar
    38   21   41 1
    39   22   23 ar
    40   22   24 1
    41   23   42 1
    42   24   25 1
    43   24   26 1
    44   24   27 1
@<TRIPOS>MOLECULE
ZINC00848329
   46    48     0     0     0
SMALL
USER_CHARGES
3-(4-methoxyphenyl)-N-[5-[[3-(trifluoromethyl)phenyl]methyl]thiazol-2-yl]-prop-2-enamide
@<TRIPOS>ATOM
      1 C1          2.5683   10.2328  -13.4959 C.3       1 <0>         0.0244
      2 O1          1.1564   10.1459  -13.2933 O.3       1 <0>        -0.3134
      3 C2          0.7337    9.7059  -12.0808 C.ar      1 <0>         0.1469
      4 C3         -0.6273    9.5981  -11.8188 C.ar      1 <0>        -0.1558
      5 C4         -1.0612    9.1524  -10.5907 C.ar      1 <0>        -0.0468
      6 C5         -0.1292    8.8078   -9.6048 C.ar      1 <0>        -0.1260
      7 C6          1.2400    8.9241   -9.8715 C.ar      1 <0>        -0.0534
      8 C7          1.6634    9.3649  -11.1050 C.ar      1 <0>        -0.2138
      9 C8         -0.5869    8.3313   -8.2917 C.2       1 <0>         0.0137
     10 C9          0.3140    7.9996   -7.3424 C.2       1 <0>        -0.2333
     11 C10        -0.1412    7.5256   -6.0365 C.2       1 <0>         0.5462
     12 O2         -1.3325    7.4301   -5.8050 O.2       1 <0>        -0.4744
     13 N1          0.7581    7.1945   -5.0888 N.am      1 <0>        -0.6177
     14 C11         0.3258    6.7443   -3.8485 C.2       1 <0>         0.3082
     15 N2         -0.9074    6.5751   -3.4120 N.2       1 <0>        -0.5104
     16 C12        -1.1457    6.1295   -2.1940 C.2       1 <0>         0.0675
     17 C13        -0.0907    5.8566   -1.3879 C.2       1 <0>        -0.2006
     18 S1          1.2698    6.2602   -2.4738 S.3       1 <0>         0.0563
     19 C14        -0.0705    5.3471    0.0302 C.3       1 <0>         0.0161
     20 C15        -0.0501    3.8402    0.0223 C.ar      1 <0>        -0.0840
     21 C16         1.1565    3.1653    0.0076 C.ar      1 <0>        -0.0790
     22 C17         1.1752    1.7833    0.0004 C.ar      1 <0>        -0.1166
     23 C18        -0.0126    1.0758    0.0080 C.ar      1 <0>        -0.0728
     24 C19        -1.2188    1.7505    0.0173 C.ar      1 <0>        -0.1794
     25 C20        -1.2375    3.1329    0.0303 C.ar      1 <0>        -0.0596
     26 C21        -2.5135    0.9794    0.0192 C.3       1 <0>         0.5076
     27 F1         -2.2393   -0.3924    0.0104 F         1 <0>        -0.1768
     28 F2         -3.2463    1.3011    1.1668 F         1 <0>        -0.1757
     29 F3         -3.2571    1.3136   -1.1177 F         1 <0>        -0.1750
     30 H1          2.9980   10.9214  -12.7684 H         1 <0>         0.0584
     31 H2          3.0147    9.2464  -13.3704 H         1 <0>         0.0584
     32 H3          2.7690   10.5969  -14.5035 H         1 <0>         0.1037
     33 H4         -1.3455    9.8643  -12.5802 H         1 <0>         0.1374
     34 H5         -2.1187    9.0691  -10.3882 H         1 <0>         0.1384
     35 H6          1.9630    8.6637   -9.1126 H         1 <0>         0.1317
     36 H7          2.7197    9.4504  -11.3135 H         1 <0>         0.1336
     37 H8         -1.6438    8.2465   -8.0864 H         1 <0>         0.1389
     38 H9          1.3709    8.0843   -7.5478 H         1 <0>         0.1339
     39 H10         1.7074    7.2706   -5.2733 H         1 <0>         0.4272
     40 H11        -2.1582    5.9880   -1.8456 H         1 <0>         0.1714
     41 H12        -0.9605    5.6956    0.5541 H         1 <0>         0.1050
     42 H13         0.8192    5.7199    0.5376 H         1 <0>         0.0956
     43 H14         2.0843    3.7180    0.0014 H         1 <0>         0.1324
     44 H15         2.1177    1.2561   -0.0115 H         1 <0>         0.1371
     45 H16         0.0021   -0.0041    0.0020 H         1 <0>         0.1393
     46 H17        -2.1800    3.6601    0.0422 H         1 <0>         0.1353
@<TRIPOS>BOND
     1    1    2 1
     2    1   30 1
     3    1   31 1
     4    1   32 1
     5    2    3 1
     6    3    8 ar
     7    3    4 ar
     8    4    5 ar
     9    4   33 1
    10    5    6 ar
    11    5   34 1
    12    6    7 ar
    13    6    9 1
    14    7    8 ar
    15    7   35 1
    16    8   36 1
    17    9   10 2
    18    9   37 1
    19   10   11 1
    20   10   38 1
    21   11   12 2
    22   11   13 am
    23   13   14 1
    24   13   39 1
    25   14   18 1
    26   14   15 2
    27   15   16 1
    28   16   17 2
    29   16   40 1
    30   17   18 1
    31   17   19 1
    32   19   20 1
    33   19   41 1
    34   19   42 1
    35   20   25 ar
    36   20   21 ar
    37   21   22 ar
    38   21   43 1
    39   22   23 ar
    40   22   44 1
    41   23   24 ar
    42   23   45 1
    43   24   25 ar
    44   24   26 1
    45   25   46 1
    46   26   27 1
    47   26   28 1
    48   26   29 1
@<TRIPOS>MOLECULE
ZINC10971638
   42    44     0     0     0
SMALL
USER_CHARGES
3-methoxy-N-[5-[[3-(trifluoromethyl)phenyl]methyl]thiazol-2-yl]-benzamide
@<TRIPOS>ATOM
      1 C1         -0.0127    1.0858    0.0080 C.3       1 <0>         0.0248
      2 O1         -0.6816    1.5467    1.1837 O.3       1 <0>        -0.3124
      3 C2         -0.1488    1.1821    2.3797 C.ar      1 <0>         0.1253
      4 C3          0.9954    0.3962    2.4190 C.ar      1 <0>        -0.1789
      5 C4          1.5419    0.0223    3.6326 C.ar      1 <0>        -0.0819
      6 C5          0.9538    0.4276    4.8133 C.ar      1 <0>        -0.1255
      7 C6         -0.1965    1.2178    4.7839 C.ar      1 <0>        -0.0952
      8 C7         -0.7438    1.5991    3.5582 C.ar      1 <0>        -0.0875
      9 C8         -0.8290    1.6543    6.0465 C.2       1 <0>         0.5577
     10 O2         -1.8308    2.3424    6.0184 O.2       1 <0>        -0.4583
     11 N1         -0.2951    1.2895    7.2290 N.am      1 <0>        -0.6164
     12 C9         -0.8894    1.6998    8.4155 C.2       1 <0>         0.3049
     13 N2         -1.9636    2.4450    8.5899 N.2       1 <0>        -0.5096
     14 C10        -2.4004    2.7417    9.7981 C.2       1 <0>         0.0667
     15 C11        -1.7129    2.2709   10.8673 C.2       1 <0>        -0.1987
     16 S1         -0.4045    1.3694   10.0499 S.3       1 <0>         0.0647
     17 C12        -1.9785    2.4569   12.3390 C.3       1 <0>         0.0157
     18 C13        -2.8724    1.3484   12.8322 C.ar      1 <0>        -0.0847
     19 C14        -4.2459    1.5047   12.8061 C.ar      1 <0>        -0.0761
     20 C15        -5.0659    0.4865   13.2547 C.ar      1 <0>        -0.1161
     21 C16        -4.5125   -0.6848   13.7377 C.ar      1 <0>        -0.0704
     22 C17        -3.1393   -0.8391   13.7682 C.ar      1 <0>        -0.1801
     23 C18        -2.3192    0.1778   13.3158 C.ar      1 <0>        -0.0635
     24 C19        -2.5361   -2.1156   14.2951 C.3       1 <0>         0.5078
     25 F1         -2.3190   -1.9953   15.6719 F         1 <0>        -0.1755
     26 F2         -3.4111   -3.1799   14.0522 F         1 <0>        -0.1762
     27 F3         -1.3182   -2.3568   13.6502 F         1 <0>        -0.1764
     28 H1          0.0021   -0.0041    0.0020 H         1 <0>         0.0583
     29 H2          1.0099    1.4631    0.0003 H         1 <0>         0.0583
     30 H3         -0.5399    1.4469   -0.8751 H         1 <0>         0.1047
     31 H4          1.4602    0.0763    1.4982 H         1 <0>         0.1366
     32 H5          2.4321   -0.5888    3.6566 H         1 <0>         0.1367
     33 H6          1.3835    0.1340    5.7597 H         1 <0>         0.1281
     34 H7         -1.6311    2.2141    3.5289 H         1 <0>         0.1479
     35 H8          0.5043    0.7405    7.2515 H         1 <0>         0.4265
     36 H9         -3.2832    3.3491    9.9328 H         1 <0>         0.1726
     37 H10        -1.0350    2.4326   12.8844 H         1 <0>         0.0946
     38 H11        -2.4674    3.4174   12.5015 H         1 <0>         0.1070
     39 H12        -4.6781    2.4211   12.4323 H         1 <0>         0.1352
     40 H13        -6.1389    0.6073   13.2312 H         1 <0>         0.1377
     41 H14        -5.1532   -1.4790   14.0914 H         1 <0>         0.1368
     42 H15        -1.2462    0.0574   13.3400 H         1 <0>         0.1351
@<TRIPOS>BOND
     1    1    2 1
     2    1   28 1
     3    1   29 1
     4    1   30 1
     5    2    3 1
     6    3    8 ar
     7    3    4 ar
     8    4    5 ar
     9    4   31 1
    10    5    6 ar
    11    5   32 1
    12    6    7 ar
    13    6   33 1
    14    7    8 ar
    15    7    9 1
    16    8   34 1
    17    9   10 2
    18    9   11 am
    19   11   12 1
    20   11   35 1
    21   12   16 1
    22   12   13 2
    23   13   14 1
    24   14   15 2
    25   14   36 1
    26   15   16 1
    27   15   17 1
    28   17   18 1
    29   17   37 1
    30   17   38 1
    31   18   23 ar
    32   18   19 ar
    33   19   20 ar
    34   19   39 1
    35   20   21 ar
    36   20   40 1
    37   21   22 ar
    38   21   41 1
    39   22   23 ar
    40   22   24 1
    41   23   42 1
    42   24   25 1
    43   24   26 1
    44   24   27 1
@<TRIPOS>MOLECULE
ZINC10971696
   46    48     0     0     0
SMALL
USER_CHARGES
3,4-dimethoxy-N-[5-[[3-(trifluoromethyl)phenyl]methyl]thiazol-2-yl]-benzamide
@<TRIPOS>ATOM
      1 C1          3.0262    9.4307  -11.2414 C.3       1 <0>         0.0220
      2 O1          1.6138    9.3448  -11.0424 O.3       1 <0>        -0.2990
      3 C2          1.1875    8.9045   -9.8305 C.ar      1 <0>         0.1352
      4 C3          2.1125    8.5628   -8.8532 C.ar      1 <0>        -0.1811
      5 C4          1.6851    8.1202   -7.6203 C.ar      1 <0>        -0.0778
      6 C5          0.3182    8.0051   -7.3547 C.ar      1 <0>        -0.1364
      7 C6         -0.6130    8.3495   -8.3382 C.ar      1 <0>        -0.1091
      8 C7         -0.1778    8.7972   -9.5704 C.ar      1 <0>         0.0955
      9 O2         -1.0813    9.1327  -10.5300 O.3       1 <0>        -0.3021
     10 C8         -2.4639    8.9977  -10.1949 C.3       1 <0>         0.0219
     11 C9         -0.1412    7.5268   -6.0365 C.2       1 <0>         0.5610
     12 O3         -1.3311    7.4320   -5.8051 O.2       1 <0>        -0.4643
     13 N1          0.7581    7.1951   -5.0891 N.am      1 <0>        -0.6175
     14 C10         0.3257    6.7449   -3.8483 C.2       1 <0>         0.3061
     15 N2         -0.9074    6.5759   -3.4117 N.2       1 <0>        -0.5089
     16 C11        -1.1457    6.1295   -2.1940 C.2       1 <0>         0.0670
     17 C12        -0.0907    5.8566   -1.3879 C.2       1 <0>        -0.1985
     18 S1          1.2698    6.2602   -2.4738 S.3       1 <0>         0.0610
     19 C13        -0.0705    5.3471    0.0302 C.3       1 <0>         0.0158
     20 C14        -0.0501    3.8402    0.0223 C.ar      1 <0>        -0.0845
     21 C15         1.1565    3.1653    0.0076 C.ar      1 <0>        -0.0789
     22 C16         1.1752    1.7833    0.0004 C.ar      1 <0>        -0.1165
     23 C17        -0.0126    1.0758    0.0080 C.ar      1 <0>        -0.0725
     24 C18        -1.2188    1.7505    0.0173 C.ar      1 <0>        -0.1794
     25 C19        -1.2375    3.1329    0.0303 C.ar      1 <0>        -0.0596
     26 C20        -2.5135    0.9794    0.0192 C.3       1 <0>         0.5076
     27 F1         -2.2393   -0.3924    0.0104 F         1 <0>        -0.1767
     28 F2         -3.2463    1.3011    1.1668 F         1 <0>        -0.1757
     29 F3         -3.2571    1.3136   -1.1177 F         1 <0>        -0.1750
     30 H1          3.4716    8.4439  -11.1151 H         1 <0>         0.0593
     31 H2          3.2298    9.7950  -12.2484 H         1 <0>         0.1054
     32 H3          3.4547   10.1187  -10.5126 H         1 <0>         0.0593
     33 H4          3.1694    8.6477   -9.0585 H         1 <0>         0.1464
     34 H5          2.4068    7.8590   -6.8605 H         1 <0>         0.1311
     35 H6         -1.6705    8.2662   -8.1353 H         1 <0>         0.1524
     36 H7         -3.0751    9.2974  -11.0462 H         1 <0>         0.1055
     37 H8         -2.6768    7.9589   -9.9425 H         1 <0>         0.0588
     38 H9         -2.6944    9.6337   -9.3403 H         1 <0>         0.0588
     39 H10         1.7074    7.2708   -5.2737 H         1 <0>         0.4255
     40 H11        -2.1582    5.9882   -1.8456 H         1 <0>         0.1722
     41 H12        -0.9605    5.6956    0.5541 H         1 <0>         0.1055
     42 H13         0.8192    5.7199    0.5376 H         1 <0>         0.0960
     43 H14         2.0843    3.7180    0.0014 H         1 <0>         0.1325
     44 H15         2.1177    1.2561   -0.0115 H         1 <0>         0.1372
     45 H16         0.0021   -0.0041    0.0020 H         1 <0>         0.1394
     46 H17        -2.1800    3.6601    0.0422 H         1 <0>         0.1354
@<TRIPOS>BOND
     1    1    2 1
     2    1   30 1
     3    1   31 1
     4    1   32 1
     5    2    3 1
     6    3    8 ar
     7    3    4 ar
     8    4    5 ar
     9    4   33 1
    10    5    6 ar
    11    5   34 1
    12    6    7 ar
    13    6   11 1
    14    7    8 ar
    15    7   35 1
    16    8    9 1
    17    9   10 1
    18   10   36 1
    19   10   37 1
    20   10   38 1
    21   11   12 2
    22   11   13 am
    23   13   14 1
    24   13   39 1
    25   14   18 1
    26   14   15 2
    27   15   16 1
    28   16   17 2
    29   16   40 1
    30   17   18 1
    31   17   19 1
    32   19   20 1
    33   19   41 1
    34   19   42 1
    35   20   25 ar
    36   20   21 ar
    37   21   22 ar
    38   21   43 1
    39   22   23 ar
    40   22   44 1
    41   23   24 ar
    42   23   45 1
    43   24   25 ar
    44   24   26 1
    45   25   46 1
    46   26   27 1
    47   26   28 1
    48   26   29 1
@<TRIPOS>MOLECULE
ZINC45288748
   41    43     0     0     0
SMALL
USER_CHARGES

@<TRIPOS>ATOM
      1 C1          0.5953    1.3734    1.0672 C.ar      1 <0>        -0.0883
      2 C2          1.1720    2.0861    0.0306 C.ar      1 <0>        -0.0975
      3 C3          1.7741    1.4216   -1.0228 C.ar      1 <0>        -0.0737
      4 C4          1.8028    0.0423   -1.0463 C.ar      1 <0>        -0.1412
      5 C5          1.2230   -0.6825   -0.0041 C.ar      1 <0>        -0.0807
      6 C6          0.6175   -0.0057    1.0561 C.ar      1 <0>        -0.0920
      7 C7          1.2496   -2.1606   -0.0230 C.2       1 <0>         0.5529
      8 O1          2.3077   -2.7480   -0.1368 O.2       1 <0>        -0.5019
      9 N1          0.1007   -2.8567    0.0860 N.am      1 <0>        -0.6058
     10 C8         -1.1953   -2.1638    0.0985 C.3       1 <0>         0.0887
     11 C9         -2.0749   -2.7496   -1.0130 C.3       1 <0>         0.1106
     12 N2         -2.0542   -4.2151   -0.9051 N.pl3     1 <0>        -0.5560
     13 C10        -0.7582   -4.9080   -0.9176 C.3       1 <0>         0.1066
     14 C11         0.1211   -4.3226    0.1883 C.3       1 <0>         0.0982
     15 C12        -3.2292   -4.9271   -0.7937 C.2       1 <0>         0.3171
     16 N3         -4.4668   -4.4641   -0.7724 N.2       1 <0>        -0.5974
     17 C13        -5.4951   -5.2670   -0.6613 C.2       1 <0>         0.1572
     18 C14        -5.2120   -6.6223   -0.5680 C.2       1 <0>        -0.3402
     19 S1         -3.4288   -6.5927   -0.6598 S.3       1 <0>         0.1867
     20 C15        -6.1216   -7.7594   -0.4357 C.2       1 <0>         0.6188
     21 O2         -5.6762   -8.8905   -0.3672 O.2       1 <0>        -0.5451
     22 N4         -7.4531   -7.5555   -0.3897 N.am      1 <0>        -0.8451
     23 C16         2.4582   -0.6799   -2.1951 C.3       1 <0>         0.5021
     24 F1          2.9616    0.2541   -3.1069 F         1 <0>        -0.1763
     25 F2          3.5059   -1.4711   -1.7118 F         1 <0>        -0.1539
     26 F3          1.5157   -1.4933   -2.8333 F         1 <0>        -0.1776
     27 H1          0.1308    1.8983    1.8889 H         1 <0>         0.1426
     28 H2          1.1517    3.1658    0.0439 H         1 <0>         0.1432
     29 H3          2.2224    1.9837   -1.8287 H         1 <0>         0.1475
     30 H4          0.1674   -0.5607    1.8659 H         1 <0>         0.1408
     31 H5         -1.6795   -2.3109    1.0639 H         1 <0>         0.0833
     32 H6         -1.0427   -1.0992   -0.0786 H         1 <0>         0.1037
     33 H7         -3.0971   -2.3888   -0.8990 H         1 <0>         0.1131
     34 H8         -1.6845   -2.4488   -1.9853 H         1 <0>         0.0808
     35 H9         -0.9108   -5.9726   -0.7405 H         1 <0>         0.0993
     36 H10        -0.2740   -4.7609   -1.8830 H         1 <0>         0.0916
     37 H11         1.1430   -4.6833    0.0706 H         1 <0>         0.1167
     38 H12        -0.2671   -4.6269    1.1603 H         1 <0>         0.0827
     39 H13        -6.5087   -4.8946   -0.6430 H         1 <0>         0.1776
     40 H14        -7.8079   -6.6544   -0.4443 H         1 <0>         0.4012
     41 H15        -8.0565   -8.3099   -0.3019 H         1 <0>         0.4099
@<TRIPOS>BOND
     1    1    6 ar
     2    1    2 ar
     3    1   27 1
     4    2    3 ar
     5    2   28 1
     6    3    4 ar
     7    3   29 1
     8    4    5 ar
     9    4   23 1
    10    5    6 ar
    11    5    7 1
    12    6   30 1
    13    7    8 2
    14    7    9 am
    15    9   14 1
    16    9   10 1
    17   10   11 1
    18   10   31 1
    19   10   32 1
    20   11   12 1
    21   11   33 1
    22   11   34 1
    23   12   13 1
    24   12   15 1
    25   13   14 1
    26   13   35 1
    27   13   36 1
    28   14   37 1
    29   14   38 1
    30   15   19 1
    31   15   16 2
    32   16   17 1
    33   17   18 2
    34   17   39 1
    35   18   19 1
    36   18   20 1
    37   20   21 2
    38   20   22 am
    39   22   40 1
    40   22   41 1
    41   23   24 1
    42   23   25 1
    43   23   26 1
