@<TRIPOS>MOLECULE
ZINC04769916
   48    49     0     0     0
SMALL
USER_CHARGES
2-[2-benzoylamino-3-(2-fluorophenyl)-prop-2-enoyl]amino-3-methyl-butanoic acid
@<TRIPOS>ATOM
      1 C1         -3.0838    7.5648   -2.3934 C.3       1 <0>        -0.1509
      2 C2         -3.2668    6.0461   -2.4265 C.3       1 <0>        -0.0828
      3 C3         -1.9457    5.3816   -2.8189 C.3       1 <0>        -0.1404
      4 C4         -3.6941    5.5537   -1.0424 C.3       1 <0>         0.1127
      5 H1         -2.9778    5.8990   -0.2968 H         1 <0>         0.0803
      6 C5         -5.0610    6.0975   -0.7155 C.2       1 <0>         0.4537
      7 O1         -5.9770    5.3396   -0.5001 O.co2     1 <0>        -0.5991
      8 N1         -3.7369    4.0893   -1.0368 N.am      1 <0>        -0.6785
      9 C6         -3.6451    3.4169    0.1276 C.2       1 <0>         0.5807
     10 O2         -3.6157    4.0254    1.1808 O.2       1 <0>        -0.5298
     11 C7         -3.5806    1.9488    0.1252 C.2       1 <0>         0.1318
     12 C8         -2.4523    1.3218   -0.2815 C.2       1 <0>        -0.1801
     13 C9         -1.2409    2.1029   -0.5718 C.ar      1 <0>        -0.0648
     14 C10        -0.9454    3.2471    0.1771 C.ar      1 <0>        -0.0911
     15 C11         0.1890    3.9774   -0.1048 C.ar      1 <0>        -0.1190
     16 C12         1.0392    3.5798   -1.1229 C.ar      1 <0>        -0.0941
     17 C13         0.7590    2.4476   -1.8662 C.ar      1 <0>        -0.1544
     18 C14        -0.3740    1.7036   -1.5972 C.ar      1 <0>         0.1006
     19 F1         -0.6476    0.5983   -2.3242 F         1 <0>        -0.1393
     20 N2         -4.6851    1.1996    0.5431 N.am      1 <0>        -0.6588
     21 C15        -5.8457    1.8176    0.8388 C.2       1 <0>         0.5163
     22 O3         -5.9613    3.0139    0.6554 O.2       1 <0>        -0.4109
     23 C16        -6.9780    1.0410    1.3861 C.ar      1 <0>        -0.1220
     24 C17        -6.8506   -0.3336    1.5924 C.ar      1 <0>        -0.0913
     25 C18        -7.9095   -1.0516    2.1084 C.ar      1 <0>        -0.1304
     26 C19        -9.0997   -0.4140    2.4109 C.ar      1 <0>        -0.0982
     27 C20        -9.2346    0.9473    2.2034 C.ar      1 <0>        -0.1259
     28 C21        -8.1815    1.6781    1.6934 C.ar      1 <0>        -0.0535
     29 H2         -2.3166    7.8225   -1.6633 H         1 <0>         0.0428
     30 H3         -2.7794    7.9156   -3.3795 H         1 <0>         0.0355
     31 H4         -4.0250    8.0382   -2.1139 H         1 <0>         0.1047
     32 H5         -4.0341    5.7885   -3.1566 H         1 <0>         0.0626
     33 H6         -2.0761    4.2997   -2.8425 H         1 <0>         0.0458
     34 H7         -1.6414    5.7325   -3.8050 H         1 <0>         0.0477
     35 H8         -1.1785    5.6393   -2.0888 H         1 <0>         0.0523
     36 H9         -3.8314    3.6037   -1.8711 H         1 <0>         0.3885
     37 H10        -2.4417    0.2476   -0.3929 H         1 <0>         0.1345
     38 H11        -1.6070    3.5600    0.9713 H         1 <0>         0.1474
     39 H12         0.4155    4.8630    0.4703 H         1 <0>         0.1287
     40 H13         1.9260    4.1574   -1.3381 H         1 <0>         0.1290
     41 H14         1.4271    2.1445   -2.6588 H         1 <0>         0.1318
     42 H15        -4.6158    0.2352    0.6202 H         1 <0>         0.4081
     43 H16        -5.9235   -0.8332    1.3529 H         1 <0>         0.1233
     44 H17        -7.8109   -2.1145    2.2724 H         1 <0>         0.1271
     45 H18        -9.9272   -0.9815    2.8104 H         1 <0>         0.1255
     46 H19       -10.1662    1.4389    2.4415 H         1 <0>         0.1305
     47 H20        -8.2881    2.7406    1.5318 H         1 <0>         0.1433
     48 O4         -5.2609    7.4238   -0.6638 O.co2     1 <0>        -0.7698
@<TRIPOS>BOND
     1    1    2 1
     2    1   29 1
     3    1   30 1
     4    1   31 1
     5    2    3 1
     6    2    4 1
     7    2   32 1
     8    3   33 1
     9    3   34 1
    10    3   35 1
    11    4    5 1
    12    4    6 1
    13    4    8 1
    14    6    7 2
    15    6   48 1
    16    8    9 am
    17    8   36 1
    18    9   10 2
    19    9   11 1
    20   11   12 2
    21   11   20 1
    22   12   13 1
    23   12   37 1
    24   13   18 ar
    25   13   14 ar
    26   14   15 ar
    27   14   38 1
    28   15   16 ar
    29   15   39 1
    30   16   17 ar
    31   16   40 1
    32   17   18 ar
    33   17   41 1
    34   18   19 1
    35   20   21 am
    36   20   42 1
    37   21   22 2
    38   21   23 1
    39   23   28 ar
    40   23   24 ar
    41   24   25 ar
    42   24   43 1
    43   25   26 ar
    44   25   44 1
    45   26   27 ar
    46   26   45 1
    47   27   28 ar
    48   27   46 1
    49   28   47 1
@<TRIPOS>MOLECULE
ZINC04769919
   48    49     0     0     0
SMALL
USER_CHARGES
2-[2-benzoylamino-3-(2-fluorophenyl)-prop-2-enoyl]amino-3-methyl-butanoic acid
@<TRIPOS>ATOM
      1 C1          1.2568    3.8754   -0.7739 C.3       1 <0>        -0.1393
      2 C2          0.9140    3.8410    0.7168 C.3       1 <0>        -0.0832
      3 C3         -0.5760    4.1339    0.9044 C.3       1 <0>        -0.1517
      4 C4          1.2368    2.4566    1.2826 C.3       1 <0>         0.1104
      5 H1          0.5880    1.7140    0.8182 H         1 <0>         0.0865
      6 C5          1.0125    2.4581    2.7728 C.2       1 <0>         0.4582
      7 O1          1.9275    2.2098    3.5217 O.co2     1 <0>        -0.6132
      8 N1          2.6361    2.1277    0.9997 N.am      1 <0>        -0.6828
      9 C6          3.0174    0.8393    0.8938 C.2       1 <0>         0.5779
     10 O2          2.1892   -0.0486    0.9719 O.2       1 <0>        -0.5214
     11 C7          4.4333    0.5069    0.6839 C.2       1 <0>         0.1335
     12 C8          4.9845    0.6392   -0.5451 C.2       1 <0>        -0.1800
     13 C9          4.1594    1.0876   -1.6764 C.ar      1 <0>        -0.0676
     14 C10         2.8452    0.6282   -1.8143 C.ar      1 <0>        -0.0887
     15 C11         2.0766    1.0566   -2.8752 C.ar      1 <0>        -0.1196
     16 C12         2.6038    1.9320   -3.8096 C.ar      1 <0>        -0.0934
     17 C13         3.9035    2.3882   -3.6857 C.ar      1 <0>        -0.1554
     18 C14         4.6867    1.9728   -2.6256 C.ar      1 <0>         0.1016
     19 F1          5.9564    2.4184   -2.5053 F         1 <0>        -0.1389
     20 N2          5.2113    0.0539    1.7542 N.am      1 <0>        -0.6596
     21 C15         4.6342   -0.2075    2.9437 C.2       1 <0>         0.5273
     22 O3          3.4258   -0.1418    3.0606 O.2       1 <0>        -0.4258
     23 C16         5.4703   -0.5739    4.1062 C.ar      1 <0>        -0.1215
     24 C17         6.8575   -0.6558    3.9740 C.ar      1 <0>        -0.0914
     25 C18         7.6325   -0.9927    5.0644 C.ar      1 <0>        -0.1306
     26 C19         7.0368   -1.2600    6.2843 C.ar      1 <0>        -0.0981
     27 C20         5.6619   -1.1867    6.4207 C.ar      1 <0>        -0.1259
     28 C21         4.8757   -0.8453    5.3397 C.ar      1 <0>        -0.0511
     29 H2          2.3182    3.6668   -0.9075 H         1 <0>         0.0466
     30 H3          0.6695    3.1222   -1.2992 H         1 <0>         0.0518
     31 H4          1.0268    4.8617   -1.1769 H         1 <0>         0.0474
     32 H5          1.5013    4.5942    1.2421 H         1 <0>         0.0618
     33 H6         -0.8201    4.1094    1.9665 H         1 <0>         0.1048
     34 H7         -0.8060    5.1201    0.5014 H         1 <0>         0.0354
     35 H8         -1.1632    3.3807    0.3791 H         1 <0>         0.0434
     36 H9          3.2882    2.8371    0.8887 H         1 <0>         0.3888
     37 H10         6.0304    0.4154   -0.6948 H         1 <0>         0.1344
     38 H11         2.4327   -0.0578   -1.0893 H         1 <0>         0.1480
     39 H12         1.0607    0.7052   -2.9802 H         1 <0>         0.1285
     40 H13         1.9966    2.2602   -4.6403 H         1 <0>         0.1289
     41 H14         4.3073    3.0702   -4.4192 H         1 <0>         0.1320
     42 H15         6.1663   -0.0722    1.6403 H         1 <0>         0.4084
     43 H16         7.3234   -0.4515    3.0213 H         1 <0>         0.1231
     44 H17         8.7062   -1.0521    4.9647 H         1 <0>         0.1270
     45 H18         7.6477   -1.5274    7.1338 H         1 <0>         0.1254
     46 H19         5.2031   -1.3968    7.3755 H         1 <0>         0.1304
     47 H20         3.8026   -0.7884    5.4474 H         1 <0>         0.1418
     48 O4         -0.2039    2.7352    3.2681 O.co2     1 <0>        -0.7645
@<TRIPOS>BOND
     1    1    2 1
     2    1   29 1
     3    1   30 1
     4    1   31 1
     5    2    3 1
     6    2    4 1
     7    2   32 1
     8    3   33 1
     9    3   34 1
    10    3   35 1
    11    4    5 1
    12    4    6 1
    13    4    8 1
    14    6    7 2
    15    6   48 1
    16    8    9 am
    17    8   36 1
    18    9   10 2
    19    9   11 1
    20   11   12 2
    21   11   20 1
    22   12   13 1
    23   12   37 1
    24   13   18 ar
    25   13   14 ar
    26   14   15 ar
    27   14   38 1
    28   15   16 ar
    29   15   39 1
    30   16   17 ar
    31   16   40 1
    32   17   18 ar
    33   17   41 1
    34   18   19 1
    35   20   21 am
    36   20   42 1
    37   21   22 2
    38   21   23 1
    39   23   28 ar
    40   23   24 ar
    41   24   25 ar
    42   24   43 1
    43   25   26 ar
    44   25   44 1
    45   26   27 ar
    46   26   45 1
    47   27   28 ar
    48   27   46 1
    49   28   47 1
@<TRIPOS>MOLECULE
ZINC03780014
   56    57     0     0     0
SMALL
USER_CHARGES

@<TRIPOS>ATOM
      1 C1         -4.9014   -2.7959   -0.2874 C.3       1 <0>        -0.1475
      2 C2         -3.5376   -2.8042   -0.9809 C.3       1 <0>        -0.0930
      3 C3         -3.1945   -1.3884   -1.4484 C.3       1 <0>        -0.1554
      4 C4         -2.4693   -3.2902    0.0006 C.3       1 <0>        -0.1061
      5 C5         -1.1289   -3.4171   -0.7262 C.3       1 <0>        -0.1051
      6 H1         -0.8997   -2.4792   -1.2321 H         1 <0>         0.1276
      7 C6         -1.2122   -4.5451   -1.7565 C.3       1 <0>        -0.1172
      8 C7         -1.5195   -3.9649   -3.1129 C.2       1 <0>         0.5263
      9 O1         -1.2277   -2.8140   -3.3604 O.2       1 <0>        -0.5111
     10 N1         -2.1186   -4.7249   -4.0510 N.am      1 <0>        -0.5983
     11 O2         -2.4073   -4.1798   -5.3255 O.3       1 <0>        -0.3184
     12 C8         -0.0436   -3.7277    0.2721 C.2       1 <0>         0.5307
     13 O3          0.4797   -4.8218    0.2782 O.2       1 <0>        -0.5430
     14 N2          0.3456   -2.7896    1.1581 N.am      1 <0>        -0.6970
     15 C9          1.4614   -3.0597    2.0683 C.3       1 <0>         0.1359
     16 H2          2.1702   -3.7318    1.5846 H         1 <0>         0.1120
     17 C10         2.1624   -1.7460    2.4196 C.3       1 <0>        -0.0434
     18 C11         2.7912   -1.1648    1.1795 C.2       1 <0>        -0.1770
     19 C12         4.0613   -1.3280    0.7767 C.2       1 <0>         0.0630
     20 N3          4.2699   -0.6520   -0.3945 N.pl3     1 <0>        -0.5937
     21 H3          5.1101   -0.6216   -0.8783 H         1 <0>         0.4168
     22 C13         3.1096   -0.0211   -0.7839 C.ar      1 <0>         0.0948
     23 C14         2.1307   -0.3199    0.1817 C.ar      1 <0>        -0.0926
     24 C15         0.8375    0.1869    0.0425 C.ar      1 <0>        -0.0773
     25 C16         0.5277    0.9690   -1.0346 C.ar      1 <0>        -0.1349
     26 C17         1.4886    1.2632   -1.9919 C.ar      1 <0>        -0.0949
     27 C18         2.7736    0.7811   -1.8692 C.ar      1 <0>        -0.1271
     28 C19         0.9385   -3.7024    3.3271 C.2       1 <0>         0.5025
     29 O4         -0.2172   -3.5389    3.6565 O.2       1 <0>        -0.5287
     30 N4          1.7552   -4.4590    4.0868 N.am      1 <0>        -0.7323
     31 C20         1.2469   -5.0838    5.3105 C.3       1 <0>         0.0869
     32 H4         -5.6625   -2.4497   -0.9866 H         1 <0>         0.0552
     33 H5         -5.1458   -3.8046    0.0457 H         1 <0>         0.0533
     34 H6         -4.8674   -2.1275    0.5729 H         1 <0>         0.0568
     35 H7         -3.5716   -3.4727   -1.8412 H         1 <0>         0.0647
     36 H8         -3.2493   -0.7032   -0.6024 H         1 <0>         0.0525
     37 H9         -2.1857   -1.3764   -1.8609 H         1 <0>         0.0736
     38 H10        -3.9042   -1.0768   -2.2148 H         1 <0>         0.0517
     39 H11        -2.3735   -2.5744    0.8171 H         1 <0>         0.0747
     40 H12        -2.7588   -4.2617    0.4012 H         1 <0>         0.0715
     41 H13        -0.2596   -5.0735   -1.7946 H         1 <0>         0.1205
     42 H14        -2.0020   -5.2401   -1.4712 H         1 <0>         0.0973
     43 H15        -2.3519   -5.6454   -3.8530 H         1 <0>         0.4079
     44 H16        -2.8369   -4.7999   -5.9305 H         1 <0>         0.3870
     45 H17        -0.1130   -1.9356    1.1932 H         1 <0>         0.4054
     46 H18         1.4341   -1.0418    2.8219 H         1 <0>         0.0844
     47 H19         2.9354   -1.9346    3.1647 H         1 <0>         0.0914
     48 H20         4.8080   -1.9070    1.2999 H         1 <0>         0.1699
     49 H21         0.0845   -0.0385    0.7831 H         1 <0>         0.1149
     50 H22        -0.4730    1.3609   -1.1419 H         1 <0>         0.1230
     51 H23         1.2283    1.8821   -2.8378 H         1 <0>         0.1250
     52 H24         3.5139    1.0147   -2.6201 H         1 <0>         0.1186
     53 H25         2.6795   -4.5898    3.8233 H         1 <0>         0.4024
     54 H26         2.0457   -5.6518    5.7873 H         1 <0>         0.0763
     55 H27         0.8932   -4.3111    5.9931 H         1 <0>         0.0605
     56 H28         0.4236   -5.7533    5.0616 H         1 <0>         0.0594
@<TRIPOS>BOND
     1    1    2 1
     2    1   32 1
     3    1   33 1
     4    1   34 1
     5    2    3 1
     6    2    4 1
     7    2   35 1
     8    3   36 1
     9    3   37 1
    10    3   38 1
    11    4    5 1
    12    4   39 1
    13    4   40 1
    14    5    6 1
    15    5    7 1
    16    5   12 1
    17    7    8 1
    18    7   41 1
    19    7   42 1
    20    8    9 2
    21    8   10 am
    22   10   11 1
    23   10   43 1
    24   11   44 1
    25   12   13 2
    26   12   14 am
    27   14   15 1
    28   14   45 1
    29   15   16 1
    30   15   17 1
    31   15   28 1
    32   17   18 1
    33   17   46 1
    34   17   47 1
    35   18   23 1
    36   18   19 2
    37   19   20 1
    38   19   48 1
    39   20   21 1
    40   20   22 1
    41   22   27 ar
    42   22   23 ar
    43   23   24 ar
    44   24   25 ar
    45   24   49 1
    46   25   26 ar
    47   25   50 1
    48   26   27 ar
    49   26   51 1
    50   27   52 1
    51   28   29 2
    52   28   30 am
    53   30   31 1
    54   30   53 1
    55   31   54 1
    56   31   55 1
    57   31   56 1
@<TRIPOS>MOLECULE
ZINC08926187
   39    40     0     0     0
SMALL
USER_CHARGES
2-[2-[(5-bromo-2-furyl)carbonylamino]-3-(4-bromophenyl)-prop-2-enoyl]aminopropanoic acid
@<TRIPOS>ATOM
      1 C1          1.5529    1.0123    0.0504 C.3       1 <0>        -0.1381
      2 C2          0.5527    2.0203   -0.5194 C.3       1 <0>         0.1008
      3 H1          0.6066    2.0098   -1.6080 H         1 <0>         0.0886
      4 C3          0.8863    3.4000   -0.0132 C.2       1 <0>         0.4661
      5 O1          0.2829    3.8608    0.9267 O.co2     1 <0>        -0.6340
      6 N1         -0.8016    1.6582   -0.0940 N.am      1 <0>        -0.6781
      7 C4         -1.5238    0.7812   -0.8190 C.2       1 <0>         0.5731
      8 O2         -1.0834    0.3512   -1.8684 O.2       1 <0>        -0.5406
      9 C5         -2.8439    0.3441   -0.3417 C.2       1 <0>         0.0998
     10 C6         -3.8862    1.2067   -0.3507 C.2       1 <0>        -0.1400
     11 C7         -3.7383    2.5325   -0.9705 C.ar      1 <0>        -0.0376
     12 C8         -4.4544    3.6256   -0.4713 C.ar      1 <0>        -0.0983
     13 C9         -4.3074    4.8659   -1.0546 C.ar      1 <0>        -0.0911
     14 C10        -3.4609    5.0292   -2.1387 C.ar      1 <0>        -0.0819
     15 C11        -2.7523    3.9505   -2.6415 C.ar      1 <0>        -0.0771
     16 C12        -2.8854    2.7052   -2.0656 C.ar      1 <0>        -0.1101
     17 Br1        -3.2713    6.7334   -2.9359 Br        1 <0>        -0.0569
     18 N2         -3.0222   -0.9628    0.1213 N.am      1 <0>        -0.6444
     19 C13        -1.9608   -1.7838    0.2472 C.2       1 <0>         0.5936
     20 O3         -0.8371   -1.3610    0.0465 O.2       1 <0>        -0.4528
     21 C14        -2.1595   -3.1853    0.6257 C.2       1 <0>        -0.0489
     22 C15        -1.1769   -4.1215    0.7821 C.2       1 <0>        -0.1088
     23 C16        -1.8129   -5.3171    1.1481 C.2       1 <0>        -0.1611
     24 C17        -3.1416   -5.0645    1.1907 C.2       1 <0>        -0.0040
     25 O4         -3.3457   -3.7787    0.8752 O.3       1 <0>        -0.1488
     26 Br2        -4.4880   -6.3195    1.6245 Br        1 <0>         0.0634
     27 H2          1.3116    0.0144   -0.3157 H         1 <0>         0.0591
     28 H3          2.5605    1.2817   -0.2661 H         1 <0>         0.0635
     29 H4          1.4990    1.0228    1.1390 H         1 <0>         0.0473
     30 H5         -1.1800    2.0527    0.7073 H         1 <0>         0.4041
     31 H6         -4.8268    0.9219    0.0973 H         1 <0>         0.1399
     32 H7         -5.1182    3.4988    0.3712 H         1 <0>         0.1331
     33 H8         -4.8565    5.7116   -0.6677 H         1 <0>         0.1324
     34 H9         -2.0941    4.0854   -3.4871 H         1 <0>         0.1332
     35 H10        -2.3327    1.8649   -2.4592 H         1 <0>         0.1467
     36 H11        -3.9098   -1.2787    0.3521 H         1 <0>         0.4182
     37 H12        -0.1157   -3.9700    0.6510 H         1 <0>         0.1745
     38 H13        -1.3327   -6.2623    1.3536 H         1 <0>         0.1709
     39 O5          1.8536    4.1168   -0.6065 O.co2     1 <0>        -0.7559
@<TRIPOS>BOND
     1    1    2 1
     2    1   27 1
     3    1   28 1
     4    1   29 1
     5    2    3 1
     6    2    4 1
     7    2    6 1
     8    4    5 2
     9    4   39 1
    10    6    7 am
    11    6   30 1
    12    7    8 2
    13    7    9 1
    14    9   10 2
    15    9   18 1
    16   10   11 1
    17   10   31 1
    18   11   16 ar
    19   11   12 ar
    20   12   13 ar
    21   12   32 1
    22   13   14 ar
    23   13   33 1
    24   14   15 ar
    25   14   17 1
    26   15   16 ar
    27   15   34 1
    28   16   35 1
    29   18   19 am
    30   18   36 1
    31   19   20 2
    32   19   21 1
    33   21   25 1
    34   21   22 2
    35   22   23 1
    36   22   37 1
    37   23   24 2
    38   23   38 1
    39   24   25 1
    40   24   26 1
@<TRIPOS>MOLECULE
ZINC13512169
   39    40     0     0     0
SMALL
USER_CHARGES

@<TRIPOS>ATOM
      1 C1          0.7183   -2.4878    0.1081 C.3       1 <0>        -0.1368
      2 C2          0.2435   -2.1626   -1.3096 C.3       1 <0>         0.0765
      3 H1          0.5652   -1.1566   -1.5787 H         1 <0>         0.0788
      4 C3          0.8350   -3.1549   -2.2774 C.2       1 <0>         0.4973
      5 O1          0.1197   -3.9833   -2.8145 O.co2     1 <0>        -0.6892
      6 O2          2.0289   -3.1292   -2.5232 O.co2     1 <0>        -0.6874
      7 N1         -1.2185   -2.2390   -1.3645 N.am      1 <0>        -0.6744
      8 C4         -1.9627   -1.1728   -1.0096 C.2       1 <0>         0.5672
      9 O3         -1.4254   -0.1787   -0.5590 O.2       1 <0>        -0.5375
     10 C5         -3.4239   -1.2112   -1.1671 C.2       1 <0>         0.0986
     11 C6         -3.9712   -1.2135   -2.4045 C.2       1 <0>        -0.1391
     12 C7         -3.1192   -1.0080   -3.5858 C.ar      1 <0>        -0.0338
     13 C8         -3.4525   -1.6063   -4.8056 C.ar      1 <0>        -0.0970
     14 C9         -2.6495   -1.4088   -5.9084 C.ar      1 <0>        -0.0903
     15 C10        -1.5150   -0.6201   -5.8110 C.ar      1 <0>        -0.0811
     16 C11        -1.1785   -0.0245   -4.6067 C.ar      1 <0>        -0.0781
     17 C12        -1.9747   -0.2085   -3.4966 C.ar      1 <0>        -0.1083
     18 Br1        -0.4197   -0.3559   -7.3297 Br        1 <0>        -0.0587
     19 N2         -4.2479   -1.2453   -0.0384 N.am      1 <0>        -0.6451
     20 C13        -3.7043   -1.3593    1.1896 C.2       1 <0>         0.5908
     21 O4         -2.4945   -1.3458    1.3233 O.2       1 <0>        -0.4497
     22 C14        -4.5696   -1.4994    2.3636 C.2       1 <0>        -0.0486
     23 C15        -4.1520   -1.6176    3.6591 C.2       1 <0>        -0.1101
     24 C16        -5.3071   -1.7265    4.4474 C.2       1 <0>        -0.1611
     25 C17        -6.3680   -1.6707    3.6094 C.2       1 <0>        -0.0045
     26 O5         -5.9190   -1.5285    2.3553 O.3       1 <0>        -0.1487
     27 Br2        -8.1849   -1.7705    4.1242 Br        1 <0>         0.0630
     28 H2          1.8061   -2.4310    0.1489 H         1 <0>         0.0617
     29 H3          0.2905   -1.7701    0.8081 H         1 <0>         0.0543
     30 H4          0.3967   -3.4938    0.3772 H         1 <0>         0.0448
     31 H5         -1.6508   -3.0568   -1.6562 H         1 <0>         0.4042
     32 H6         -5.0335   -1.3662   -2.5249 H         1 <0>         0.1391
     33 H7         -4.3366   -2.2218   -4.8829 H         1 <0>         0.1325
     34 H8         -2.9054   -1.8703   -6.8507 H         1 <0>         0.1317
     35 H9         -0.2922    0.5889   -4.5382 H         1 <0>         0.1317
     36 H10        -1.7134    0.2599   -2.5592 H         1 <0>         0.1449
     37 H11        -5.2109   -1.1870   -0.1390 H         1 <0>         0.4174
     38 H12        -3.1301   -1.6263    4.0085 H         1 <0>         0.1742
     39 H13        -5.3430   -1.8348    5.5214 H         1 <0>         0.1707
@<TRIPOS>BOND
     1    1    2 1
     2    1   28 1
     3    1   29 1
     4    1   30 1
     5    2    3 1
     6    2    4 1
     7    2    7 1
     8    4    5 2
     9    4    6 1
    10    7    8 am
    11    7   31 1
    12    8    9 2
    13    8   10 1
    14   10   11 2
    15   10   19 1
    16   11   12 1
    17   11   32 1
    18   12   17 ar
    19   12   13 ar
    20   13   14 ar
    21   13   33 1
    22   14   15 ar
    23   14   34 1
    24   15   16 ar
    25   15   18 1
    26   16   17 ar
    27   16   35 1
    28   17   36 1
    29   19   20 am
    30   19   37 1
    31   20   21 2
    32   20   22 1
    33   22   26 1
    34   22   23 2
    35   23   24 1
    36   23   38 1
    37   24   25 2
    38   24   39 1
    39   25   26 1
    40   25   27 1
@<TRIPOS>MOLECULE
ZINC13512169
   39    40     0     0     0
SMALL
USER_CHARGES

@<TRIPOS>ATOM
      1 C1          0.3744   -1.1546   -1.2764 C.3       1 <0>        -0.1074
      2 C2         -0.5663   -1.5437   -0.1343 C.3       1 <0>         0.0021
      3 H1         -1.1764   -0.6840    0.1428 H         1 <0>         0.0543
      4 C3         -1.4607   -2.6709   -0.5821 C.2       1 <0>         0.5063
      5 O1         -1.3151   -3.7873   -0.1142 O.co2     1 <0>        -0.6765
      6 O2         -2.3299   -2.4665   -1.4123 O.co2     1 <0>        -0.6987
      7 N1          0.2223   -1.9760    1.0222 N.2       1 <0>        -0.4352
      8 C4          0.1179   -1.3419    2.1556 C.2       1 <0>         0.3331
      9 C5          0.9107   -1.7765    3.3182 C.2       1 <0>         0.1527
     10 C6          0.3134   -2.4380    4.3345 C.2       1 <0>        -0.1383
     11 C7         -1.0924   -2.8560    4.2147 C.ar      1 <0>        -0.0503
     12 C8         -1.6060   -3.2466    2.9739 C.ar      1 <0>        -0.0955
     13 C9         -2.9239   -3.6375    2.8695 C.ar      1 <0>        -0.0707
     14 C10        -3.7387   -3.6440    3.9894 C.ar      1 <0>        -0.0881
     15 C11        -3.2372   -3.2581    5.2213 C.ar      1 <0>        -0.1045
     16 C12        -1.9197   -2.8702    5.3422 C.ar      1 <0>        -0.1079
     17 Br1        -5.5451   -4.1819    3.8356 Br        1 <0>        -0.0643
     18 N2          2.2793   -1.5052    3.3707 N.am      1 <0>        -0.6490
     19 C13         2.8897   -0.9140    2.3246 C.2       1 <0>         0.5941
     20 O3          2.2338   -0.5357    1.3715 O.2       1 <0>        -0.4502
     21 C14         4.3428   -0.7266    2.3345 C.2       1 <0>        -0.0474
     22 C15         5.0834   -0.1407    1.3471 C.2       1 <0>        -0.1121
     23 C16         6.4200   -0.1731    1.7717 C.2       1 <0>        -0.1610
     24 C17         6.4379   -0.7703    2.9857 C.2       1 <0>        -0.0058
     25 O4          5.1834   -1.0973    3.3232 O.3       1 <0>        -0.1491
     26 Br2         7.9787   -1.0846    4.0360 Br        1 <0>         0.0615
     27 O5         -0.7191   -0.2840    2.2646 O.3       1 <0>        -0.4974
     28 H2          0.9845   -2.0143   -1.5535 H         1 <0>         0.0495
     29 H3         -0.2123   -0.8330   -2.1369 H         1 <0>         0.0562
     30 H4          1.0213   -0.3393   -0.9525 H         1 <0>         0.0444
     31 H5          0.8678   -2.6596    5.2344 H         1 <0>         0.1381
     32 H6         -0.9719   -3.2417    2.0997 H         1 <0>         0.1782
     33 H7         -3.3221   -3.9391    1.9119 H         1 <0>         0.1396
     34 H8         -3.8785   -3.2653    6.0903 H         1 <0>         0.1276
     35 H9         -1.5287   -2.5741    6.3044 H         1 <0>         0.1282
     36 H10         2.7908   -1.7422    4.1601 H         1 <0>         0.4171
     37 H11         4.7117    0.2678    0.4190 H         1 <0>         0.1732
     38 H12         7.2742    0.2069    1.2310 H         1 <0>         0.1698
     39 H13        -0.6723    0.1682    3.1181 H         1 <0>         0.3834
@<TRIPOS>BOND
     1    1    2 1
     2    1   28 1
     3    1   29 1
     4    1   30 1
     5    2    3 1
     6    2    4 1
     7    2    7 1
     8    4    5 2
     9    4    6 1
    10    7    8 2
    11    8    9 1
    12    8   27 1
    13    9   10 2
    14    9   18 1
    15   10   11 1
    16   10   31 1
    17   11   16 ar
    18   11   12 ar
    19   12   13 ar
    20   12   32 1
    21   13   14 ar
    22   13   33 1
    23   14   15 ar
    24   14   17 1
    25   15   16 ar
    26   15   34 1
    27   16   35 1
    28   18   19 am
    29   18   36 1
    30   19   20 2
    31   19   21 1
    32   21   25 1
    33   21   22 2
    34   22   23 1
    35   22   37 1
    36   23   24 2
    37   23   38 1
    38   24   25 1
    39   24   26 1
    40   27   39 1
@<TRIPOS>MOLECULE
ZINC12381018
   36    37     0     0     0
SMALL
USER_CHARGES

@<TRIPOS>ATOM
      1 C1          1.8936    1.5586    1.2116 C.3       1 <0>        -0.1371
      2 C2          1.2899    1.2694   -0.1642 C.3       1 <0>         0.0777
      3 H1          0.4746    0.5535   -0.0600 H         1 <0>         0.0808
      4 C3          0.7619    2.5489   -0.7601 C.2       1 <0>         0.4979
      5 O1          1.4131    3.1434   -1.6022 O.co2     1 <0>        -0.6922
      6 O2         -0.3164    2.9895   -0.4002 O.co2     1 <0>        -0.6910
      7 N1          2.3211    0.7108   -1.0422 N.am      1 <0>        -0.6731
      8 C4          2.5580   -0.6160   -1.0443 C.2       1 <0>         0.5710
      9 O3          1.8641   -1.3592   -0.3749 O.2       1 <0>        -0.5339
     10 C5          3.6507   -1.1639   -1.8523 C.2       1 <0>         0.1078
     11 C6          3.4435   -1.4637   -3.1620 C.2       1 <0>        -0.1188
     12 C7          2.2021   -1.1566   -3.7710 C.2       1 <0>         0.0146
     13 C8          1.8219   -1.4901   -5.0540 C.2       1 <0>        -0.1900
     14 C9          0.5221   -0.9880   -5.2289 C.2       1 <0>        -0.2251
     15 C10         0.1690   -0.3829   -4.0743 C.2       1 <0>        -0.0111
     16 O4          1.1785   -0.4907   -3.1975 O.3       1 <0>        -0.1477
     17 N2          4.9078   -1.3785   -1.2757 N.am      1 <0>        -0.6457
     18 C11         5.0923   -1.1559    0.0407 C.2       1 <0>         0.5904
     19 O5          4.1469   -0.8527    0.7451 O.2       1 <0>        -0.4564
     20 C12         6.4317   -1.2789    0.6245 C.2       1 <0>        -0.0767
     21 C13         6.7557   -1.0873    1.9372 C.2       1 <0>        -0.1103
     22 C14         8.1375   -1.3076    2.0481 C.2       1 <0>        -0.2237
     23 C15         8.5908   -1.6200    0.8140 C.2       1 <0>        -0.0041
     24 O6          7.5590   -1.6070   -0.0401 O.3       1 <0>        -0.1658
     25 H2          2.2755    0.6332    1.6427 H         1 <0>         0.0558
     26 H3          2.7089    2.2745    1.1075 H         1 <0>         0.0447
     27 H4          1.1264    1.9742    1.8649 H         1 <0>         0.0588
     28 H5          2.8333    1.2958   -1.6221 H         1 <0>         0.4012
     29 H6          4.2254   -1.9361   -3.7381 H         1 <0>         0.1552
     30 H7          2.4089   -2.0308   -5.7817 H         1 <0>         0.1480
     31 H8         -0.0822   -1.0701   -6.1202 H         1 <0>         0.1475
     32 H9         -0.7756    0.1057   -3.8858 H         1 <0>         0.2001
     33 H10         5.6463   -1.6874   -1.8235 H         1 <0>         0.4173
     34 H11         6.0798   -0.8179    2.7353 H         1 <0>         0.1635
     35 H12         8.7277   -1.2396    2.9501 H         1 <0>         0.1586
     36 H13         9.6154   -1.8471    0.5592 H         1 <0>         0.2119
@<TRIPOS>BOND
     1    1    2 1
     2    1   25 1
     3    1   26 1
     4    1   27 1
     5    2    3 1
     6    2    4 1
     7    2    7 1
     8    4    5 2
     9    4    6 1
    10    7    8 am
    11    7   28 1
    12    8    9 2
    13    8   10 1
    14   10   11 2
    15   10   17 1
    16   11   12 1
    17   11   29 1
    18   12   16 1
    19   12   13 2
    20   13   14 1
    21   13   30 1
    22   14   15 2
    23   14   31 1
    24   15   16 1
    25   15   32 1
    26   17   18 am
    27   17   33 1
    28   18   19 2
    29   18   20 1
    30   20   24 1
    31   20   21 2
    32   21   22 1
    33   21   34 1
    34   22   23 2
    35   22   35 1
    36   23   24 1
    37   23   36 1
@<TRIPOS>MOLECULE
ZINC12381020
   36    37     0     0     0
SMALL
USER_CHARGES

@<TRIPOS>ATOM
      1 C1          0.2913    1.3389    2.5074 C.3       1 <0>        -0.1316
      2 C2         -0.2332    1.2301    1.0743 C.3       1 <0>         0.0804
      3 H1          0.3714    0.5125    0.5196 H         1 <0>         0.0758
      4 C3         -0.1520    2.5783    0.4059 C.2       1 <0>         0.4970
      5 O1          0.9343    3.0921    0.1999 O.co2     1 <0>        -0.6894
      6 O2         -1.1726    3.1553    0.0713 O.co2     1 <0>        -0.6922
      7 N1         -1.6270    0.7796    1.0973 N.am      1 <0>        -0.6683
      8 C4         -1.9099   -0.5287    1.2551 C.2       1 <0>         0.5721
      9 O3         -1.0134   -1.3236    1.4705 O.2       1 <0>        -0.5412
     10 C5         -3.2965   -0.9942    1.1674 C.2       1 <0>         0.1093
     11 C6         -3.8423   -1.2799   -0.0445 C.2       1 <0>        -0.1200
     12 C7         -3.0401   -1.2344   -1.2110 C.2       1 <0>         0.0210
     13 C8         -3.4813   -1.3969   -2.5074 C.2       1 <0>        -0.1911
     14 C9         -2.3513   -1.2748   -3.3323 C.2       1 <0>        -0.2210
     15 C10        -1.2913   -1.0482   -2.5267 C.2       1 <0>        -0.0193
     16 O4         -1.7090   -1.0186   -1.2523 O.3       1 <0>        -0.1502
     17 N2         -4.0591   -1.1448    2.3313 N.am      1 <0>        -0.6461
     18 C11        -3.5567   -0.7585    3.5208 C.2       1 <0>         0.5919
     19 O5         -2.4821   -0.1889    3.5716 O.2       1 <0>        -0.4590
     20 C12        -4.3045   -1.0242    4.7537 C.2       1 <0>        -0.0768
     21 C13        -3.9154   -0.6835    6.0176 C.2       1 <0>        -0.1098
     22 C14        -4.9263   -1.1271    6.8845 C.2       1 <0>        -0.2237
     23 C15        -5.8761   -1.7118    6.1216 C.2       1 <0>        -0.0041
     24 O6         -5.5004   -1.6431    4.8377 O.3       1 <0>        -0.1659
     25 H2          1.3284    1.6740    2.4903 H         1 <0>         0.0590
     26 H3         -0.3133    2.0564    3.0621 H         1 <0>         0.0451
     27 H4          0.2326    0.3637    2.9908 H         1 <0>         0.0521
     28 H5         -2.3463    1.4229    0.9989 H         1 <0>         0.4019
     29 H6         -4.8876   -1.5415   -0.1179 H         1 <0>         0.1560
     30 H7         -4.4965   -1.5823   -2.8257 H         1 <0>         0.1487
     31 H8         -2.3333   -1.3486   -4.4097 H         1 <0>         0.1476
     32 H9         -0.2721   -0.9092   -2.8558 H         1 <0>         0.1997
     33 H10        -4.9491   -1.5273    2.2819 H         1 <0>         0.4172
     34 H11        -3.0058   -0.1722    6.2962 H         1 <0>         0.1639
     35 H12        -4.9418   -1.0216    7.9592 H         1 <0>         0.1587
     36 H13        -6.7898   -2.1573    6.4865 H         1 <0>         0.2120
@<TRIPOS>BOND
     1    1    2 1
     2    1   25 1
     3    1   26 1
     4    1   27 1
     5    2    3 1
     6    2    4 1
     7    2    7 1
     8    4    5 2
     9    4    6 1
    10    7    8 am
    11    7   28 1
    12    8    9 2
    13    8   10 1
    14   10   11 2
    15   10   17 1
    16   11   12 1
    17   11   29 1
    18   12   16 1
    19   12   13 2
    20   13   14 1
    21   13   30 1
    22   14   15 2
    23   14   31 1
    24   15   16 1
    25   15   32 1
    26   17   18 am
    27   17   33 1
    28   18   19 2
    29   18   20 1
    30   20   24 1
    31   20   21 2
    32   21   22 1
    33   21   34 1
    34   22   23 2
    35   22   35 1
    36   23   24 1
    37   23   36 1
@<TRIPOS>MOLECULE
ZINC02955579
   36    37     0     0     0
SMALL
USER_CHARGES
2-[3-(3-bromophenyl)-2-(2-furylcarbonylamino)prop-2-enoyl]aminoacetic acid
@<TRIPOS>ATOM
      1 C1         -3.1342    3.2540   -0.9087 C.ar      1 <0>        -0.1147
      2 C2         -2.2739    2.3532   -0.3167 C.ar      1 <0>        -0.0894
      3 C3         -0.9405    2.2875   -0.7331 C.ar      1 <0>        -0.0429
      4 C4         -0.4926    3.1294   -1.7564 C.ar      1 <0>        -0.0899
      5 C5         -1.3666    4.0213   -2.3427 C.ar      1 <0>        -0.0818
      6 C6         -2.6843    4.0838   -1.9204 C.ar      1 <0>        -0.0905
      7 Br1        -0.7646    5.1605   -3.7268 Br        1 <0>        -0.0498
      8 C7         -0.0151    1.3336   -0.1023 C.2       1 <0>        -0.1471
      9 C8          1.2771    1.6785    0.1012 C.2       1 <0>         0.1062
     10 C9          1.7195    3.0570   -0.1566 C.2       1 <0>         0.5687
     11 O1          2.3448    3.3162   -1.1674 O.2       1 <0>        -0.5379
     12 N1          1.4322    4.0333    0.7270 N.am      1 <0>        -0.6809
     13 C10         1.7680    5.4250    0.4159 C.3       1 <0>         0.0818
     14 C11         1.3454    6.3113    1.5590 C.2       1 <0>         0.4619
     15 O2          0.8177    5.8300    2.5336 O.co2     1 <0>        -0.6362
     16 N2          2.1916    0.7247    0.5564 N.am      1 <0>        -0.6475
     17 C12         3.4646    1.0824    0.8175 C.2       1 <0>         0.5931
     18 O3          3.7988    2.2496    0.7305 O.2       1 <0>        -0.4604
     19 C13         4.4467    0.0656    1.2064 C.2       1 <0>        -0.0779
     20 C14         5.7620    0.2902    1.4972 C.2       1 <0>        -0.1092
     21 C15         6.3232   -0.9562    1.8164 C.2       1 <0>        -0.2234
     22 C16         5.3385   -1.8753    1.7078 C.2       1 <0>        -0.0038
     23 O4          4.2080   -1.2549    1.3453 O.3       1 <0>        -0.1659
     24 H1         -4.1631    3.3085   -0.5851 H         1 <0>         0.1321
     25 H2         -2.6281    1.7032    0.4698 H         1 <0>         0.1311
     26 H3          0.5347    3.0817   -2.0862 H         1 <0>         0.1523
     27 H4         -3.3642    4.7837   -2.3833 H         1 <0>         0.1310
     28 H5         -0.3662    0.3563    0.1943 H         1 <0>         0.1406
     29 H6          1.0030    3.8146    1.5689 H         1 <0>         0.4059
     30 H7          2.8439    5.5142    0.2655 H         1 <0>         0.0756
     31 H8          1.2477    5.7300   -0.4920 H         1 <0>         0.0725
     32 H9          1.9102   -0.1947    0.6844 H         1 <0>         0.4177
     33 H10         6.2717    1.2422    1.4841 H         1 <0>         0.1641
     34 H11         7.3491   -1.1452    2.0961 H         1 <0>         0.1590
     35 H12         5.4444   -2.9348    1.8883 H         1 <0>         0.2122
     36 O5          1.5551    7.6356    1.4945 O.co2     1 <0>        -0.7566
@<TRIPOS>BOND
     1    1    6 ar
     2    1    2 ar
     3    1   24 1
     4    2    3 ar
     5    2   25 1
     6    3    4 ar
     7    3    8 1
     8    4    5 ar
     9    4   26 1
    10    5    6 ar
    11    5    7 1
    12    6   27 1
    13    8    9 2
    14    8   28 1
    15    9   10 1
    16    9   16 1
    17   10   11 2
    18   10   12 am
    19   12   13 1
    20   12   29 1
    21   13   14 1
    22   13   30 1
    23   13   31 1
    24   14   15 2
    25   14   36 1
    26   16   17 am
    27   16   32 1
    28   17   18 2
    29   17   19 1
    30   19   23 1
    31   19   20 2
    32   20   21 1
    33   20   33 1
    34   21   22 2
    35   21   34 1
    36   22   23 1
    37   22   35 1
