@<TRIPOS>MOLECULE
ZINC03780014
   56    57     0     0     0
SMALL
USER_CHARGES

@<TRIPOS>ATOM
      1 C1         -4.9014   -2.7959   -0.2874 C.3       1 <0>        -0.1475
      2 C2         -3.5376   -2.8042   -0.9809 C.3       1 <0>        -0.0930
      3 C3         -3.1945   -1.3884   -1.4484 C.3       1 <0>        -0.1554
      4 C4         -2.4693   -3.2902    0.0006 C.3       1 <0>        -0.1061
      5 C5         -1.1289   -3.4171   -0.7262 C.3       1 <0>        -0.1051
      6 H1         -0.8997   -2.4792   -1.2321 H         1 <0>         0.1276
      7 C6         -1.2122   -4.5451   -1.7565 C.3       1 <0>        -0.1172
      8 C7         -1.5195   -3.9649   -3.1129 C.2       1 <0>         0.5263
      9 O1         -1.2277   -2.8140   -3.3604 O.2       1 <0>        -0.5111
     10 N1         -2.1186   -4.7249   -4.0510 N.am      1 <0>        -0.5983
     11 O2         -2.4073   -4.1798   -5.3255 O.3       1 <0>        -0.3184
     12 C8         -0.0436   -3.7277    0.2721 C.2       1 <0>         0.5307
     13 O3          0.4797   -4.8218    0.2782 O.2       1 <0>        -0.5430
     14 N2          0.3456   -2.7896    1.1581 N.am      1 <0>        -0.6970
     15 C9          1.4614   -3.0597    2.0683 C.3       1 <0>         0.1359
     16 H2          2.1702   -3.7318    1.5846 H         1 <0>         0.1120
     17 C10         2.1624   -1.7460    2.4196 C.3       1 <0>        -0.0434
     18 C11         2.7912   -1.1648    1.1795 C.2       1 <0>        -0.1770
     19 C12         4.0613   -1.3280    0.7767 C.2       1 <0>         0.0630
     20 N3          4.2699   -0.6520   -0.3945 N.pl3     1 <0>        -0.5937
     21 H3          5.1101   -0.6216   -0.8783 H         1 <0>         0.4168
     22 C13         3.1096   -0.0211   -0.7839 C.ar      1 <0>         0.0948
     23 C14         2.1307   -0.3199    0.1817 C.ar      1 <0>        -0.0926
     24 C15         0.8375    0.1869    0.0425 C.ar      1 <0>        -0.0773
     25 C16         0.5277    0.9690   -1.0346 C.ar      1 <0>        -0.1349
     26 C17         1.4886    1.2632   -1.9919 C.ar      1 <0>        -0.0949
     27 C18         2.7736    0.7811   -1.8692 C.ar      1 <0>        -0.1271
     28 C19         0.9385   -3.7024    3.3271 C.2       1 <0>         0.5025
     29 O4         -0.2172   -3.5389    3.6565 O.2       1 <0>        -0.5287
     30 N4          1.7552   -4.4590    4.0868 N.am      1 <0>        -0.7323
     31 C20         1.2469   -5.0838    5.3105 C.3       1 <0>         0.0869
     32 H4         -5.6625   -2.4497   -0.9866 H         1 <0>         0.0552
     33 H5         -5.1458   -3.8046    0.0457 H         1 <0>         0.0533
     34 H6         -4.8674   -2.1275    0.5729 H         1 <0>         0.0568
     35 H7         -3.5716   -3.4727   -1.8412 H         1 <0>         0.0647
     36 H8         -3.2493   -0.7032   -0.6024 H         1 <0>         0.0525
     37 H9         -2.1857   -1.3764   -1.8609 H         1 <0>         0.0736
     38 H10        -3.9042   -1.0768   -2.2148 H         1 <0>         0.0517
     39 H11        -2.3735   -2.5744    0.8171 H         1 <0>         0.0747
     40 H12        -2.7588   -4.2617    0.4012 H         1 <0>         0.0715
     41 H13        -0.2596   -5.0735   -1.7946 H         1 <0>         0.1205
     42 H14        -2.0020   -5.2401   -1.4712 H         1 <0>         0.0973
     43 H15        -2.3519   -5.6454   -3.8530 H         1 <0>         0.4079
     44 H16        -2.8369   -4.7999   -5.9305 H         1 <0>         0.3870
     45 H17        -0.1130   -1.9356    1.1932 H         1 <0>         0.4054
     46 H18         1.4341   -1.0418    2.8219 H         1 <0>         0.0844
     47 H19         2.9354   -1.9346    3.1647 H         1 <0>         0.0914
     48 H20         4.8080   -1.9070    1.2999 H         1 <0>         0.1699
     49 H21         0.0845   -0.0385    0.7831 H         1 <0>         0.1149
     50 H22        -0.4730    1.3609   -1.1419 H         1 <0>         0.1230
     51 H23         1.2283    1.8821   -2.8378 H         1 <0>         0.1250
     52 H24         3.5139    1.0147   -2.6201 H         1 <0>         0.1186
     53 H25         2.6795   -4.5898    3.8233 H         1 <0>         0.4024
     54 H26         2.0457   -5.6518    5.7873 H         1 <0>         0.0763
     55 H27         0.8932   -4.3111    5.9931 H         1 <0>         0.0605
     56 H28         0.4236   -5.7533    5.0616 H         1 <0>         0.0594
@<TRIPOS>BOND
     1    1    2 1
     2    1   32 1
     3    1   33 1
     4    1   34 1
     5    2    3 1
     6    2    4 1
     7    2   35 1
     8    3   36 1
     9    3   37 1
    10    3   38 1
    11    4    5 1
    12    4   39 1
    13    4   40 1
    14    5    6 1
    15    5    7 1
    16    5   12 1
    17    7    8 1
    18    7   41 1
    19    7   42 1
    20    8    9 2
    21    8   10 am
    22   10   11 1
    23   10   43 1
    24   11   44 1
    25   12   13 2
    26   12   14 am
    27   14   15 1
    28   14   45 1
    29   15   16 1
    30   15   17 1
    31   15   28 1
    32   17   18 1
    33   17   46 1
    34   17   47 1
    35   18   23 1
    36   18   19 2
    37   19   20 1
    38   19   48 1
    39   20   21 1
    40   20   22 1
    41   22   27 ar
    42   22   23 ar
    43   23   24 ar
    44   24   25 ar
    45   24   49 1
    46   25   26 ar
    47   25   50 1
    48   26   27 ar
    49   26   51 1
    50   27   52 1
    51   28   29 2
    52   28   30 am
    53   30   31 1
    54   30   53 1
    55   31   54 1
    56   31   55 1
    57   31   56 1
@<TRIPOS>MOLECULE
ZINC34801833
   79    81     0     0     0
SMALL
USER_CHARGES

@<TRIPOS>ATOM
      1 C1          0.8360   -1.2830   -2.3872 C.3       1 <0>        -0.1477
      2 C2          0.3647   -1.0920   -0.9442 C.3       1 <0>        -0.1318
      3 C3          1.1800   -1.9962   -0.0176 C.3       1 <0>        -0.1149
      4 C4          0.7087   -1.8053    1.4255 C.3       1 <0>        -0.0735
      5 H1         -0.3657   -1.9797    1.4829 H         1 <0>         0.1081
      6 C5          1.4359   -2.7976    2.3350 C.3       1 <0>        -0.1038
      7 H2          1.0332   -2.7269    3.3454 H         1 <0>         0.0969
      8 C6          1.2344   -4.2183    1.8040 C.3       1 <0>        -0.1058
      9 C7          1.8505   -5.2206    2.7822 C.3       1 <0>        -0.1134
     10 C8          1.1005   -5.1599    4.1144 C.3       1 <0>        -0.1555
     11 C9          1.7441   -6.6318    2.2008 C.3       1 <0>        -0.1422
     12 C10         2.9075   -2.4737    2.3570 C.2       1 <0>         0.5184
     13 O1          3.3836   -1.7575    1.5017 O.2       1 <0>        -0.5075
     14 N1          3.6946   -2.9797    3.3270 N.am      1 <0>        -0.7104
     15 C11         5.1039   -2.5875    3.4058 C.3       1 <0>         0.1312
     16 H3          5.2115   -1.5455    3.1046 H         1 <0>         0.1113
     17 C12         5.6069   -2.7627    4.8408 C.3       1 <0>        -0.1212
     18 C13         6.7891   -1.8497    5.1112 C.3       1 <0>        -0.1192
     19 C14         8.0328   -2.2063    4.3177 C.3       1 <0>        -0.1427
     20 C15         7.8143   -1.9637    2.8231 C.3       1 <0>         0.1049
     21 N2          7.2015   -3.1661    2.2354 N.am      1 <0>        -0.5999
     22 C16         5.9292   -3.4690    2.4921 C.2       1 <0>         0.5106
     23 O2          5.4323   -4.4578    1.9957 O.2       1 <0>        -0.5284
     24 C17         7.9937   -4.0322    1.3587 C.3       1 <0>         0.1526
     25 C18         8.6793   -5.0904    2.1840 C.ar      1 <0>        -0.0914
     26 C19         9.9366   -4.8511    2.7079 C.ar      1 <0>        -0.1040
     27 C20        10.5681   -5.8196    3.4658 C.ar      1 <0>        -0.1068
     28 C21         9.9444   -7.0297    3.7014 C.ar      1 <0>        -0.1190
     29 C22         8.6831   -7.2723    3.1770 C.ar      1 <0>         0.0824
     30 C23         8.0490   -6.2962    2.4213 C.ar      1 <0>        -0.1068
     31 O3          8.0675   -8.4617    3.4072 O.3       1 <0>        -0.2594
     32 C24         8.0287   -9.3665    2.3942 C.ar      1 <0>         0.1223
     33 C25         8.7067   -9.1138    1.2103 C.ar      1 <0>        -0.1928
     34 C26         8.6656  -10.0353    0.1820 C.ar      1 <0>        -0.0819
     35 C27         7.9493  -11.2085    0.3316 C.ar      1 <0>        -0.1524
     36 C28         7.2724  -11.4626    1.5102 C.ar      1 <0>        -0.0825
     37 C29         7.3157  -10.5474    2.5441 C.ar      1 <0>        -0.1462
     38 C30         1.0138   -0.3985    1.8715 C.2       1 <0>         0.5295
     39 O4          1.5228    0.3857    1.0990 O.2       1 <0>        -0.4899
     40 N3          0.7208   -0.0118    3.1290 N.am      1 <0>        -0.6048
     41 O5          0.9087    1.3371    3.5168 O.3       1 <0>        -0.3187
     42 H4          0.6968   -2.3236   -2.6802 H         1 <0>         0.0492
     43 H5          0.2551   -0.6388   -3.0474 H         1 <0>         0.0512
     44 H6          1.8917   -1.0226   -2.4621 H         1 <0>         0.0543
     45 H7          0.5039   -0.0514   -0.6512 H         1 <0>         0.0801
     46 H8         -0.6911   -1.3525   -0.8693 H         1 <0>         0.0508
     47 H9          1.0408   -3.0368   -0.3106 H         1 <0>         0.0699
     48 H10         2.2358   -1.7358   -0.0925 H         1 <0>         0.1047
     49 H11         0.1681   -4.4198    1.7008 H         1 <0>         0.0815
     50 H12         1.7181   -4.3149    0.8320 H         1 <0>         0.0800
     51 H13         2.8994   -4.9724    2.9441 H         1 <0>         0.0857
     52 H14         1.1763   -4.1545    4.5285 H         1 <0>         0.0506
     53 H15         0.0515   -5.4081    3.9524 H         1 <0>         0.0607
     54 H16         1.5394   -5.8740    4.8112 H         1 <0>         0.0587
     55 H17         2.2784   -6.6750    1.2517 H         1 <0>         0.0559
     56 H18         2.1830   -7.3459    2.8977 H         1 <0>         0.0552
     57 H19         0.6952   -6.8800    2.0389 H         1 <0>         0.0540
     58 H20         3.3279   -3.6035    3.9729 H         1 <0>         0.4040
     59 H21         4.8018   -2.5224    5.5352 H         1 <0>         0.0833
     60 H22         5.9118   -3.7984    4.9903 H         1 <0>         0.0732
     61 H23         6.5019   -0.8270    4.8670 H         1 <0>         0.0682
     62 H24         7.0289   -1.8964    6.1735 H         1 <0>         0.0739
     63 H25         8.8657   -1.5934    4.6623 H         1 <0>         0.0807
     64 H26         8.2717   -3.2575    4.4790 H         1 <0>         0.0743
     65 H27         7.1509   -1.1101    2.6843 H         1 <0>         0.0800
     66 H28         8.7718   -1.7681    2.3405 H         1 <0>         0.0894
     67 H29         7.3381   -4.5082    0.6295 H         1 <0>         0.0949
     68 H30         8.7428   -3.4351    0.8386 H         1 <0>         0.0903
     69 H31        10.4261   -3.9061    2.5243 H         1 <0>         0.1270
     70 H32        11.5499   -5.6302    3.8738 H         1 <0>         0.1321
     71 H33        10.4384   -7.7862    4.2930 H         1 <0>         0.1312
     72 H34         7.0653   -6.4810    2.0154 H         1 <0>         0.1354
     73 H35         9.2658   -8.1973    1.0926 H         1 <0>         0.1266
     74 H36         9.1932   -9.8390   -0.7397 H         1 <0>         0.1258
     75 H37         7.9182  -11.9274   -0.4737 H         1 <0>         0.1255
     76 H38         6.7133  -12.3795    1.6244 H         1 <0>         0.1313
     77 H39         6.7908  -10.7485    3.4662 H         1 <0>         0.1315
     78 H40         0.3812   -0.6574    3.7683 H         1 <0>         0.4013
     79 H41         0.6715    1.5186    4.4365 H         1 <0>         0.3841
@<TRIPOS>BOND
     1    1    2 1
     2    1   42 1
     3    1   43 1
     4    1   44 1
     5    2    3 1
     6    2   45 1
     7    2   46 1
     8    3    4 1
     9    3   47 1
    10    3   48 1
    11    4    5 1
    12    4    6 1
    13    4   38 1
    14    6    7 1
    15    6    8 1
    16    6   12 1
    17    8    9 1
    18    8   49 1
    19    8   50 1
    20    9   10 1
    21    9   11 1
    22    9   51 1
    23   10   52 1
    24   10   53 1
    25   10   54 1
    26   11   55 1
    27   11   56 1
    28   11   57 1
    29   12   13 2
    30   12   14 am
    31   14   15 1
    32   14   58 1
    33   15   16 1
    34   15   22 1
    35   15   17 1
    36   17   18 1
    37   17   59 1
    38   17   60 1
    39   18   19 1
    40   18   61 1
    41   18   62 1
    42   19   20 1
    43   19   63 1
    44   19   64 1
    45   20   21 1
    46   20   65 1
    47   20   66 1
    48   21   22 am
    49   21   24 1
    50   22   23 2
    51   24   25 1
    52   24   67 1
    53   24   68 1
    54   25   30 ar
    55   25   26 ar
    56   26   27 ar
    57   26   69 1
    58   27   28 ar
    59   27   70 1
    60   28   29 ar
    61   28   71 1
    62   29   30 ar
    63   29   31 1
    64   30   72 1
    65   31   32 1
    66   32   37 ar
    67   32   33 ar
    68   33   34 ar
    69   33   73 1
    70   34   35 ar
    71   34   74 1
    72   35   36 ar
    73   35   75 1
    74   36   37 ar
    75   36   76 1
    76   37   77 1
    77   38   39 2
    78   38   40 am
    79   40   41 1
    80   40   78 1
    81   41   79 1
@<TRIPOS>MOLECULE
ZINC28571311
   49    50     0     0     0
SMALL
USER_CHARGES

@<TRIPOS>ATOM
      1 C1          0.0712    1.2280   -0.1256 C.3       1 <0>        -0.1497
      2 C2          0.0048   -0.2903    0.0515 C.3       1 <0>        -0.0217
      3 C3         -1.4480   -0.7174    0.2899 C.3       1 <0>         0.1595
      4 H1         -1.4991   -1.8033    0.3689 H         1 <0>         0.1142
      5 N1         -1.9361   -0.1144    1.5311 N.pl3     1 <0>        -0.9927
      6 C4         -1.3637   -0.4927    2.8240 C.3       1 <0>         0.1168
      7 C5          0.0991   -0.0388    2.8875 C.3       1 <0>        -0.1071
      8 S1          0.9991   -0.7805    1.4926 S.3       1 <0>        -0.2279
      9 S2         -3.1505    1.0099    1.4718 S.o2      1 <0>         2.6643
     10 O1         -3.0347    1.7953    2.6503 O.2       1 <0>        -0.9472
     11 O2         -3.1137    1.5792    0.1703 O.2       1 <0>        -0.9115
     12 C6         -4.6757    0.1365    1.5964 C.ar      1 <0>        -0.7178
     13 C7         -5.3954   -0.1620    0.4542 C.ar      1 <0>         0.0016
     14 C8         -6.5917   -0.8463    0.5493 C.ar      1 <0>        -0.1732
     15 C9         -7.0706   -1.2344    1.7922 C.ar      1 <0>         0.1909
     16 C10        -6.3463   -0.9341    2.9367 C.ar      1 <0>        -0.2298
     17 C11        -5.1480   -0.2541    2.8358 C.ar      1 <0>         0.0253
     18 O3         -8.2474   -1.9073    1.8884 O.3       1 <0>        -0.3032
     19 C12        -8.6789   -2.2753    3.2000 C.3       1 <0>         0.1764
     20 C13        -9.9623   -2.9907    3.1116 C.1       1 <0>        -0.1764
     21 C14       -10.9859   -3.5613    3.0411 C.1       1 <0>        -0.1309
     22 C15       -12.2693   -4.2768    2.9527 C.3       1 <0>         0.1860
     23 O4        -12.7008   -4.6448    4.2643 O.3       1 <0>        -0.5671
     24 C16        -2.3027   -0.2566   -0.8626 C.2       1 <0>         0.5046
     25 O5         -1.9845    0.7257   -1.4987 O.2       1 <0>        -0.4359
     26 N2         -3.4206   -0.9362   -1.1863 N.am      1 <0>        -0.6035
     27 O6         -4.2237   -0.5033   -2.2692 O.3       1 <0>        -0.3025
     28 C17         0.5463   -0.9776   -1.2036 C.3       1 <0>        -0.1341
     29 H2          1.1032    1.5617   -0.0175 H         1 <0>         0.0670
     30 H3         -0.2949    1.4945   -1.1171 H         1 <0>         0.1074
     31 H4         -0.5475    1.7095    0.6317 H         1 <0>         0.0435
     32 H5         -1.9276   -0.0145    3.6249 H         1 <0>         0.1082
     33 H6         -1.4136   -1.5753    2.9407 H         1 <0>         0.0949
     34 H7          0.1483    1.0479    2.8181 H         1 <0>         0.0937
     35 H8          0.5439   -0.3684    3.8264 H         1 <0>         0.1239
     36 H9         -5.0222    0.1404   -0.5131 H         1 <0>         0.1686
     37 H10        -7.1538   -1.0786   -0.3431 H         1 <0>         0.1436
     38 H11        -6.7170   -1.2351    3.9054 H         1 <0>         0.1421
     39 H12        -4.5816   -0.0240    3.7261 H         1 <0>         0.1411
     40 H13        -7.9326   -2.9232    3.6596 H         1 <0>         0.0955
     41 H14        -8.8041   -1.3782    3.8064 H         1 <0>         0.0956
     42 H15       -13.0156   -3.6288    2.4931 H         1 <0>         0.0789
     43 H16       -12.1441   -5.1739    2.3464 H         1 <0>         0.0788
     44 H17       -13.5422   -5.1210    4.2824 H         1 <0>         0.3928
     45 H18        -3.6751   -1.7219   -0.6775 H         1 <0>         0.4050
     46 H19        -5.0036   -1.0533   -2.4250 H         1 <0>         0.3867
     47 H20         1.5815   -0.6767   -1.3648 H         1 <0>         0.0776
     48 H21         0.4981   -2.0589   -1.0752 H         1 <0>         0.0675
     49 H22        -0.0549   -0.6869   -2.0651 H         1 <0>         0.0802
@<TRIPOS>BOND
     1    1    2 1
     2    1   29 1
     3    1   30 1
     4    1   31 1
     5    2    8 1
     6    2    3 1
     7    2   28 1
     8    3    4 1
     9    3    5 1
    10    3   24 1
    11    5    6 1
    12    5    9 1
    13    6    7 1
    14    6   32 1
    15    6   33 1
    16    7    8 1
    17    7   34 1
    18    7   35 1
    19    9   10 2
    20    9   11 2
    21    9   12 1
    22   12   17 ar
    23   12   13 ar
    24   13   14 ar
    25   13   36 1
    26   14   15 ar
    27   14   37 1
    28   15   16 ar
    29   15   18 1
    30   16   17 ar
    31   16   38 1
    32   17   39 1
    33   18   19 1
    34   19   20 1
    35   19   40 1
    36   19   41 1
    37   20   21 3
    38   21   22 1
    39   22   23 1
    40   22   42 1
    41   22   43 1
    42   23   44 1
    43   24   25 2
    44   24   26 am
    45   26   27 1
    46   26   45 1
    47   27   46 1
    48   28   47 1
    49   28   48 1
    50   28   49 1
@<TRIPOS>MOLECULE
ZINC13982474
   54    57     0     0     0
SMALL
USER_CHARGES
N-[(3R,4R)-3-(hydroxycarbamoyl)tetrahydropyran-4-yl]-4-[[2-(trifluoromethyl)benzimidazol-1-yl]methyl]benzamide
@<TRIPOS>ATOM
      1 C1         -8.6866    7.9745   -6.1187 C.ar      1 <0>        -0.1260
      2 C2         -7.3857    7.6287   -6.4565 C.ar      1 <0>        -0.0804
      3 C3         -7.0477    6.3103   -6.6755 C.ar      1 <0>        -0.1148
      4 C4         -8.0167    5.3232   -6.5570 C.ar      1 <0>         0.0764
      5 C5         -9.3344    5.6741   -6.2183 C.ar      1 <0>         0.0396
      6 C6         -9.6549    7.0175   -6.0056 C.ar      1 <0>        -0.0476
      7 N1        -10.0501    4.5213   -6.1681 N.2       1 <0>        -0.4246
      8 C7         -9.2773    3.5139   -6.4522 C.2       1 <0>         0.1831
      9 N2         -8.0137    3.9505   -6.7040 N.pl3     1 <0>        -0.4578
     10 C8         -6.8619    3.1177   -7.0592 C.3       1 <0>         0.1351
     11 C9         -6.0727    2.7956   -5.8165 C.ar      1 <0>        -0.0998
     12 C10        -6.3071    1.6122   -5.1391 C.ar      1 <0>        -0.1033
     13 C11        -5.5874    1.3109   -4.0014 C.ar      1 <0>        -0.0552
     14 C12        -4.6214    2.2031   -3.5337 C.ar      1 <0>        -0.1201
     15 C13        -4.3938    3.3979   -4.2185 C.ar      1 <0>        -0.0831
     16 C14        -5.1165    3.6844   -5.3582 C.ar      1 <0>        -0.1009
     17 C15        -3.8467    1.8869   -2.3148 C.2       1 <0>         0.5598
     18 O1         -4.0505    0.8480   -1.7176 O.2       1 <0>        -0.5328
     19 N3         -2.9145    2.7506   -1.8658 N.am      1 <0>        -0.7127
     20 C16        -2.1469    2.4372   -0.6579 C.3       1 <0>         0.1692
     21 H1         -1.9681    1.3632   -0.6064 H         1 <0>         0.1052
     22 C17        -2.9316    2.8860    0.5787 C.3       1 <0>        -0.1805
     23 C18        -2.0887    2.6267    1.8301 C.3       1 <0>         0.0614
     24 O2         -0.8439    3.3199    1.7167 O.3       1 <0>        -0.3739
     25 C19        -0.0462    2.9079    0.6050 C.3       1 <0>         0.0698
     26 C20        -0.8070    3.1785   -0.6957 C.3       1 <0>        -0.1471
     27 H2         -0.2186    2.8246   -1.5422 H         1 <0>         0.1217
     28 C21        -1.0540    4.6585   -0.8360 C.2       1 <0>         0.5374
     29 O3         -2.1892    5.0799   -0.9055 O.2       1 <0>        -0.5096
     30 N4         -0.0135    5.5138   -0.8844 N.am      1 <0>        -0.5915
     31 O4         -0.2456    6.9044   -1.0163 O.3       1 <0>        -0.3144
     32 C22        -9.7178    2.0734   -6.4963 C.3       1 <0>         0.5595
     33 F1        -11.1154    2.0136   -6.5168 F         1 <0>        -0.1437
     34 F2         -9.2080    1.4649   -7.6483 F         1 <0>        -0.1654
     35 F3         -9.2390    1.4044   -5.3648 F         1 <0>        -0.1587
     36 H3         -8.9374    9.0113   -5.9499 H         1 <0>         0.1366
     37 H4         -6.6331    8.3978   -6.5487 H         1 <0>         0.1370
     38 H5         -6.0339    6.0467   -6.9385 H         1 <0>         0.1267
     39 H6        -10.6638    7.2975   -5.7407 H         1 <0>         0.1364
     40 H7         -6.2275    3.6563   -7.7632 H         1 <0>         0.1134
     41 H8         -7.2103    2.1926   -7.5184 H         1 <0>         0.1142
     42 H9         -7.0549    0.9227   -5.5020 H         1 <0>         0.1332
     43 H10        -5.7709    0.3864   -3.4739 H         1 <0>         0.1430
     44 H11        -3.6508    4.0945   -3.8593 H         1 <0>         0.1298
     45 H12        -4.9383    4.6065   -5.8916 H         1 <0>         0.1300
     46 H13        -2.7519    3.5796   -2.3423 H         1 <0>         0.4054
     47 H14        -3.1532    3.9506    0.5029 H         1 <0>         0.0998
     48 H15        -3.8626    2.3230    0.6435 H         1 <0>         0.0837
     49 H16        -2.6246    2.9835    2.7096 H         1 <0>         0.1023
     50 H17        -1.9018    1.5573    1.9273 H         1 <0>         0.0581
     51 H18         0.1676    1.8422    0.6860 H         1 <0>         0.0756
     52 H19         0.8894    3.4671    0.6019 H         1 <0>         0.1031
     53 H20         0.8943    5.1767   -0.8288 H         1 <0>         0.4076
     54 H21         0.5610    7.4371   -1.0420 H         1 <0>         0.3897
@<TRIPOS>BOND
     1    1    6 ar
     2    1    2 ar
     3    1   36 1
     4    2    3 ar
     5    2   37 1
     6    3    4 ar
     7    3   38 1
     8    4    9 1
     9    4    5 ar
    10    5    6 ar
    11    5    7 1
    12    6   39 1
    13    7    8 2
    14    8    9 1
    15    8   32 1
    16    9   10 1
    17   10   11 1
    18   10   40 1
    19   10   41 1
    20   11   16 ar
    21   11   12 ar
    22   12   13 ar
    23   12   42 1
    24   13   14 ar
    25   13   43 1
    26   14   15 ar
    27   14   17 1
    28   15   16 ar
    29   15   44 1
    30   16   45 1
    31   17   18 2
    32   17   19 am
    33   19   20 1
    34   19   46 1
    35   20   21 1
    36   20   26 1
    37   20   22 1
    38   22   23 1
    39   22   47 1
    40   22   48 1
    41   23   24 1
    42   23   49 1
    43   23   50 1
    44   24   25 1
    45   25   26 1
    46   25   51 1
    47   25   52 1
    48   26   27 1
    49   26   28 1
    50   28   29 2
    51   28   30 am
    52   30   31 1
    53   30   53 1
    54   31   54 1
    55   32   33 1
    56   32   34 1
    57   32   35 1
@<TRIPOS>MOLECULE
ZINC01544157
   52    51     0     0     0
SMALL
USER_CHARGES
(2R)-N-[(1S)-2,2-dimethyl-1-(methylcarbamoyl)propyl]-2-[(1S)-1-hydroxy-2-(hydroxyamino)-2-oxo-ethyl]-4-methyl-pentanamide
@<TRIPOS>ATOM
      1 C1          3.0091    4.5674    0.8752 C.3       1 <0>        -0.1725
      2 C2          2.8370    3.3040    1.7207 C.3       1 <0>        -0.1114
      3 C3          3.7850    3.3601    2.9204 C.3       1 <0>        -0.1515
      4 C4          1.3922    3.2147    2.2162 C.3       1 <0>        -0.1277
      5 C5          0.4588    2.9800    1.0268 C.3       1 <0>        -0.1436
      6 H1         -0.5517    2.7917    1.3896 H         1 <0>         0.1129
      7 C6          0.9468    1.7708    0.2264 C.3       1 <0>         0.1266
      8 H2          1.9895    1.9182   -0.0550 H         1 <0>         0.1368
      9 C7          0.8250    0.5278    1.0698 C.2       1 <0>         0.4947
     10 O1         -0.0196   -0.3023    0.8080 O.2       1 <0>        -0.5059
     11 N1          1.6547    0.3386    2.1149 N.am      1 <0>        -0.5951
     12 O2          1.6054   -0.8719    2.8479 O.3       1 <0>        -0.3178
     13 O3          0.1511    1.6269   -0.9518 O.3       1 <0>        -0.5050
     14 C8          0.4558    4.2000    0.1421 C.2       1 <0>         0.5376
     15 O4          0.7344    4.0970   -1.0337 O.2       1 <0>        -0.5056
     16 N2          0.1435    5.4054    0.6577 N.am      1 <0>        -0.7140
     17 C9          0.0346    6.5722   -0.2215 C.3       1 <0>         0.1387
     18 H3          0.7694    6.4932   -1.0227 H         1 <0>         0.1119
     19 C10         0.2914    7.8262    0.5738 C.2       1 <0>         0.5166
     20 O5          0.1388    7.8231    1.7769 O.2       1 <0>        -0.5316
     21 N3          0.6907    8.9512   -0.0520 N.am      1 <0>        -0.7302
     22 C11         1.0400   10.1397    0.7300 C.3       1 <0>         0.0849
     23 C12        -1.3712    6.6284   -0.8226 C.3       1 <0>        -0.0724
     24 C13        -2.3961    6.8315    0.2951 C.3       1 <0>        -0.1441
     25 C14        -1.4571    7.7931   -1.8111 C.3       1 <0>        -0.1546
     26 C15        -1.6664    5.3168   -1.5531 C.3       1 <0>        -0.1327
     27 H4          2.5718    5.4175    1.3989 H         1 <0>         0.0600
     28 H5          4.0704    4.7508    0.7077 H         1 <0>         0.0593
     29 H6          2.5076    4.4342   -0.0834 H         1 <0>         0.0774
     30 H7          3.0684    2.4275    1.1155 H         1 <0>         0.0727
     31 H8          3.6624    2.4600    3.5228 H         1 <0>         0.0526
     32 H9          4.8143    3.4237    2.5674 H         1 <0>         0.0633
     33 H10         3.5536    4.2366    3.5256 H         1 <0>         0.0627
     34 H11         1.1203    4.1460    2.7131 H         1 <0>         0.0885
     35 H12         1.2997    2.3871    2.9195 H         1 <0>         0.0814
     36 H13         2.2857    1.0316    2.3649 H         1 <0>         0.4083
     37 H14         2.2374   -0.9154    3.5784 H         1 <0>         0.3884
     38 H15        -0.7903    1.4920   -0.7766 H         1 <0>         0.3809
     39 H16        -0.0092    5.5005    1.6109 H         1 <0>         0.4088
     40 H17         0.7467    8.9738   -1.0201 H         1 <0>         0.4052
     41 H18         0.1766   10.4562    1.3153 H         1 <0>         0.0629
     42 H19         1.8665    9.9037    1.4002 H         1 <0>         0.0614
     43 H20         1.3367   10.9436    0.0563 H         1 <0>         0.0787
     44 H21        -2.1858    7.7659    0.8155 H         1 <0>         0.0563
     45 H22        -3.3976    6.8716   -0.1331 H         1 <0>         0.0602
     46 H23        -2.3349    6.0018    0.9993 H         1 <0>         0.0579
     47 H24        -0.7527    7.6300   -2.6268 H         1 <0>         0.0633
     48 H25        -2.4688    7.8559   -2.2117 H         1 <0>         0.0678
     49 H26        -1.2108    8.7232   -1.2989 H         1 <0>         0.0593
     50 H27        -1.6053    4.4871   -0.8489 H         1 <0>         0.0527
     51 H28        -2.6680    5.3569   -1.9813 H         1 <0>         0.0548
     52 H29        -0.9363    5.1721   -2.3494 H         1 <0>         0.0702
@<TRIPOS>BOND
     1    1    2 1
     2    1   27 1
     3    1   28 1
     4    1   29 1
     5    2    3 1
     6    2    4 1
     7    2   30 1
     8    3   31 1
     9    3   32 1
    10    3   33 1
    11    4    5 1
    12    4   34 1
    13    4   35 1
    14    5    6 1
    15    5    7 1
    16    5   14 1
    17    7    8 1
    18    7    9 1
    19    7   13 1
    20    9   10 2
    21    9   11 am
    22   11   12 1
    23   11   36 1
    24   12   37 1
    25   13   38 1
    26   14   15 2
    27   14   16 am
    28   16   17 1
    29   16   39 1
    30   17   18 1
    31   17   19 1
    32   17   23 1
    33   19   20 2
    34   19   21 am
    35   21   22 1
    36   21   40 1
    37   22   41 1
    38   22   42 1
    39   22   43 1
    40   23   24 1
    41   23   25 1
    42   23   26 1
    43   24   44 1
    44   24   45 1
    45   24   46 1
    46   25   47 1
    47   25   48 1
    48   25   49 1
    49   26   50 1
    50   26   51 1
    51   26   52 1
@<TRIPOS>MOLECULE
ZINC03789788
   63    64     0     0     0
SMALL
USER_CHARGES
2-[1-(hydroxycarbamoyl)-2-(2-thienylsulfanyl)ethyl]-4-methyl-N-[1-(methylcarbamoyl)-2-phenyl-ethyl]-pentanamide
@<TRIPOS>ATOM
      1 C1          3.1221    2.9557    1.7202 C.3       1 <0>        -0.1431
      2 C2          2.5102    1.7687    0.9736 C.3       1 <0>        -0.1379
      3 C3          2.7420    0.4870    1.7763 C.3       1 <0>        -0.1394
      4 C4          1.0073    1.9961    0.7987 C.3       1 <0>        -0.1065
      5 C5          0.4069    0.8410   -0.0051 C.3       1 <0>        -0.0885
      6 H1          0.8505   -0.0991    0.3229 H         1 <0>         0.1149
      7 C6          0.6967    1.0500   -1.4928 C.3       1 <0>        -0.0588
      8 H2          0.1623    1.9316   -1.8467 H         1 <0>         0.1151
      9 C7          0.2335   -0.1774   -2.2801 C.3       1 <0>        -0.1124
     10 S1          0.4407    0.1297   -4.0558 S.3       1 <0>        -0.0144
     11 C8         -0.1286   -1.3552   -4.8145 C.2       1 <0>        -0.1714
     12 C9         -0.1962   -1.6718   -6.1386 C.2       1 <0>        -0.1349
     13 C10        -0.6846   -2.9141   -6.5020 C.2       1 <0>        -0.1423
     14 C11        -1.0794   -3.7751   -5.5344 C.2       1 <0>        -0.1732
     15 S2         -0.7596   -2.8391   -4.0484 S.3       1 <0>         0.0560
     16 C12         2.1774    1.2461   -1.6934 C.2       1 <0>         0.5371
     17 O1          2.9647    0.4671   -1.1991 O.2       1 <0>        -0.4942
     18 N1          2.6267    2.2870   -2.4221 N.am      1 <0>        -0.5886
     19 O2          4.0180    2.4712   -2.6105 O.3       1 <0>        -0.3117
     20 C13        -1.0833    0.7970    0.2150 C.2       1 <0>         0.5303
     21 O3         -1.8280    1.3539   -0.5637 O.2       1 <0>        -0.5294
     22 N2         -1.5885    0.1389    1.2771 N.am      1 <0>        -0.7016
     23 C14        -3.0392    0.0187    1.4421 C.3       1 <0>         0.1370
     24 H3         -3.5070   -0.1037    0.4652 H         1 <0>         0.1156
     25 C15        -3.3542   -1.1982    2.3144 C.3       1 <0>        -0.0835
     26 C16        -2.9289   -2.4537    1.5975 C.ar      1 <0>        -0.0870
     27 C17        -3.8193   -3.1126    0.7704 C.ar      1 <0>        -0.1132
     28 C18        -3.4277   -4.2617    0.1091 C.ar      1 <0>        -0.1147
     29 C19        -2.1491   -4.7576    0.2830 C.ar      1 <0>        -0.1168
     30 C20        -1.2605   -4.1016    1.1142 C.ar      1 <0>        -0.1145
     31 C21        -1.6504   -2.9497    1.7715 C.ar      1 <0>        -0.1117
     32 C22        -3.5745    1.2627    2.1031 C.2       1 <0>         0.5023
     33 O4         -2.8083    2.1045    2.5217 O.2       1 <0>        -0.5232
     34 N3         -4.9046    1.4397    2.2291 N.am      1 <0>        -0.7333
     35 C23        -5.4250    2.6490    2.8717 C.3       1 <0>         0.0870
     36 H4          2.6525    3.0503    2.6993 H         1 <0>         0.0504
     37 H5          4.1928    2.7937    1.8448 H         1 <0>         0.0547
     38 H6          2.9569    3.8689    1.1484 H         1 <0>         0.0490
     39 H7          2.9797    1.6742   -0.0055 H         1 <0>         0.1157
     40 H8          2.1362    0.5109    2.6821 H         1 <0>         0.0464
     41 H9          2.4595   -0.3757    1.1729 H         1 <0>         0.0583
     42 H10         3.7956    0.4125    2.0457 H         1 <0>         0.0537
     43 H11         0.8410    2.9333    0.2676 H         1 <0>         0.0699
     44 H12         0.5307    2.0437    1.7778 H         1 <0>         0.0792
     45 H13         0.8298   -1.0421   -1.9888 H         1 <0>         0.1037
     46 H14        -0.8173   -0.3716   -2.0651 H         1 <0>         0.1097
     47 H15         0.1259   -0.9660   -6.8900 H         1 <0>         0.1365
     48 H16        -0.7498   -3.1935   -7.5431 H         1 <0>         0.1390
     49 H17        -1.4800   -4.7730   -5.6354 H         1 <0>         0.1882
     50 H18         1.9971    2.9101   -2.8174 H         1 <0>         0.4091
     51 H19         4.2434    3.2439   -3.1465 H         1 <0>         0.3897
     52 H20        -0.9916   -0.2550    1.9324 H         1 <0>         0.4059
     53 H21        -2.8146   -1.1182    3.2581 H         1 <0>         0.0879
     54 H22        -4.4256   -1.2370    2.5106 H         1 <0>         0.0954
     55 H23        -4.8196   -2.7277    0.6380 H         1 <0>         0.1221
     56 H24        -4.1221   -4.7744   -0.5400 H         1 <0>         0.1223
     57 H25        -1.8446   -5.6577   -0.2302 H         1 <0>         0.1213
     58 H26        -0.2617   -4.4892    1.2504 H         1 <0>         0.1233
     59 H27        -0.9562   -2.4373    2.4211 H         1 <0>         0.1193
     60 H28        -5.5174    0.7664    1.8943 H         1 <0>         0.4018
     61 H29        -6.5144    2.6151    2.8818 H         1 <0>         0.0772
     62 H30        -5.0537    2.7052    3.8950 H         1 <0>         0.0606
     63 H31        -5.0940    3.5267    2.3165 H         1 <0>         0.0603
@<TRIPOS>BOND
     1    1    2 1
     2    1   36 1
     3    1   37 1
     4    1   38 1
     5    2    3 1
     6    2    4 1
     7    2   39 1
     8    3   40 1
     9    3   41 1
    10    3   42 1
    11    4    5 1
    12    4   43 1
    13    4   44 1
    14    5    6 1
    15    5    7 1
    16    5   20 1
    17    7    8 1
    18    7    9 1
    19    7   16 1
    20    9   10 1
    21    9   45 1
    22    9   46 1
    23   10   11 1
    24   11   15 1
    25   11   12 2
    26   12   13 1
    27   12   47 1
    28   13   14 2
    29   13   48 1
    30   14   15 1
    31   14   49 1
    32   16   17 2
    33   16   18 am
    34   18   19 1
    35   18   50 1
    36   19   51 1
    37   20   21 2
    38   20   22 am
    39   22   23 1
    40   22   52 1
    41   23   24 1
    42   23   25 1
    43   23   32 1
    44   25   26 1
    45   25   53 1
    46   25   54 1
    47   26   31 ar
    48   26   27 ar
    49   27   28 ar
    50   27   55 1
    51   28   29 ar
    52   28   56 1
    53   29   30 ar
    54   29   57 1
    55   30   31 ar
    56   30   58 1
    57   31   59 1
    58   32   33 2
    59   32   34 am
    60   34   35 1
    61   34   60 1
    62   35   61 1
    63   35   62 1
    64   35   63 1
@<TRIPOS>MOLECULE
ZINC03818629
   41    41     0     0     0
SMALL
USER_CHARGES

@<TRIPOS>ATOM
      1 C1          0.3217    1.2381   -0.4555 C.3       1 <0>        -0.1483
      2 C2          0.1189   -0.2089   -0.0016 C.3       1 <0>        -0.1216
      3 C3          0.8424   -0.4325    1.3278 C.3       1 <0>        -0.1516
      4 C4         -1.3757   -0.4820    0.1789 C.3       1 <0>         0.1171
      5 N1         -1.5796   -1.9006    0.4828 N.pl3     1 <0>        -0.9744
      6 C5         -1.4984   -2.3721    1.8675 C.3       1 <0>         0.1129
      7 C6         -2.8306   -2.1756    2.5440 C.2       1 <0>         0.5050
      8 O1         -3.7567   -1.6895    1.9300 O.2       1 <0>        -0.5035
      9 N2         -2.9929   -2.5400    3.8314 N.am      1 <0>        -0.5967
     10 O2         -4.2447   -2.3553    4.4670 O.3       1 <0>        -0.3162
     11 S1         -1.9019   -2.9711   -0.7389 S.o2      1 <0>         2.6937
     12 O3         -2.5809   -4.0702   -0.1471 O.2       1 <0>        -0.9505
     13 O4         -2.4604   -2.2150   -1.8046 O.2       1 <0>        -0.9449
     14 C7         -0.3543   -3.5859   -1.3146 C.ar      1 <0>        -0.7163
     15 C8          0.3126   -2.9311   -2.3335 C.ar      1 <0>         0.0203
     16 C9          1.5258   -3.4114   -2.7870 C.ar      1 <0>        -0.1694
     17 C10         2.0753   -4.5515   -2.2188 C.ar      1 <0>         0.1849
     18 C11         1.4045   -5.2065   -1.1963 C.ar      1 <0>        -0.2285
     19 C12         0.1939   -4.7192   -0.7428 C.ar      1 <0>         0.0201
     20 O5          3.2686   -5.0262   -2.6635 O.3       1 <0>        -0.3098
     21 C13         3.7739   -6.2044   -2.0322 C.3       1 <0>         0.0218
     22 H1          1.3864    1.4327   -0.5841 H         1 <0>         0.0600
     23 H2         -0.1938    1.3974   -1.4026 H         1 <0>         0.0607
     24 H3         -0.0831    1.9150    0.2968 H         1 <0>         0.0590
     25 H4          0.5237   -0.8858   -0.7539 H         1 <0>         0.0739
     26 H5          0.8024   -1.4898    1.5899 H         1 <0>         0.0573
     27 H6          1.8826   -0.1210    1.2323 H         1 <0>         0.0583
     28 H7          0.3577    0.1539    2.1084 H         1 <0>         0.0575
     29 H8         -1.7593    0.1241    0.9995 H         1 <0>         0.0896
     30 H9         -1.9051   -0.2274   -0.7393 H         1 <0>         0.1005
     31 H10        -1.2392   -3.4308    1.8762 H         1 <0>         0.1169
     32 H11        -0.7337   -1.8064    2.3997 H         1 <0>         0.1252
     33 H12        -2.2523   -2.9287    4.3224 H         1 <0>         0.4079
     34 H13        -4.2643   -2.6463    5.3890 H         1 <0>         0.3880
     35 H14        -0.1156   -2.0436   -2.7755 H         1 <0>         0.1477
     36 H15         2.0460   -2.9000   -3.5834 H         1 <0>         0.1429
     37 H16         1.8301   -6.0943   -0.7524 H         1 <0>         0.1395
     38 H17        -0.3266   -5.2262    0.0562 H         1 <0>         0.1420
     39 H18         3.9123   -6.0154   -0.9677 H         1 <0>         0.0609
     40 H19         3.0651   -7.0214   -2.1670 H         1 <0>         0.0613
     41 H20         4.7299   -6.4752   -2.4804 H         1 <0>         0.1066
@<TRIPOS>BOND
     1    1    2 1
     2    1   22 1
     3    1   23 1
     4    1   24 1
     5    2    3 1
     6    2    4 1
     7    2   25 1
     8    3   26 1
     9    3   27 1
    10    3   28 1
    11    4    5 1
    12    4   29 1
    13    4   30 1
    14    5    6 1
    15    5   11 1
    16    6    7 1
    17    6   31 1
    18    6   32 1
    19    7    8 2
    20    7    9 am
    21    9   10 1
    22    9   33 1
    23   10   34 1
    24   11   12 2
    25   11   13 2
    26   11   14 1
    27   14   19 ar
    28   14   15 ar
    29   15   16 ar
    30   15   35 1
    31   16   17 ar
    32   16   36 1
    33   17   18 ar
    34   17   20 1
    35   18   19 ar
    36   18   37 1
    37   19   38 1
    38   20   21 1
    39   21   39 1
    40   21   40 1
    41   21   41 1
@<TRIPOS>MOLECULE
ZINC03976469
   34    36     0     0     0
SMALL
USER_CHARGES
2-[(4-phenoxyphenyl)sulfonylmethyl]thiirane
@<TRIPOS>ATOM
      1 C1          2.3874    0.0150    0.0652 C.ar      1 <0>        -0.1154
      2 C2          1.9491    0.6675    1.2027 C.ar      1 <0>        -0.1028
      3 C3          0.7485    1.3505    1.1893 C.ar      1 <0>        -0.1375
      4 C4         -0.0179    1.3815    0.0330 C.ar      1 <0>         0.0740
      5 C5          0.4243    0.7258   -1.1072 C.ar      1 <0>        -0.1174
      6 C6          1.6257    0.0443   -1.0884 C.ar      1 <0>        -0.1018
      7 O1         -1.2020    2.0479    0.0189 O.3       1 <0>        -0.2491
      8 C7         -1.1733    3.4019    0.1307 C.ar      1 <0>         0.1797
      9 C8          0.0408    4.0735    0.1325 C.ar      1 <0>        -0.2154
     10 C9          0.0669    5.4504    0.2415 C.ar      1 <0>         0.0178
     11 C10        -1.1150    6.1583    0.3592 C.ar      1 <0>        -0.6956
     12 C11        -2.3260    5.4909    0.3629 C.ar      1 <0>         0.0149
     13 C12        -2.3579    4.1147    0.2489 C.ar      1 <0>        -0.1644
     14 S1         -1.0779    7.9139    0.5042 S.o2      1 <0>         2.5032
     15 O2          0.1332    8.3045   -0.1283 O.2       1 <0>        -0.9256
     16 O3         -2.3326    8.3463   -0.0037 O.2       1 <0>        -0.9282
     17 C13        -0.9823    8.2325    2.2875 C.3       1 <0>        -0.5909
     18 C14        -0.9442    9.7419    2.5346 C.3       1 <0>        -0.0466
     19 H1         -1.5627   10.3375    1.8631 H         1 <0>         0.1505
     20 C15        -0.8627   10.2027    3.9912 C.3       1 <0>        -0.0550
     21 S2          0.6513   10.4530    3.0239 S.3       1 <0>        -0.3243
     22 H2          3.3266   -0.5181    0.0776 H         1 <0>         0.1314
     23 H3          2.5461    0.6434    2.1024 H         1 <0>         0.1329
     24 H4          0.4067    1.8603    2.0780 H         1 <0>         0.1311
     25 H5         -0.1704    0.7481   -2.0084 H         1 <0>         0.1347
     26 H6          1.9703   -0.4662   -1.9756 H         1 <0>         0.1349
     27 H7          0.9645    3.5207    0.0447 H         1 <0>         0.1413
     28 H8          1.0115    5.9740    0.2392 H         1 <0>         0.1471
     29 H9         -3.2477    6.0463    0.4547 H         1 <0>         0.1532
     30 H10        -3.3041    3.5939    0.2515 H         1 <0>         0.1461
     31 H11        -1.8559    7.8056    2.7801 H         1 <0>         0.1578
     32 H12        -0.0784    7.7754    2.6903 H         1 <0>         0.1502
     33 H13        -1.4299   11.0943    4.2586 H         1 <0>         0.1363
     34 H14        -0.8374    9.4243    4.7538 H         1 <0>         0.1327
@<TRIPOS>BOND
     1    1    6 ar
     2    1    2 ar
     3    1   22 1
     4    2    3 ar
     5    2   23 1
     6    3    4 ar
     7    3   24 1
     8    4    5 ar
     9    4    7 1
    10    5    6 ar
    11    5   25 1
    12    6   26 1
    13    7    8 1
    14    8   13 ar
    15    8    9 ar
    16    9   10 ar
    17    9   27 1
    18   10   11 ar
    19   10   28 1
    20   11   12 ar
    21   11   14 1
    22   12   13 ar
    23   12   29 1
    24   13   30 1
    25   14   15 2
    26   14   16 2
    27   14   17 1
    28   17   18 1
    29   17   31 1
    30   17   32 1
    31   18   19 1
    32   18   21 1
    33   18   20 1
    34   20   21 1
    35   20   33 1
    36   20   34 1
@<TRIPOS>MOLECULE
ZINC13916763
   34    36     0     0     0
SMALL
USER_CHARGES
(2S)-2-[(4-phenoxyphenyl)sulfonylmethyl]thiirane
@<TRIPOS>ATOM
      1 C1         -1.7381    0.6038    8.4285 C.ar      1 <0>        -0.1466
      2 C2         -2.7010    1.5936    8.4992 C.ar      1 <0>        -0.0819
      3 C3         -3.0000    2.3491    7.3821 C.ar      1 <0>        -0.1403
      4 C4         -2.3328    2.1144    6.1884 C.ar      1 <0>         0.1153
      5 C5         -1.3703    1.1173    6.1188 C.ar      1 <0>        -0.1949
      6 C6         -1.0717    0.3679    7.2401 C.ar      1 <0>        -0.0807
      7 O1         -2.6254    2.8559    5.0879 O.3       1 <0>        -0.2594
      8 C7         -2.0410    2.5092    3.9112 C.ar      1 <0>         0.1493
      9 C8         -2.3775    1.3129    3.2939 C.ar      1 <0>        -0.1612
     10 C9         -1.7822    0.9631    2.0975 C.ar      1 <0>        -0.0041
     11 C10        -0.8521    1.8040    1.5148 C.ar      1 <0>        -0.6684
     12 C11        -0.5111    2.9943    2.1304 C.ar      1 <0>        -0.0034
     13 C12        -1.1070    3.3511    3.3245 C.ar      1 <0>        -0.1430
     14 S1         -0.0947    1.3548   -0.0114 S.o2      1 <0>         2.5013
     15 O2         -0.1502   -0.0649   -0.0397 O.2       1 <0>        -0.9229
     16 O3          1.1551    2.0309   -0.0088 O.2       1 <0>        -0.9251
     17 C13        -1.1774    2.0481   -1.2911 C.3       1 <0>        -0.5896
     18 C14        -0.6113    1.7158   -2.6731 C.3       1 <0>        -0.0462
     19 H1          0.4754    1.6487   -2.7251 H         1 <0>         0.1494
     20 C15        -1.3231    2.3323   -3.8789 C.3       1 <0>        -0.0548
     21 S2         -1.5549    0.5436   -3.6860 S.3       1 <0>        -0.3231
     22 H2         -1.5057    0.0142    9.3030 H         1 <0>         0.1283
     23 H3         -3.2200    1.7759    9.4286 H         1 <0>         0.1342
     24 H4         -3.7528    3.1216    7.4378 H         1 <0>         0.1346
     25 H5         -0.8524    0.9299    5.1898 H         1 <0>         0.1287
     26 H6         -0.3202   -0.4060    7.1874 H         1 <0>         0.1291
     27 H7         -3.1039    0.6557    3.7487 H         1 <0>         0.1429
     28 H8         -2.0437    0.0321    1.6167 H         1 <0>         0.1513
     29 H9          0.2189    3.6472    1.6754 H         1 <0>         0.1541
     30 H10        -0.8434    4.2828    3.8029 H         1 <0>         0.1464
     31 H11        -2.1749    1.6194   -1.1944 H         1 <0>         0.1520
     32 H12        -1.2339    3.1301   -1.1721 H         1 <0>         0.1585
     33 H13        -2.1851    2.9663   -3.6713 H         1 <0>         0.1332
     34 H14        -0.6951    2.6615   -4.7067 H         1 <0>         0.1369
@<TRIPOS>BOND
     1    1    6 ar
     2    1    2 ar
     3    1   22 1
     4    2    3 ar
     5    2   23 1
     6    3    4 ar
     7    3   24 1
     8    4    5 ar
     9    4    7 1
    10    5    6 ar
    11    5   25 1
    12    6   26 1
    13    7    8 1
    14    8   13 ar
    15    8    9 ar
    16    9   10 ar
    17    9   27 1
    18   10   11 ar
    19   10   28 1
    20   11   12 ar
    21   11   14 1
    22   12   13 ar
    23   12   29 1
    24   13   30 1
    25   14   15 2
    26   14   16 2
    27   14   17 1
    28   17   18 1
    29   17   31 1
    30   17   32 1
    31   18   19 1
    32   18   21 1
    33   18   20 1
    34   20   21 1
    35   20   33 1
    36   20   34 1
@<TRIPOS>MOLECULE
ZINC00580328
   49    51     0     0     0
SMALL
USER_CHARGES

@<TRIPOS>ATOM
      1 C1         -0.0029    1.3711   -0.0350 C.3       1 <0>        -0.1551
      2 C2          0.0599   -0.1492    0.1253 C.3       1 <0>        -0.0205
      3 C3         -1.3580   -0.7082    0.2895 C.3       1 <0>         0.1574
      4 H1         -1.3146   -1.7952    0.3563 H         1 <0>         0.1168
      5 N1         -1.9569   -0.1678    1.5108 N.pl3     1 <0>        -0.9918
      6 C4         -1.4145   -0.5101    2.8265 C.3       1 <0>         0.1160
      7 C5         -0.0034    0.0725    2.9646 C.3       1 <0>        -0.1077
      8 S1          1.0250   -0.5670    1.6084 S.3       1 <0>        -0.2262
      9 S2         -3.2637    0.8436    1.4027 S.o2      1 <0>         2.6638
     10 O1         -3.2544    1.6460    2.5755 O.2       1 <0>        -0.9406
     11 O2         -3.2374    1.4031    0.0968 O.2       1 <0>        -0.9070
     12 C6         -4.7087   -0.1609    1.4913 C.ar      1 <0>        -0.6812
     13 C7         -5.3754   -0.5145    0.3327 C.ar      1 <0>        -0.0242
     14 C8         -6.5084   -1.3019    0.3993 C.ar      1 <0>        -0.1440
     15 C9         -6.9773   -1.7380    1.6303 C.ar      1 <0>         0.1424
     16 C10        -6.3064   -1.3817    2.7914 C.ar      1 <0>        -0.1508
     17 C11        -5.1706   -0.5988    2.7188 C.ar      1 <0>        -0.0009
     18 O3         -8.0919   -2.5123    1.6986 O.3       1 <0>        -0.2546
     19 C12        -9.2474   -1.9310    2.1098 C.ar      1 <0>         0.1604
     20 C13       -10.3960   -2.6917    2.3154 C.ar      1 <0>        -0.1954
     21 C14       -11.5508   -2.0633    2.7336 C.ar      1 <0>         0.1366
     22 N2        -11.5753   -0.7598    2.9382 N.ar      1 <0>        -0.5003
     23 C15       -10.5082   -0.0056    2.7544 C.ar      1 <0>         0.1393
     24 C16        -9.3135   -0.5593    2.3425 C.ar      1 <0>        -0.2494
     25 C17        -2.1953   -0.3110   -0.8989 C.2       1 <0>         0.5107
     26 O4         -1.8928    0.6627   -1.5556 O.2       1 <0>        -0.4421
     27 N3         -3.2804   -1.0378   -1.2319 N.am      1 <0>        -0.6056
     28 O5         -4.0671   -0.6646   -2.3485 O.3       1 <0>        -0.3002
     29 C18         0.7201   -0.7686   -1.1082 C.3       1 <0>        -0.1346
     30 H2          0.9974    1.7898    0.0758 H         1 <0>         0.0685
     31 H3         -0.3921    1.6165   -1.0231 H         1 <0>         0.1121
     32 H4         -0.6587    1.7901    0.7282 H         1 <0>         0.0417
     33 H5         -2.0566   -0.0950    3.6034 H         1 <0>         0.1078
     34 H6         -1.3719   -1.5942    2.9312 H         1 <0>         0.0967
     35 H7         -0.0494    1.1600    2.9073 H         1 <0>         0.0943
     36 H8          0.4245   -0.2280    3.9210 H         1 <0>         0.1249
     37 H9         -5.0102   -0.1745   -0.6251 H         1 <0>         0.1711
     38 H10        -7.0290   -1.5776   -0.5059 H         1 <0>         0.1463
     39 H11        -6.6695   -1.7195    3.7507 H         1 <0>         0.1444
     40 H12        -4.6455   -0.3248    3.6219 H         1 <0>         0.1468
     41 H13       -10.3827   -3.7588    2.1494 H         1 <0>         0.1473
     42 H14       -12.4461   -2.6453    2.8951 H         1 <0>         0.1686
     43 H15       -10.5698    1.0579    2.9325 H         1 <0>         0.1629
     44 H16        -8.4426    0.0630    2.1984 H         1 <0>         0.1388
     45 H17        -3.5223   -1.8166   -0.7066 H         1 <0>         0.4038
     46 H18        -4.8235   -1.2455   -2.5085 H         1 <0>         0.3858
     47 H19         1.7303   -0.3739   -1.2164 H         1 <0>         0.0779
     48 H20         0.7637   -1.8515   -0.9917 H         1 <0>         0.0674
     49 H21         0.1366   -0.5218   -1.9951 H         1 <0>         0.0819
@<TRIPOS>BOND
     1    1    2 1
     2    1   30 1
     3    1   31 1
     4    1   32 1
     5    2    8 1
     6    2    3 1
     7    2   29 1
     8    3    4 1
     9    3    5 1
    10    3   25 1
    11    5    6 1
    12    5    9 1
    13    6    7 1
    14    6   33 1
    15    6   34 1
    16    7    8 1
    17    7   35 1
    18    7   36 1
    19    9   10 2
    20    9   11 2
    21    9   12 1
    22   12   17 ar
    23   12   13 ar
    24   13   14 ar
    25   13   37 1
    26   14   15 ar
    27   14   38 1
    28   15   16 ar
    29   15   18 1
    30   16   17 ar
    31   16   39 1
    32   17   40 1
    33   18   19 1
    34   19   24 ar
    35   19   20 ar
    36   20   21 ar
    37   20   41 1
    38   21   22 ar
    39   21   42 1
    40   22   23 ar
    41   23   24 ar
    42   23   43 1
    43   24   44 1
    44   25   26 2
    45   25   27 am
    46   27   28 1
    47   27   45 1
    48   28   46 1
    49   29   47 1
    50   29   48 1
    51   29   49 1
@<TRIPOS>MOLECULE
ZINC00580328
   50    52     0     0     0
SMALL
USER_CHARGES

@<TRIPOS>ATOM
      1 C1         -0.0029    1.3711   -0.0350 C.3       1 <0>        -0.1559
      2 C2          0.0599   -0.1492    0.1253 C.3       1 <0>        -0.0229
      3 C3         -1.3580   -0.7082    0.2895 C.3       1 <0>         0.1575
      4 H1         -1.3146   -1.7952    0.3563 H         1 <0>         0.1190
      5 N1         -1.9569   -0.1678    1.5108 N.pl3     1 <0>        -0.9895
      6 C4         -1.4145   -0.5101    2.8265 C.3       1 <0>         0.1158
      7 C5         -0.0034    0.0725    2.9646 C.3       1 <0>        -0.1109
      8 S1          1.0250   -0.5670    1.6084 S.3       1 <0>        -0.2176
      9 S2         -3.2637    0.8436    1.4027 S.o2      1 <0>         2.6595
     10 O1         -3.2544    1.6460    2.5755 O.2       1 <0>        -0.9343
     11 O2         -3.2374    1.4031    0.0968 O.2       1 <0>        -0.9002
     12 C6         -4.7087   -0.1609    1.4913 C.ar      1 <0>        -0.6647
     13 C7         -5.3754   -0.5145    0.3327 C.ar      1 <0>        -0.0213
     14 C8         -6.5084   -1.3019    0.3993 C.ar      1 <0>        -0.1296
     15 C9         -6.9773   -1.7380    1.6303 C.ar      1 <0>         0.0976
     16 C10        -6.3064   -1.3817    2.7914 C.ar      1 <0>        -0.1433
     17 C11        -5.1706   -0.5988    2.7188 C.ar      1 <0>         0.0014
     18 O3         -8.0919   -2.5123    1.6986 O.3       1 <0>        -0.2172
     19 C12        -9.2474   -1.9310    2.1098 C.ar      1 <0>         0.2458
     20 C13       -10.3960   -2.6917    2.3154 C.ar      1 <0>        -0.1546
     21 C14       -11.5508   -2.0633    2.7336 C.ar      1 <0>         0.1685
     22 N2        -11.5753   -0.7598    2.9382 N.ar      1 <0>        -0.4682
     23 C15       -10.5083   -0.0055    2.7539 C.ar      1 <0>         0.1749
     24 C16        -9.3135   -0.5593    2.3425 C.ar      1 <0>        -0.2149
     25 C17        -2.1953   -0.3110   -0.8989 C.2       1 <0>         0.5084
     26 O4         -1.8928    0.6627   -1.5556 O.2       1 <0>        -0.4349
     27 N3         -3.2804   -1.0378   -1.2319 N.am      1 <0>        -0.6093
     28 O5         -4.0671   -0.6646   -2.3485 O.3       1 <0>        -0.2988
     29 C18         0.7201   -0.7686   -1.1082 C.3       1 <0>        -0.1360
     30 H2          0.9974    1.7898    0.0758 H         1 <0>         0.0714
     31 H3         -0.3921    1.6165   -1.0231 H         1 <0>         0.1118
     32 H4         -0.6587    1.7901    0.7282 H         1 <0>         0.0405
     33 H5         -2.0566   -0.0950    3.6034 H         1 <0>         0.1071
     34 H6         -1.3719   -1.5942    2.9312 H         1 <0>         0.0981
     35 H7         -0.0494    1.1600    2.9073 H         1 <0>         0.0952
     36 H8          0.4245   -0.2280    3.9210 H         1 <0>         0.1270
     37 H9         -5.0102   -0.1745   -0.6251 H         1 <0>         0.1791
     38 H10        -7.0290   -1.5776   -0.5059 H         1 <0>         0.1529
     39 H11        -6.6695   -1.7195    3.7507 H         1 <0>         0.1492
     40 H12        -4.6455   -0.3248    3.6219 H         1 <0>         0.1552
     41 H13       -10.3827   -3.7588    2.1494 H         1 <0>         0.1957
     42 H14       -12.4461   -2.6453    2.8951 H         1 <0>         0.2201
     43 H15       -10.5700    1.0580    2.9318 H         1 <0>         0.2154
     44 H16        -8.4426    0.0630    2.1984 H         1 <0>         0.1847
     45 H17        -3.5223   -1.8166   -0.7066 H         1 <0>         0.4019
     46 H18        -4.8235   -1.2455   -2.5085 H         1 <0>         0.3840
     47 H19         1.7303   -0.3739   -1.2164 H         1 <0>         0.0804
     48 H20         0.7637   -1.8515   -0.9917 H         1 <0>         0.0684
     49 H21         0.1366   -0.5218   -1.9951 H         1 <0>         0.0819
     50 H22       -12.4011   -0.3444    3.2320 H         1 <0>         0.4557
@<TRIPOS>BOND
     1    1    2 1
     2    1   30 1
     3    1   31 1
     4    1   32 1
     5    2    8 1
     6    2    3 1
     7    2   29 1
     8    3    4 1
     9    3    5 1
    10    3   25 1
    11    5    6 1
    12    5    9 1
    13    6    7 1
    14    6   33 1
    15    6   34 1
    16    7    8 1
    17    7   35 1
    18    7   36 1
    19    9   10 2
    20    9   11 2
    21    9   12 1
    22   12   17 ar
    23   12   13 ar
    24   13   14 ar
    25   13   37 1
    26   14   15 ar
    27   14   38 1
    28   15   16 ar
    29   15   18 1
    30   16   17 ar
    31   16   39 1
    32   17   40 1
    33   18   19 1
    34   19   24 ar
    35   19   20 ar
    36   20   21 ar
    37   20   41 1
    38   21   22 ar
    39   21   42 1
    40   22   23 ar
    41   22   50 1
    42   23   24 ar
    43   23   43 1
    44   24   44 1
    45   25   26 2
    46   25   27 am
    47   27   28 1
    48   27   45 1
    49   28   46 1
    50   29   47 1
    51   29   48 1
    52   29   49 1
