@<TRIPOS>MOLECULE
ZINC03817204
   57    60     0     0     0
SMALL
USER_CHARGES
N-[3-(hydroxycarbamoyl)tetrahydropyran-4-yl]-4-[(2-methyl-4-quinolyl)methoxy]benzamide
@<TRIPOS>ATOM
      1 C1         12.4141    3.1742   -1.7598 C.3       1 <0>        -0.1089
      2 C2         11.4831    4.0380   -0.9486 C.ar      1 <0>         0.1630
      3 C3         10.1409    3.6784   -0.8463 C.ar      1 <0>        -0.1467
      4 C4          9.2827    4.4491   -0.1149 C.ar      1 <0>        -0.0354
      5 C5          9.7948    5.5997    0.5139 C.ar      1 <0>        -0.0976
      6 C6          8.9742    6.4369    1.2871 C.ar      1 <0>        -0.1045
      7 C7          9.5085    7.5375    1.8842 C.ar      1 <0>        -0.1108
      8 C8         10.8611    7.8420    1.7429 C.ar      1 <0>        -0.1006
      9 C9         11.6858    7.0499    1.0053 C.ar      1 <0>        -0.0898
     10 C10        11.1713    5.9044    0.3731 C.ar      1 <0>         0.1347
     11 N1         11.9576    5.1075   -0.3575 N.ar      1 <0>        -0.4737
     12 C11         7.8266    4.0813    0.0102 C.3       1 <0>         0.1004
     13 O1          7.5734    2.8819   -0.7242 O.3       1 <0>        -0.3048
     14 C12         6.3008    2.4105   -0.7146 C.ar      1 <0>         0.1580
     15 C13         5.9870    1.2481   -1.4090 C.ar      1 <0>        -0.1557
     16 C14         4.6969    0.7666   -1.4017 C.ar      1 <0>        -0.0164
     17 C15         3.7027    1.4483   -0.6950 C.ar      1 <0>        -0.1704
     18 C16         4.0211    2.6197   -0.0030 C.ar      1 <0>        -0.0409
     19 C17         5.3149    3.0913   -0.0101 C.ar      1 <0>        -0.2169
     20 C18         2.3186    0.9357   -0.6846 C.2       1 <0>         0.5733
     21 O2          2.0423   -0.0810   -1.2914 O.2       1 <0>        -0.5348
     22 N2          1.3611    1.5946   -0.0024 N.am      1 <0>        -0.7140
     23 C19        -0.0127    1.0858    0.0080 C.3       1 <0>         0.1668
     24 H1          0.0021   -0.0041    0.0020 H         1 <0>         0.1056
     25 C20        -0.7571    1.5950   -1.2301 C.3       1 <0>        -0.1669
     26 C21        -0.8432    3.1225   -1.1717 C.3       1 <0>         0.0562
     27 O3         -1.4965    3.5173    0.0364 O.3       1 <0>        -0.3681
     28 C22        -0.8185    3.1096    1.2264 C.3       1 <0>         0.0694
     29 C23        -0.7333    1.5816    1.2655 C.3       1 <0>        -0.1429
     30 H2         -1.7385    1.1615    1.2989 H         1 <0>         0.1298
     31 C24         0.0338    1.1498    2.4887 C.2       1 <0>         0.5253
     32 O4          1.0563    0.5087    2.3683 O.2       1 <0>        -0.4961
     33 N3         -0.4164    1.4762    3.7165 N.am      1 <0>        -0.5966
     34 O5          0.3044    1.0705    4.8658 O.3       1 <0>        -0.3156
     35 H3         12.4256    3.5227   -2.7926 H         1 <0>         0.0833
     36 H4         13.4202    3.2348   -1.3447 H         1 <0>         0.0807
     37 H5         12.0700    2.1405   -1.7290 H         1 <0>         0.0794
     38 H6          9.7794    2.7913   -1.3451 H         1 <0>         0.1477
     39 H7          7.9245    6.2112    1.4039 H         1 <0>         0.1273
     40 H8          8.8758    8.1833    2.4750 H         1 <0>         0.1297
     41 H9         11.2610    8.7211    2.2263 H         1 <0>         0.1324
     42 H10        12.7318    7.3001    0.9062 H         1 <0>         0.1378
     43 H11         7.2124    4.8883   -0.3891 H         1 <0>         0.0868
     44 H12         7.5808    3.9231    1.0603 H         1 <0>         0.0868
     45 H13         6.7560    0.7216   -1.9546 H         1 <0>         0.1410
     46 H14         4.4539   -0.1369   -1.9412 H         1 <0>         0.1457
     47 H15         3.2545    3.1519    0.5407 H         1 <0>         0.1241
     48 H16         5.5628    3.9938    0.5288 H         1 <0>         0.1337
     49 H17         1.5815    2.4058    0.4817 H         1 <0>         0.3938
     50 H18        -0.2187    1.2932   -2.1285 H         1 <0>         0.0910
     51 H19        -1.7628    1.1751   -1.2488 H         1 <0>         0.0883
     52 H20        -1.4106    3.4876   -2.0278 H         1 <0>         0.1034
     53 H21         0.1620    3.5433   -1.1956 H         1 <0>         0.0546
     54 H22        -1.3680    3.4655    2.0979 H         1 <0>         0.1044
     55 H23         0.1872    3.5301    1.2340 H         1 <0>         0.0563
     56 H24        -1.2341    1.9889    3.8127 H         1 <0>         0.4078
     57 H25        -0.0958    1.3509    5.7003 H         1 <0>         0.3895
@<TRIPOS>BOND
     1    1    2 1
     2    1   35 1
     3    1   36 1
     4    1   37 1
     5    2   11 ar
     6    2    3 ar
     7    3    4 ar
     8    3   38 1
     9    4    5 ar
    10    4   12 1
    11    5   10 ar
    12    5    6 ar
    13    6    7 ar
    14    6   39 1
    15    7    8 ar
    16    7   40 1
    17    8    9 ar
    18    8   41 1
    19    9   10 ar
    20    9   42 1
    21   10   11 ar
    22   12   13 1
    23   12   43 1
    24   12   44 1
    25   13   14 1
    26   14   19 ar
    27   14   15 ar
    28   15   16 ar
    29   15   45 1
    30   16   17 ar
    31   16   46 1
    32   17   18 ar
    33   17   20 1
    34   18   19 ar
    35   18   47 1
    36   19   48 1
    37   20   21 2
    38   20   22 am
    39   22   23 1
    40   22   49 1
    41   23   24 1
    42   23   29 1
    43   23   25 1
    44   25   26 1
    45   25   50 1
    46   25   51 1
    47   26   27 1
    48   26   52 1
    49   26   53 1
    50   27   28 1
    51   28   29 1
    52   28   54 1
    53   28   55 1
    54   29   30 1
    55   29   31 1
    56   31   32 2
    57   31   33 am
    58   33   34 1
    59   33   56 1
    60   34   57 1
@<TRIPOS>MOLECULE
ZINC13982474
   54    57     0     0     0
SMALL
USER_CHARGES
N-[(3R,4R)-3-(hydroxycarbamoyl)tetrahydropyran-4-yl]-4-[[2-(trifluoromethyl)benzimidazol-1-yl]methyl]benzamide
@<TRIPOS>ATOM
      1 C1         -8.6866    7.9745   -6.1187 C.ar      1 <0>        -0.1260
      2 C2         -7.3857    7.6287   -6.4565 C.ar      1 <0>        -0.0804
      3 C3         -7.0477    6.3103   -6.6755 C.ar      1 <0>        -0.1148
      4 C4         -8.0167    5.3232   -6.5570 C.ar      1 <0>         0.0764
      5 C5         -9.3344    5.6741   -6.2183 C.ar      1 <0>         0.0396
      6 C6         -9.6549    7.0175   -6.0056 C.ar      1 <0>        -0.0476
      7 N1        -10.0501    4.5213   -6.1681 N.2       1 <0>        -0.4246
      8 C7         -9.2773    3.5139   -6.4522 C.2       1 <0>         0.1831
      9 N2         -8.0137    3.9505   -6.7040 N.pl3     1 <0>        -0.4578
     10 C8         -6.8619    3.1177   -7.0592 C.3       1 <0>         0.1351
     11 C9         -6.0727    2.7956   -5.8165 C.ar      1 <0>        -0.0998
     12 C10        -6.3071    1.6122   -5.1391 C.ar      1 <0>        -0.1033
     13 C11        -5.5874    1.3109   -4.0014 C.ar      1 <0>        -0.0552
     14 C12        -4.6214    2.2031   -3.5337 C.ar      1 <0>        -0.1201
     15 C13        -4.3938    3.3979   -4.2185 C.ar      1 <0>        -0.0831
     16 C14        -5.1165    3.6844   -5.3582 C.ar      1 <0>        -0.1009
     17 C15        -3.8467    1.8869   -2.3148 C.2       1 <0>         0.5598
     18 O1         -4.0505    0.8480   -1.7176 O.2       1 <0>        -0.5328
     19 N3         -2.9145    2.7506   -1.8658 N.am      1 <0>        -0.7127
     20 C16        -2.1469    2.4372   -0.6579 C.3       1 <0>         0.1692
     21 H1         -1.9681    1.3632   -0.6064 H         1 <0>         0.1052
     22 C17        -2.9316    2.8860    0.5787 C.3       1 <0>        -0.1805
     23 C18        -2.0887    2.6267    1.8301 C.3       1 <0>         0.0614
     24 O2         -0.8439    3.3199    1.7167 O.3       1 <0>        -0.3739
     25 C19        -0.0462    2.9079    0.6050 C.3       1 <0>         0.0698
     26 C20        -0.8070    3.1785   -0.6957 C.3       1 <0>        -0.1471
     27 H2         -0.2186    2.8246   -1.5422 H         1 <0>         0.1217
     28 C21        -1.0540    4.6585   -0.8360 C.2       1 <0>         0.5374
     29 O3         -2.1892    5.0799   -0.9055 O.2       1 <0>        -0.5096
     30 N4         -0.0135    5.5138   -0.8844 N.am      1 <0>        -0.5915
     31 O4         -0.2456    6.9044   -1.0163 O.3       1 <0>        -0.3144
     32 C22        -9.7178    2.0734   -6.4963 C.3       1 <0>         0.5595
     33 F1        -11.1154    2.0136   -6.5168 F         1 <0>        -0.1437
     34 F2         -9.2080    1.4649   -7.6483 F         1 <0>        -0.1654
     35 F3         -9.2390    1.4044   -5.3648 F         1 <0>        -0.1587
     36 H3         -8.9374    9.0113   -5.9499 H         1 <0>         0.1366
     37 H4         -6.6331    8.3978   -6.5487 H         1 <0>         0.1370
     38 H5         -6.0339    6.0467   -6.9385 H         1 <0>         0.1267
     39 H6        -10.6638    7.2975   -5.7407 H         1 <0>         0.1364
     40 H7         -6.2275    3.6563   -7.7632 H         1 <0>         0.1134
     41 H8         -7.2103    2.1926   -7.5184 H         1 <0>         0.1142
     42 H9         -7.0549    0.9227   -5.5020 H         1 <0>         0.1332
     43 H10        -5.7709    0.3864   -3.4739 H         1 <0>         0.1430
     44 H11        -3.6508    4.0945   -3.8593 H         1 <0>         0.1298
     45 H12        -4.9383    4.6065   -5.8916 H         1 <0>         0.1300
     46 H13        -2.7519    3.5796   -2.3423 H         1 <0>         0.4054
     47 H14        -3.1532    3.9506    0.5029 H         1 <0>         0.0998
     48 H15        -3.8626    2.3230    0.6435 H         1 <0>         0.0837
     49 H16        -2.6246    2.9835    2.7096 H         1 <0>         0.1023
     50 H17        -1.9018    1.5573    1.9273 H         1 <0>         0.0581
     51 H18         0.1676    1.8422    0.6860 H         1 <0>         0.0756
     52 H19         0.8894    3.4671    0.6019 H         1 <0>         0.1031
     53 H20         0.8943    5.1767   -0.8288 H         1 <0>         0.4076
     54 H21         0.5610    7.4371   -1.0420 H         1 <0>         0.3897
@<TRIPOS>BOND
     1    1    6 ar
     2    1    2 ar
     3    1   36 1
     4    2    3 ar
     5    2   37 1
     6    3    4 ar
     7    3   38 1
     8    4    9 1
     9    4    5 ar
    10    5    6 ar
    11    5    7 1
    12    6   39 1
    13    7    8 2
    14    8    9 1
    15    8   32 1
    16    9   10 1
    17   10   11 1
    18   10   40 1
    19   10   41 1
    20   11   16 ar
    21   11   12 ar
    22   12   13 ar
    23   12   42 1
    24   13   14 ar
    25   13   43 1
    26   14   15 ar
    27   14   17 1
    28   15   16 ar
    29   15   44 1
    30   16   45 1
    31   17   18 2
    32   17   19 am
    33   19   20 1
    34   19   46 1
    35   20   21 1
    36   20   26 1
    37   20   22 1
    38   22   23 1
    39   22   47 1
    40   22   48 1
    41   23   24 1
    42   23   49 1
    43   23   50 1
    44   24   25 1
    45   25   26 1
    46   25   51 1
    47   25   52 1
    48   26   27 1
    49   26   28 1
    50   28   29 2
    51   28   30 am
    52   30   31 1
    53   30   53 1
    54   31   54 1
    55   32   33 1
    56   32   34 1
    57   32   35 1
