@<TRIPOS>MOLECULE
ZINC53166256
   43    46     0     0     0
SMALL
USER_CHARGES

@<TRIPOS>ATOM
      1 C1         -0.0645    1.4412   -0.3732 C.3       1 <0>         0.0245
      2 N1         -0.0216   -0.0161   -0.1927 N.3       1 <0>        -0.5427
      3 C2          0.3881   -0.6883   -1.4329 C.3       1 <0>         0.0399
      4 C3          0.2462   -2.2042   -1.2592 C.3       1 <0>         0.1270
      5 N2          0.9912   -2.6085   -0.0572 N.pl3     1 <0>        -0.5934
      6 C4          0.7333   -1.8856    1.1973 C.3       1 <0>         0.1156
      7 C5          0.8560   -0.3822    0.9269 C.3       1 <0>         0.0395
      8 C6          1.9059   -3.6360   -0.1053 C.2       1 <0>         0.5356
      9 N3          2.1874   -4.1476   -1.2567 N.2       1 <0>        -0.6206
     10 C7          2.9530   -5.2310   -1.5577 C.ar      1 <0>         0.1701
     11 C8          2.4830   -6.1190   -2.5335 C.ar      1 <0>        -0.1161
     12 C9          3.2327   -7.2189   -2.8990 C.ar      1 <0>        -0.1046
     13 C10         4.4585   -7.4578   -2.3086 C.ar      1 <0>        -0.1308
     14 C11         4.9338   -6.5952   -1.3330 C.ar      1 <0>        -0.1099
     15 C12         4.1849   -5.4996   -0.9492 C.ar      1 <0>         0.0928
     16 N4          4.6603   -4.6750    0.0974 N.pl3     1 <0>        -0.6675
     17 C13         3.8314   -4.5378    1.1992 C.2       1 <0>         0.0941
     18 C14         2.5165   -4.0886    1.1665 C.2       1 <0>        -0.2204
     19 C15         1.8382   -4.1107    2.4492 C.2       1 <0>        -0.0854
     20 C16         2.5687   -4.5058    3.5084 C.2       1 <0>        -0.1956
     21 S1          4.1544   -4.8614    2.8004 S.3       1 <0>         0.1912
     22 C17         2.1405   -4.6249    4.9484 C.3       1 <0>         0.1641
     23 O1          1.6299   -5.9381    5.1865 O.3       1 <0>        -0.5666
     24 H1          0.9395    1.8113   -0.5807 H         1 <0>         0.0253
     25 H2         -0.7212    1.6847   -1.2084 H         1 <0>         0.0709
     26 H3         -0.4436    1.9089    0.5355 H         1 <0>         0.0707
     27 H4         -0.2467   -0.3553   -2.2540 H         1 <0>         0.0875
     28 H5          1.4271   -0.4432   -1.6533 H         1 <0>         0.0376
     29 H6         -0.8063   -2.4623   -1.1417 H         1 <0>         0.0713
     30 H7          0.6556   -2.7127   -2.1321 H         1 <0>         0.1047
     31 H8         -0.2724   -2.1131    1.5509 H         1 <0>         0.0773
     32 H9          1.4647   -2.1834    1.9486 H         1 <0>         0.0976
     33 H10         1.8885   -0.1414    0.6736 H         1 <0>         0.0377
     34 H11         0.5606    0.1728    1.8173 H         1 <0>         0.0886
     35 H12         1.5267   -5.9420   -3.0033 H         1 <0>         0.1272
     36 H13         2.8583   -7.8974   -3.6513 H         1 <0>         0.1261
     37 H14         5.0449   -8.3146   -2.6060 H         1 <0>         0.1266
     38 H15         5.8924   -6.7804   -0.8713 H         1 <0>         0.1236
     39 H16         5.5203   -4.2292    0.0463 H         1 <0>         0.4183
     40 H17         0.8015   -3.8247    2.5488 H         1 <0>         0.1460
     41 H18         2.9969   -4.4447    5.5982 H         1 <0>         0.0639
     42 H19         1.3639   -3.8895    5.1585 H         1 <0>         0.0718
     43 H20         1.3347   -6.0866    6.0953 H         1 <0>         0.3866
@<TRIPOS>BOND
     1    1    2 1
     2    1   24 1
     3    1   25 1
     4    1   26 1
     5    2    7 1
     6    2    3 1
     7    3    4 1
     8    3   27 1
     9    3   28 1
    10    4    5 1
    11    4   29 1
    12    4   30 1
    13    5    6 1
    14    5    8 1
    15    6    7 1
    16    6   31 1
    17    6   32 1
    18    7   33 1
    19    7   34 1
    20    8   18 1
    21    8    9 2
    22    9   10 1
    23   10   15 ar
    24   10   11 ar
    25   11   12 ar
    26   11   35 1
    27   12   13 ar
    28   12   36 1
    29   13   14 ar
    30   13   37 1
    31   14   15 ar
    32   14   38 1
    33   15   16 1
    34   16   17 1
    35   16   39 1
    36   17   21 1
    37   17   18 2
    38   18   19 1
    39   19   20 2
    40   19   40 1
    41   20   21 1
    42   20   22 1
    43   22   23 1
    44   22   41 1
    45   22   42 1
    46   23   43 1
@<TRIPOS>MOLECULE
ZINC53166256
   44    47     0     0     0
SMALL
USER_CHARGES

@<TRIPOS>ATOM
      1 C1         -0.0503    1.4404   -0.3738 C.3       1 <0>        -0.0468
      2 N1         -0.0137   -0.0159   -0.1846 N.4       1 <0>        -0.3851
      3 C2          0.4926   -0.6538   -1.4064 C.3       1 <0>        -0.0215
      4 C3          0.4236   -2.1768   -1.2526 C.3       1 <0>         0.1009
      5 N2          1.1441   -2.5548   -0.0269 N.pl3     1 <0>        -0.6150
      6 C4          0.8123   -1.8460    1.2187 C.3       1 <0>         0.0891
      7 C5          0.8630   -0.3387    0.9482 C.3       1 <0>        -0.0221
      8 C6          2.1011   -3.5439   -0.0451 C.2       1 <0>         0.5271
      9 N3          2.4417   -4.0411   -1.1867 N.2       1 <0>        -0.5934
     10 C7          3.2607   -5.0916   -1.4627 C.ar      1 <0>         0.1438
     11 C8          2.8603   -5.9960   -2.4544 C.ar      1 <0>        -0.1034
     12 C9          3.6662   -7.0636   -2.7954 C.ar      1 <0>        -0.1053
     13 C10         4.8803   -7.2535   -2.1643 C.ar      1 <0>        -0.1121
     14 C11         5.2869   -6.3742   -1.1727 C.ar      1 <0>        -0.1118
     15 C12         4.4814   -5.3110   -0.8134 C.ar      1 <0>         0.1053
     16 N4          4.8874   -4.4699    0.2491 N.pl3     1 <0>        -0.6685
     17 C13         4.0171   -4.3690    1.3226 C.2       1 <0>         0.0970
     18 C14         2.6868   -3.9739    1.2462 C.2       1 <0>        -0.2330
     19 C15         1.9674   -4.0264    2.5054 C.2       1 <0>        -0.1010
     20 C16         2.6776   -4.3936    3.5882 C.2       1 <0>        -0.1858
     21 S1          4.2994   -4.6826    2.9336 S.3       1 <0>         0.2189
     22 C17         2.2067   -4.5331    5.0129 C.3       1 <0>         0.1600
     23 O1          1.7425   -5.8666    5.2328 O.3       1 <0>        -0.5661
     24 H1          0.9563    1.8058   -0.5769 H         1 <0>         0.1210
     25 H2         -0.7009    1.6813   -1.2145 H         1 <0>         0.1255
     26 H3         -0.4336    1.9146    0.5297 H         1 <0>         0.1251
     27 H4         -0.1168   -0.3464   -2.2563 H         1 <0>         0.1423
     28 H5          1.5267   -0.3518   -1.5724 H         1 <0>         0.1313
     29 H6         -0.6176   -2.4904   -1.1769 H         1 <0>         0.0891
     30 H7          0.8911   -2.6535   -2.1141 H         1 <0>         0.1420
     31 H8         -0.1896   -2.1263    1.5440 H         1 <0>         0.0942
     32 H9          1.5369   -2.1040    1.9911 H         1 <0>         0.1380
     33 H10         1.8859   -0.0462    0.7110 H         1 <0>         0.1319
     34 H11         0.5265    0.2010    1.8334 H         1 <0>         0.1434
     35 H12         1.9139   -5.8573   -2.9558 H         1 <0>         0.1292
     36 H13         3.3452   -7.7553   -3.5603 H         1 <0>         0.1323
     37 H14         5.5108   -8.0849   -2.4425 H         1 <0>         0.1334
     38 H15         6.2363   -6.5211   -0.6793 H         1 <0>         0.1295
     39 H16         5.7296   -3.9892    0.2272 H         1 <0>         0.4219
     40 H17         0.9172   -3.7832    2.5704 H         1 <0>         0.1434
     41 H18         3.0327   -4.3194    5.6912 H         1 <0>         0.0672
     42 H19         1.3940   -3.8304    5.1974 H         1 <0>         0.0714
     43 H20         1.4234   -6.0289    6.1311 H         1 <0>         0.3916
     44 H21        -0.9456   -0.3526    0.0063 H         1 <0>         0.4248
@<TRIPOS>BOND
     1    1    2 1
     2    1   24 1
     3    1   25 1
     4    1   26 1
     5    2    7 1
     6    2    3 1
     7    2   44 1
     8    3    4 1
     9    3   27 1
    10    3   28 1
    11    4    5 1
    12    4   29 1
    13    4   30 1
    14    5    6 1
    15    5    8 1
    16    6    7 1
    17    6   31 1
    18    6   32 1
    19    7   33 1
    20    7   34 1
    21    8   18 1
    22    8    9 2
    23    9   10 1
    24   10   15 ar
    25   10   11 ar
    26   11   12 ar
    27   11   35 1
    28   12   13 ar
    29   12   36 1
    30   13   14 ar
    31   13   37 1
    32   14   15 ar
    33   14   38 1
    34   15   16 1
    35   16   17 1
    36   16   39 1
    37   17   21 1
    38   17   18 2
    39   18   19 1
    40   19   20 2
    41   19   40 1
    42   20   21 1
    43   20   22 1
    44   22   23 1
    45   22   41 1
    46   22   42 1
    47   23   43 1
@<TRIPOS>MOLECULE
ZINC52956332
   66    69     0     0     0
SMALL
USER_CHARGES

@<TRIPOS>ATOM
      1 C1         -0.2570   -0.0396   -0.2249 C.3       1 <0>        -0.1481
      2 C2         -0.4777   -1.5512   -0.1410 C.3       1 <0>         0.0719
      3 C3          0.2510   -2.1058    1.0847 C.3       1 <0>        -0.1743
      4 O1         -1.8760   -1.8229   -0.0272 O.3       1 <0>        -0.2968
      5 C4         -2.3308   -2.9699   -0.5993 C.ar      1 <0>         0.1238
      6 C5         -1.4369   -3.8709   -1.1538 C.ar      1 <0>        -0.2108
      7 C6         -1.9007   -5.0365   -1.7356 C.ar      1 <0>        -0.0833
      8 C7         -3.2562   -5.3067   -1.7656 C.ar      1 <0>        -0.1528
      9 C8         -4.1549   -4.4130   -1.2140 C.ar      1 <0>        -0.0865
     10 C9         -3.6965   -3.2442   -0.6239 C.ar      1 <0>         0.1375
     11 N1         -4.6040   -2.3403   -0.0596 N.pl3     1 <0>        -0.6674
     12 C10        -5.1972   -1.2631   -0.8665 C.3       1 <0>         0.1547
     13 C11        -5.0050    0.0635   -0.1240 C.3       1 <0>         0.0426
     14 N2         -5.5408   -0.0593    1.2382 N.3       1 <0>        -0.5278
     15 C12        -4.8056   -1.0693    2.0110 C.3       1 <0>         0.0391
     16 C13        -4.9943   -2.4462    1.3545 C.3       1 <0>         0.1554
     17 C14        -5.5326    1.2387    1.9262 C.3       1 <0>         0.0947
     18 C15        -6.3064    1.1292    3.2147 C.ar      1 <0>        -0.0813
     19 C16        -7.6662    1.3854    3.2273 C.ar      1 <0>        -0.0744
     20 C17        -8.3840    1.2867    4.4058 C.ar      1 <0>        -0.1211
     21 C18        -7.7471    0.9321    5.5774 C.ar      1 <0>        -0.0675
     22 C19        -6.3760    0.6723    5.5716 C.ar      1 <0>        -0.1273
     23 C20        -5.6587    0.7682    4.3778 C.ar      1 <0>        -0.0879
     24 C21        -5.6870    0.2923    6.8233 C.2       1 <0>         0.5617
     25 O2         -6.1780   -0.5424    7.5580 O.2       1 <0>        -0.5326
     26 N3         -4.5146    0.8713    7.1497 N.am      1 <0>        -0.6059
     27 C22        -3.8640    1.8148    6.2303 C.3       1 <0>         0.0916
     28 C23        -3.5771    3.1180    6.9827 C.3       1 <0>        -0.1360
     29 C24        -2.7654    2.8071    8.2423 C.3       1 <0>        -0.1214
     30 C25        -3.5758    1.8882    9.1594 C.3       1 <0>        -0.1356
     31 C26        -3.8657    0.5757    8.4343 C.3       1 <0>         0.1105
     32 H1          0.8096    0.1676   -0.3117 H         1 <0>         0.0754
     33 H2         -0.7761    0.3555   -1.0981 H         1 <0>         0.0627
     34 H3         -0.6472    0.4351    0.6754 H         1 <0>         0.0636
     35 H4         -0.0875   -2.0259   -1.0413 H         1 <0>         0.0742
     36 H5         -0.1393   -1.6311    1.9850 H         1 <0>         0.0650
     37 H6          0.0937   -3.1828    1.1445 H         1 <0>         0.0608
     38 H7          1.3176   -1.8986    0.9979 H         1 <0>         0.0710
     39 H8         -0.3773   -3.6629   -1.1321 H         1 <0>         0.1279
     40 H9         -1.2021   -5.7375   -2.1681 H         1 <0>         0.1235
     41 H10        -3.6139   -6.2182   -2.2214 H         1 <0>         0.1239
     42 H11        -5.2133   -4.6264   -1.2391 H         1 <0>         0.1282
     43 H12        -4.7006   -1.2157   -1.8356 H         1 <0>         0.0685
     44 H13        -6.2613   -1.4538   -1.0061 H         1 <0>         0.0563
     45 H14        -3.9427    0.3033   -0.0768 H         1 <0>         0.0406
     46 H15        -5.5341    0.8563   -0.6529 H         1 <0>         0.0772
     47 H16        -3.7461   -0.8138    2.0285 H         1 <0>         0.0394
     48 H17        -5.1901   -1.0982    3.0305 H         1 <0>         0.0783
     49 H18        -6.0393   -2.7483    1.4243 H         1 <0>         0.0563
     50 H19        -4.3636   -3.1812    1.8544 H         1 <0>         0.0674
     51 H20        -4.5044    1.5283    2.1433 H         1 <0>         0.0422
     52 H21        -5.9950    1.9913    1.2875 H         1 <0>         0.0858
     53 H22        -8.1693    1.6640    2.3132 H         1 <0>         0.1285
     54 H23        -9.4450    1.4880    4.4089 H         1 <0>         0.1309
     55 H24        -8.3085    0.8561    6.4969 H         1 <0>         0.1292
     56 H25        -4.5982    0.5642    4.3658 H         1 <0>         0.1264
     57 H26        -2.9283    1.3874    5.8698 H         1 <0>         0.0700
     58 H27        -4.5244    2.0175    5.3871 H         1 <0>         0.0990
     59 H28        -3.0089    3.7912    6.3407 H         1 <0>         0.0765
     60 H29        -4.5182    3.5906    7.2637 H         1 <0>         0.0681
     61 H30        -1.8355    2.3122    7.9621 H         1 <0>         0.0648
     62 H31        -2.5388    3.7354    8.7666 H         1 <0>         0.0672
     63 H32        -3.0066    1.6860   10.0668 H         1 <0>         0.0777
     64 H33        -4.5169    2.3723    9.4200 H         1 <0>         0.0669
     65 H34        -4.5272   -0.0389    9.0449 H         1 <0>         0.0936
     66 H35        -2.9302    0.0450    8.2576 H         1 <0>         0.0683
@<TRIPOS>BOND
     1    1    2 1
     2    1   32 1
     3    1   33 1
     4    1   34 1
     5    2    3 1
     6    2    4 1
     7    2   35 1
     8    3   36 1
     9    3   37 1
    10    3   38 1
    11    4    5 1
    12    5   10 ar
    13    5    6 ar
    14    6    7 ar
    15    6   39 1
    16    7    8 ar
    17    7   40 1
    18    8    9 ar
    19    8   41 1
    20    9   10 ar
    21    9   42 1
    22   10   11 1
    23   11   16 1
    24   11   12 1
    25   12   13 1
    26   12   43 1
    27   12   44 1
    28   13   14 1
    29   13   45 1
    30   13   46 1
    31   14   15 1
    32   14   17 1
    33   15   16 1
    34   15   47 1
    35   15   48 1
    36   16   49 1
    37   16   50 1
    38   17   18 1
    39   17   51 1
    40   17   52 1
    41   18   23 ar
    42   18   19 ar
    43   19   20 ar
    44   19   53 1
    45   20   21 ar
    46   20   54 1
    47   21   22 ar
    48   21   55 1
    49   22   23 ar
    50   22   24 1
    51   23   56 1
    52   24   25 2
    53   24   26 am
    54   26   31 1
    55   26   27 1
    56   27   28 1
    57   27   57 1
    58   27   58 1
    59   28   29 1
    60   28   59 1
    61   28   60 1
    62   29   30 1
    63   29   61 1
    64   29   62 1
    65   30   31 1
    66   30   63 1
    67   30   64 1
    68   31   65 1
    69   31   66 1
@<TRIPOS>MOLECULE
ZINC03977785
   53    57     0     0     0
SMALL
USER_CHARGES

@<TRIPOS>ATOM
      1 C1         -0.0173    1.4248    0.0099 C.3       1 <0>         0.0297
      2 O1          0.0021   -0.0041    0.0020 O.3       1 <0>        -0.3232
      3 C2          0.5984   -0.5997   -1.0427 C.2       1 <0>         0.4702
      4 O2          1.0877    0.0699   -1.9214 O.2       1 <0>        -0.5141
      5 C3          0.6575   -2.1036   -1.1196 C.3       1 <0>        -0.0705
      6 H1         -0.3553   -2.5061   -1.1292 H         1 <0>         0.1302
      7 C4          1.4092   -2.6460    0.0974 C.3       1 <0>         0.1112
      8 H2          2.4212   -2.2414    0.1100 H         1 <0>         0.0602
      9 C5          1.4705   -4.1729    0.0153 C.3       1 <0>        -0.1515
     10 C6          2.2113   -4.5823   -1.2587 C.3       1 <0>        -0.1326
     11 C7          1.4664   -4.0438   -2.4826 C.3       1 <0>        -0.1081
     12 H3          0.4649   -4.4724   -2.5190 H         1 <0>         0.1315
     13 C8          1.3810   -2.5185   -2.3989 C.3       1 <0>        -0.0737
     14 H4          0.8319   -2.1415   -3.2617 H         1 <0>         0.1077
     15 C9          2.7928   -1.9262   -2.4160 C.3       1 <0>        -0.1589
     16 C10         3.5103   -2.3981   -3.6821 C.3       1 <0>         0.1155
     17 H5          2.9548   -2.0679   -4.5599 H         1 <0>         0.1495
     18 C11         4.9074   -1.8328   -3.7280 C.2       1 <0>         0.0218
     19 C12         5.9794   -2.5662   -4.1107 C.2       1 <0>        -0.1593
     20 C13         7.1369   -1.7045   -4.0313 C.ar      1 <0>        -0.1001
     21 C14         8.4945   -1.9085   -4.2980 C.ar      1 <0>        -0.0651
     22 C15         9.3323   -0.8371   -4.1111 C.ar      1 <0>        -0.1355
     23 C16         8.8675    0.3940   -3.6782 C.ar      1 <0>        -0.0814
     24 C17         7.5302    0.6240   -3.4055 C.ar      1 <0>        -0.1278
     25 C18         6.6557   -0.4455   -3.5858 C.ar      1 <0>         0.1112
     26 N1          5.3059   -0.5632   -3.4122 N.pl3     1 <0>        -0.5610
     27 H6          4.7183    0.1471   -3.1102 H         1 <0>         0.4235
     28 C19         5.8873   -4.0118   -4.5303 C.3       1 <0>        -0.0680
     29 C20         4.4103   -4.3357   -4.7986 C.3       1 <0>        -0.0070
     30 N2          3.5921   -3.8652   -3.6762 N.4       1 <0>        -0.3805
     31 C21         2.2397   -4.4350   -3.7475 C.3       1 <0>         0.0000
     32 O3          0.7259   -2.2590    1.2913 O.3       1 <0>        -0.5457
     33 H7          1.0053    1.8021    0.0021 H         1 <0>         0.0611
     34 H8         -0.5445    1.7859   -0.8732 H         1 <0>         0.0635
     35 H9         -0.5275    1.7763    0.9067 H         1 <0>         0.1087
     36 H10         1.9994   -4.5630    0.8849 H         1 <0>         0.0864
     37 H11         0.4583   -4.5769   -0.0067 H         1 <0>         0.0895
     38 H12         3.2209   -4.1721   -1.2390 H         1 <0>         0.0596
     39 H13         2.2629   -5.6696   -1.3148 H         1 <0>         0.0926
     40 H14         2.7325   -0.8379   -2.4143 H         1 <0>         0.1358
     41 H15         3.3417   -2.2650   -1.5373 H         1 <0>         0.0927
     42 H16         8.8666   -2.8645   -4.6357 H         1 <0>         0.1349
     43 H17        10.3874   -0.9579   -4.3074 H         1 <0>         0.1281
     44 H18         9.5726    1.2018   -3.5488 H         1 <0>         0.1313
     45 H19         7.1805    1.5885   -3.0678 H         1 <0>         0.1353
     46 H20         6.4698   -4.1697   -5.4380 H         1 <0>         0.1220
     47 H21         6.2658   -4.6516   -3.7331 H         1 <0>         0.0994
     48 H22         4.0893   -3.8376   -5.7134 H         1 <0>         0.1324
     49 H23         4.2888   -5.4132   -4.9094 H         1 <0>         0.1402
     50 H24         2.3054   -5.5210   -3.8133 H         1 <0>         0.1424
     51 H25         1.7237   -4.0459   -4.6252 H         1 <0>         0.1366
     52 H26         1.1478   -2.5695    2.1041 H         1 <0>         0.3887
     53 H27         4.0203   -4.1656   -2.8134 H         1 <0>         0.4208
@<TRIPOS>BOND
     1    1    2 1
     2    1   33 1
     3    1   34 1
     4    1   35 1
     5    2    3 1
     6    3    4 2
     7    3    5 1
     8    5    6 1
     9    5   13 1
    10    5    7 1
    11    7    8 1
    12    7    9 1
    13    7   32 1
    14    9   10 1
    15    9   36 1
    16    9   37 1
    17   10   11 1
    18   10   38 1
    19   10   39 1
    20   11   12 1
    21   11   31 1
    22   11   13 1
    23   13   14 1
    24   13   15 1
    25   15   16 1
    26   15   40 1
    27   15   41 1
    28   16   17 1
    29   16   30 1
    30   16   18 1
    31   18   26 1
    32   18   19 2
    33   19   20 1
    34   19   28 1
    35   20   25 ar
    36   20   21 ar
    37   21   22 ar
    38   21   42 1
    39   22   23 ar
    40   22   43 1
    41   23   24 ar
    42   23   44 1
    43   24   25 ar
    44   24   45 1
    45   25   26 1
    46   26   27 1
    47   28   29 1
    48   28   46 1
    49   28   47 1
    50   29   30 1
    51   29   48 1
    52   29   49 1
    53   30   31 1
    54   30   53 1
    55   31   50 1
    56   31   51 1
    57   32   52 1
@<TRIPOS>MOLECULE
ZINC02001180
   30    30     0     0     0
SMALL
USER_CHARGES
(1S)-2-amino-1-(2,5-dimethoxyphenyl)ethanol
@<TRIPOS>ATOM
      1 C1         -0.0127    1.0858    0.0080 C.3       1 <0>         0.0235
      2 O1         -0.6816    1.5467    1.1837 O.3       1 <0>        -0.3136
      3 C2         -0.7875    2.8926    1.3463 C.ar      1 <0>         0.1061
      4 C3         -0.2530    3.7502    0.3959 C.ar      1 <0>        -0.1501
      5 C4         -0.3656    5.1171    0.5581 C.ar      1 <0>        -0.1580
      6 C5         -1.0031    5.6326    1.6771 C.ar      1 <0>         0.1049
      7 C6         -1.5323    4.7753    2.6301 C.ar      1 <0>        -0.1366
      8 C7         -1.4247    3.4079    2.4650 C.ar      1 <0>        -0.1041
      9 C8         -2.2244    5.3353    3.8460 C.3       1 <0>         0.1435
     10 H1         -1.7304    6.2572    4.1529 H         1 <0>         0.1365
     11 C9         -3.6880    5.6283    3.5101 C.3       1 <0>        -0.0353
     12 O2         -2.1612    4.3840    4.9105 O.3       1 <0>        -0.5480
     13 O3         -1.1094    6.9785    1.8394 O.3       1 <0>        -0.3258
     14 C10        -0.5416    7.8019    0.8188 C.3       1 <0>         0.0240
     15 H2          0.0021   -0.0041    0.0020 H         1 <0>         0.1085
     16 H3          1.0099    1.4631    0.0003 H         1 <0>         0.0598
     17 H4         -0.5399    1.4469   -0.8751 H         1 <0>         0.0591
     18 H5          0.2474    3.3489   -0.4730 H         1 <0>         0.1406
     19 H6          0.0465    5.7847   -0.1841 H         1 <0>         0.1405
     20 H7         -1.8372    2.7403    3.2069 H         1 <0>         0.1408
     21 H8         -3.7370    6.2847    2.6413 H         1 <0>         0.1443
     22 H9         -4.2041    4.6940    3.2893 H         1 <0>         0.1396
     23 H10        -5.2999    6.4883    4.4592 H         1 <0>         0.4405
     24 H11        -4.2427    5.7236    5.4904 H         1 <0>         0.4406
     25 H12        -2.5822    3.5376    4.7070 H         1 <0>         0.3894
     26 H13        -0.6954    8.8511    1.0709 H         1 <0>         0.1072
     27 H14         0.5267    7.5997    0.7413 H         1 <0>         0.0620
     28 H15        -1.0229    7.5829   -0.1344 H         1 <0>         0.0607
     29 N1         -4.3176    6.3053    4.6575 N.4       1 <0>        -0.6419
     30 H16        -3.8384    7.1973    4.8277 H         1 <0>         0.4411
@<TRIPOS>BOND
     1    1    2 1
     2    1   15 1
     3    1   16 1
     4    1   17 1
     5    2    3 1
     6    3    8 ar
     7    3    4 ar
     8    4    5 ar
     9    4   18 1
    10    5    6 ar
    11    5   19 1
    12    6    7 ar
    13    6   13 1
    14    7    8 ar
    15    7    9 1
    16    8   20 1
    17    9   10 1
    18    9   11 1
    19    9   12 1
    20   11   21 1
    21   11   22 1
    22   11   29 1
    23   12   25 1
    24   13   14 1
    25   14   26 1
    26   14   27 1
    27   14   28 1
    28   23   29 1
    29   24   29 1
    30   29   30 1
@<TRIPOS>MOLECULE
ZINC02001181
   30    30     0     0     0
SMALL
USER_CHARGES
(1R)-2-amino-1-(2,5-dimethoxyphenyl)ethanol
@<TRIPOS>ATOM
      1 C1         -0.0127    1.0858    0.0080 C.3       1 <0>         0.0235
      2 O1         -0.6816    1.5467    1.1837 O.3       1 <0>        -0.3137
      3 C2         -0.1485    1.1819    2.3803 C.ar      1 <0>         0.1058
      4 C3          0.9945    0.3968    2.4200 C.ar      1 <0>        -0.1500
      5 C4          1.5359    0.0263    3.6353 C.ar      1 <0>        -0.1581
      6 C5          0.9367    0.4392    4.8163 C.ar      1 <0>         0.1056
      7 C6         -0.2056    1.2244    4.7767 C.ar      1 <0>        -0.1369
      8 C7         -0.7442    1.5994    3.5610 C.ar      1 <0>        -0.1042
      9 C8         -0.8560    1.6739    6.0597 C.3       1 <0>         0.1434
     10 H1         -0.0879    1.8625    6.8097 H         1 <0>         0.1372
     11 C9         -1.8018    0.5812    6.5620 C.3       1 <0>        -0.0357
     12 O2         -1.5962    2.8732    5.8239 O.3       1 <0>        -0.5485
     13 O3          1.4698    0.0744    6.0130 O.3       1 <0>        -0.3253
     14 C10         2.6473   -0.7345    5.9790 C.3       1 <0>         0.0240
     15 H2          0.0021   -0.0041    0.0020 H         1 <0>         0.0591
     16 H3          1.0099    1.4631    0.0003 H         1 <0>         0.0598
     17 H4         -0.5399    1.4469   -0.8751 H         1 <0>         0.1085
     18 H5          1.4612    0.0756    1.5005 H         1 <0>         0.1405
     19 H6          2.4260   -0.5846    3.6662 H         1 <0>         0.1406
     20 H7         -1.6315    2.2143    3.5301 H         1 <0>         0.1406
     21 H8         -2.5699    0.3925    5.8120 H         1 <0>         0.1393
     22 H9         -1.2372   -0.3336    6.7419 H         1 <0>         0.1450
     23 H10        -2.9122    1.8999    7.6875 H         1 <0>         0.4402
     24 H11        -3.0658    0.3143    8.1650 H         1 <0>         0.4405
     25 H12        -2.2984    2.7790    5.1658 H         1 <0>         0.3890
     26 H13         3.4403   -0.2000    5.4559 H         1 <0>         0.0620
     27 H14         2.9674   -0.9532    6.9978 H         1 <0>         0.1073
     28 H15         2.4325   -1.6672    5.4575 H         1 <0>         0.0606
     29 N1         -2.4153    1.0217    7.8273 N.4       1 <0>        -0.6415
     30 H16        -1.6787    1.1616    8.5288 H         1 <0>         0.4411
@<TRIPOS>BOND
     1    1    2 1
     2    1   15 1
     3    1   16 1
     4    1   17 1
     5    2    3 1
     6    3    8 ar
     7    3    4 ar
     8    4    5 ar
     9    4   18 1
    10    5    6 ar
    11    5   19 1
    12    6    7 ar
    13    6   13 1
    14    7    8 ar
    15    7    9 1
    16    8   20 1
    17    9   10 1
    18    9   11 1
    19    9   12 1
    20   11   21 1
    21   11   22 1
    22   11   29 1
    23   12   25 1
    24   13   14 1
    25   14   26 1
    26   14   27 1
    27   14   28 1
    28   23   29 1
    29   24   29 1
    30   29   30 1
@<TRIPOS>MOLECULE
ZINC02581459
   41    43     0     0     0
SMALL
USER_CHARGES

@<TRIPOS>ATOM
      1 C1         -0.1339    1.9422   -2.4462 C.3       1 <0>        -0.6728
      2 S1         -0.3197    0.7725   -1.0722 S.o2      1 <0>         2.5956
      3 O1          0.2181    1.3283    0.1199 O.2       1 <0>        -0.9097
      4 O2         -1.6232    0.2068   -1.0840 O.2       1 <0>        -0.9459
      5 N1          0.6903   -0.4857   -1.4450 N.pl3     1 <0>        -1.0607
      6 C2          2.0674   -0.2659   -1.5645 C.ar      1 <0>         0.1032
      7 C3          2.7939    0.1829   -0.4668 C.ar      1 <0>         0.1368
      8 C4          4.1563    0.3977   -0.5896 C.ar      1 <0>        -0.1258
      9 C5          4.7815    0.1624   -1.7975 C.ar      1 <0>        -0.1043
     10 C6          4.0591   -0.2867   -2.8955 C.ar      1 <0>        -0.1117
     11 C7          2.7038   -0.5034   -2.7811 C.ar      1 <0>        -0.0352
     12 C8          1.8585   -0.9795   -3.9333 C.3       1 <0>        -0.0953
     13 C9          2.7337   -1.5916   -5.0251 C.3       1 <0>        -0.1172
     14 C10         3.8537   -0.5997   -5.3603 C.3       1 <0>        -0.1241
     15 C11         4.8123   -0.5280   -4.1778 C.3       1 <0>        -0.0228
     16 H1          5.3493   -1.4739   -4.1067 H         1 <0>         0.1398
     17 C12         5.8011    0.5891   -4.3911 C.cat     1 <0>         0.5221
     18 N2          5.4951    1.6856   -5.0439 N.pl3     1 <0>        -0.6264
     19 C13         6.6681    2.5739   -5.0785 C.3       1 <0>         0.0552
     20 C14         7.7385    1.7737   -4.3076 C.3       1 <0>         0.0564
     21 N3          7.0299    0.5393   -3.9330 N.pl3     1 <0>        -0.6339
     22 O3          2.1698    0.4099    0.7202 O.3       1 <0>        -0.4533
     23 H2          0.9146    2.2232   -2.5449 H         1 <0>         0.1216
     24 H3         -0.4732    1.4742   -3.3703 H         1 <0>         0.1286
     25 H4         -0.7315    2.8322   -2.2490 H         1 <0>         0.1355
     26 H5          0.3276   -1.3751   -1.5805 H         1 <0>         0.4272
     27 H6          4.7278    0.7486    0.2569 H         1 <0>         0.1456
     28 H7          5.8445    0.3297   -1.8900 H         1 <0>         0.1206
     29 H8          1.1531   -1.7295   -3.5756 H         1 <0>         0.0928
     30 H9          1.3061   -0.1356   -4.3465 H         1 <0>         0.0887
     31 H10         3.1659   -2.5263   -4.6681 H         1 <0>         0.0815
     32 H11         2.1325   -1.7807   -5.9144 H         1 <0>         0.0917
     33 H12         4.3881   -0.9359   -6.2489 H         1 <0>         0.0936
     34 H13         3.4282    0.3878   -5.5389 H         1 <0>         0.0747
     35 H14         6.9862    2.7515   -6.1059 H         1 <0>         0.1287
     36 H15         6.4531    3.5152   -4.5730 H         1 <0>         0.1279
     37 H16         8.5905    1.5521   -4.9503 H         1 <0>         0.1289
     38 H17         8.0573    2.3159   -3.4174 H         1 <0>         0.1279
     39 H18         7.4115   -0.1961   -3.4284 H         1 <0>         0.4601
     40 H19         2.0766   -0.3783    1.2726 H         1 <0>         0.3958
     41 H20         4.6319    1.8799   -5.4415 H         1 <0>         0.4586
@<TRIPOS>BOND
     1    1    2 1
     2    1   23 1
     3    1   24 1
     4    1   25 1
     5    2    3 2
     6    2    4 2
     7    2    5 1
     8    5    6 1
     9    5   26 1
    10    6   11 ar
    11    6    7 ar
    12    7    8 ar
    13    7   22 1
    14    8    9 ar
    15    8   27 1
    16    9   10 ar
    17    9   28 1
    18   10   15 1
    19   10   11 ar
    20   11   12 1
    21   12   13 1
    22   12   29 1
    23   12   30 1
    24   13   14 1
    25   13   31 1
    26   13   32 1
    27   14   15 1
    28   14   33 1
    29   14   34 1
    30   15   16 1
    31   15   17 1
    32   17   21 1
    33   17   18 2
    34   18   19 1
    35   18   41 1
    36   19   20 1
    37   19   35 1
    38   19   36 1
    39   20   21 1
    40   20   37 1
    41   20   38 1
    42   21   39 1
    43   22   40 1
@<TRIPOS>MOLECULE
ZINC03995494
   41    43     0     0     0
SMALL
USER_CHARGES

@<TRIPOS>ATOM
      1 C1         -0.1291    1.9418   -2.4489 C.3       1 <0>        -0.6719
      2 S1         -0.3204    0.7721   -1.0756 S.o2      1 <0>         2.5947
      3 O1          0.2134    1.3276    0.1184 O.2       1 <0>        -0.9101
      4 O2         -1.6241    0.2069   -1.0920 O.2       1 <0>        -0.9468
      5 N1          0.6905   -0.4866   -1.4447 N.pl3     1 <0>        -1.0607
      6 C2          2.0675   -0.2663   -1.5644 C.ar      1 <0>         0.1037
      7 C3          2.7939    0.1829   -0.4668 C.ar      1 <0>         0.1364
      8 C4          4.1557    0.4005   -0.5905 C.ar      1 <0>        -0.1256
      9 C5          4.7795    0.1730   -1.8006 C.ar      1 <0>        -0.1059
     10 C6          4.0569   -0.2747   -2.8989 C.ar      1 <0>        -0.1111
     11 C7          2.7039   -0.5038   -2.7809 C.ar      1 <0>        -0.0358
     12 C8          1.8642   -1.0101   -3.9244 C.3       1 <0>        -0.0945
     13 C9          2.5887   -0.8089   -5.2537 C.3       1 <0>        -0.1188
     14 C10         4.0006   -1.3933   -5.1286 C.3       1 <0>        -0.1258
     15 C11         4.8059   -0.4934   -4.1878 C.3       1 <0>        -0.0216
     16 H1          4.9904    0.4695   -4.6641 H         1 <0>         0.1424
     17 C12         6.1241   -1.1600   -3.8895 C.cat     1 <0>         0.5214
     18 N2          6.2875   -2.4603   -3.9581 N.pl3     1 <0>        -0.6265
     19 C13         7.6784   -2.7943   -3.6119 C.3       1 <0>         0.0554
     20 C14         8.3096   -1.4166   -3.3223 C.3       1 <0>         0.0562
     21 N3          7.1947   -0.4824   -3.5474 N.pl3     1 <0>        -0.6348
     22 O3          2.1702    0.4075    0.7209 O.3       1 <0>        -0.4521
     23 H2          0.9177    2.2331   -2.5348 H         1 <0>         0.1247
     24 H3         -0.4521    1.4691   -3.3764 H         1 <0>         0.1284
     25 H4         -0.7380    2.8260   -2.2605 H         1 <0>         0.1361
     26 H5          0.3283   -1.3765   -1.5780 H         1 <0>         0.4267
     27 H6          4.7280    0.7476    0.2572 H         1 <0>         0.1458
     28 H7          5.8415    0.3455   -1.8945 H         1 <0>         0.1203
     29 H8          1.6646   -2.0720   -3.7810 H         1 <0>         0.0922
     30 H9          0.9193   -0.4670   -3.9443 H         1 <0>         0.0885
     31 H10         2.0477   -1.3230   -6.0481 H         1 <0>         0.0917
     32 H11         2.6508    0.2555   -5.4805 H         1 <0>         0.0809
     33 H12         3.9451   -2.4038   -4.7237 H         1 <0>         0.0778
     34 H13         4.4769   -1.4157   -6.1088 H         1 <0>         0.0933
     35 H14         7.7129   -3.4274   -2.7253 H         1 <0>         0.1276
     36 H15         8.1784   -3.2778   -4.4511 H         1 <0>         0.1285
     37 H16         8.6589   -1.3624   -2.2912 H         1 <0>         0.1280
     38 H17         9.1244   -1.2129   -4.0170 H         1 <0>         0.1282
     39 H18         7.2431    0.4820   -3.4555 H         1 <0>         0.4598
     40 H19         2.0787   -0.3815    1.2725 H         1 <0>         0.3943
     41 H20         5.5996   -3.1006   -4.1986 H         1 <0>         0.4587
@<TRIPOS>BOND
     1    1    2 1
     2    1   23 1
     3    1   24 1
     4    1   25 1
     5    2    3 2
     6    2    4 2
     7    2    5 1
     8    5    6 1
     9    5   26 1
    10    6   11 ar
    11    6    7 ar
    12    7    8 ar
    13    7   22 1
    14    8    9 ar
    15    8   27 1
    16    9   10 ar
    17    9   28 1
    18   10   15 1
    19   10   11 ar
    20   11   12 1
    21   12   13 1
    22   12   29 1
    23   12   30 1
    24   13   14 1
    25   13   31 1
    26   13   32 1
    27   14   15 1
    28   14   33 1
    29   14   34 1
    30   15   16 1
    31   15   17 1
    32   17   21 1
    33   17   18 2
    34   18   19 1
    35   18   41 1
    36   19   20 1
    37   19   35 1
    38   19   36 1
    39   20   21 1
    40   20   37 1
    41   20   38 1
    42   21   39 1
    43   22   40 1
@<TRIPOS>MOLECULE
ZINC22055590
   40    43     0     0     0
SMALL
USER_CHARGES
2-methyl-4-piperazin-1-yl-10H-thieno[2,3-b][1,5]benzodiazepine
@<TRIPOS>ATOM
      1 C1          2.9000    6.4909    5.1733 C.3       1 <0>        -0.0794
      2 C2          2.5815    5.9866    3.7894 C.2       1 <0>        -0.1487
      3 C3          1.6183    6.4056    2.9486 C.2       1 <0>        -0.1359
      4 C4          1.5178    5.7559    1.6564 C.2       1 <0>        -0.2219
      5 C5          2.4395    4.7328    1.4394 C.2       1 <0>         0.1326
      6 S1          3.3891    4.6898    2.8707 S.3       1 <0>         0.1175
      7 N1          2.5084    3.9288    0.3158 N.pl3     1 <0>        -0.6794
      8 C6          1.3322    3.2144   -0.0160 C.ar      1 <0>         0.1140
      9 C7          1.3818    1.8365   -0.0931 C.ar      1 <0>        -0.1132
     10 C8          0.2296    1.1109   -0.3542 C.ar      1 <0>        -0.1125
     11 C9         -0.9694    1.7704   -0.5428 C.ar      1 <0>        -0.1069
     12 C10        -1.0287    3.1477   -0.4744 C.ar      1 <0>        -0.1040
     13 C11         0.1275    3.8975   -0.2233 C.ar      1 <0>         0.1419
     14 N2          0.0194    5.2532   -0.2098 N.2       1 <0>        -0.5947
     15 C12         0.5397    6.1123    0.6013 C.2       1 <0>         0.5251
     16 N3          0.1661    7.4315    0.4793 N.pl3     1 <0>        -0.6143
     17 C13        -0.9003    7.8310   -0.4516 C.3       1 <0>         0.0945
     18 C14        -0.3858    8.9721   -1.3278 C.3       1 <0>        -0.0147
     19 N4          0.1296   10.0500   -0.4732 N.4       1 <0>        -0.5347
     20 C15         1.2772    9.5959    0.3235 C.3       1 <0>        -0.0188
     21 C16         0.8267    8.4796    1.2719 C.3       1 <0>         0.0827
     22 H1          2.2045    7.3011    5.4374 H         1 <0>         0.0840
     23 H2          3.9319    6.8713    5.1964 H         1 <0>         0.0821
     24 H3          2.7962    5.6683    5.8962 H         1 <0>         0.0829
     25 H4          0.9422    7.2004    3.2271 H         1 <0>         0.1391
     26 H5          3.4417    3.8721   -0.2636 H         1 <0>         0.4455
     27 H6          2.3208    1.3226    0.0501 H         1 <0>         0.1291
     28 H7          0.2702    0.0334   -0.4145 H         1 <0>         0.1328
     29 H8         -1.8675    1.2043   -0.7411 H         1 <0>         0.1317
     30 H9         -1.9729    3.6514   -0.6202 H         1 <0>         0.1285
     31 H10        -1.1776    6.9729   -1.0815 H         1 <0>         0.1410
     32 H11        -1.7789    8.1660    0.1193 H         1 <0>         0.0882
     33 H12         0.4208    8.6008   -1.9770 H         1 <0>         0.1293
     34 H13        -1.2082    9.3572   -1.9486 H         1 <0>         0.1436
     35 H14         0.4513   10.8938   -1.1013 H         1 <0>         0.4556
     36 H15         2.0613    9.2147   -0.3472 H         1 <0>         0.1293
     37 H16         1.6735   10.4385    0.9091 H         1 <0>         0.1449
     38 H17         0.1191    8.8797    2.0130 H         1 <0>         0.0936
     39 H18         1.6982    8.0530    1.7901 H         1 <0>         0.1398
     40 H19        -0.6625   10.3846    0.2128 H         1 <0>         0.4497
@<TRIPOS>BOND
     1    1    2 1
     2    1   22 1
     3    1   23 1
     4    1   24 1
     5    2    6 1
     6    2    3 2
     7    3    4 1
     8    3   25 1
     9    4   15 1
    10    4    5 2
    11    5    6 1
    12    5    7 1
    13    7    8 1
    14    7   26 1
    15    8   13 ar
    16    8    9 ar
    17    9   10 ar
    18    9   27 1
    19   10   11 ar
    20   10   28 1
    21   11   12 ar
    22   11   29 1
    23   12   13 ar
    24   12   30 1
    25   13   14 1
    26   14   15 2
    27   15   16 1
    28   16   21 1
    29   16   17 1
    30   17   18 1
    31   17   31 1
    32   17   32 1
    33   18   19 1
    34   18   33 1
    35   18   34 1
    36   19   20 1
    37   19   35 1
    38   19   40 1
    39   20   21 1
    40   20   36 1
    41   20   37 1
    42   21   38 1
    43   21   39 1
@<TRIPOS>MOLECULE
ZINC22055590
   39    42     0     0     0
SMALL
USER_CHARGES
2-methyl-4-piperazin-1-yl-10H-thieno[2,3-b][1,5]benzodiazepine
@<TRIPOS>ATOM
      1 C1          2.9000    6.4909    5.1733 C.3       1 <0>        -0.0731
      2 C2          2.5815    5.9866    3.7894 C.2       1 <0>        -0.1595
      3 C3          1.6183    6.4056    2.9486 C.2       1 <0>        -0.1197
      4 C4          1.5178    5.7559    1.6564 C.2       1 <0>        -0.2090
      5 C5          2.4395    4.7328    1.4394 C.2       1 <0>         0.1289
      6 S1          3.3891    4.6898    2.8707 S.3       1 <0>         0.0909
      7 N1          2.5084    3.9288    0.3158 N.pl3     1 <0>        -0.6777
      8 C6          1.3322    3.2144   -0.0160 C.ar      1 <0>         0.1017
      9 C7          1.3818    1.8365   -0.0931 C.ar      1 <0>        -0.1111
     10 C8          0.2296    1.1109   -0.3542 C.ar      1 <0>        -0.1312
     11 C9         -0.9694    1.7704   -0.5428 C.ar      1 <0>        -0.1060
     12 C10        -1.0287    3.1477   -0.4744 C.ar      1 <0>        -0.1167
     13 C11         0.1275    3.8975   -0.2233 C.ar      1 <0>         0.1681
     14 N2          0.0194    5.2532   -0.2098 N.2       1 <0>        -0.6216
     15 C12         0.5397    6.1123    0.6013 C.2       1 <0>         0.5340
     16 N3          0.1661    7.4315    0.4793 N.pl3     1 <0>        -0.5933
     17 C13        -0.9003    7.8310   -0.4516 C.3       1 <0>         0.1226
     18 C14        -0.3858    8.9721   -1.3278 C.3       1 <0>         0.0334
     19 N4          0.1296   10.0500   -0.4732 N.3       1 <0>        -0.6705
     20 C15         1.2772    9.5959    0.3235 C.3       1 <0>         0.0314
     21 C16         0.8267    8.4796    1.2719 C.3       1 <0>         0.1111
     22 H1          2.2045    7.3011    5.4374 H         1 <0>         0.0832
     23 H2          3.9319    6.8713    5.1964 H         1 <0>         0.0780
     24 H3          2.7962    5.6683    5.8962 H         1 <0>         0.0776
     25 H4          0.9422    7.2004    3.2271 H         1 <0>         0.1418
     26 H5          3.4417    3.8721   -0.2636 H         1 <0>         0.4407
     27 H6          2.3208    1.3226    0.0501 H         1 <0>         0.1233
     28 H7          0.2702    0.0334   -0.4145 H         1 <0>         0.1260
     29 H8         -1.8675    1.2043   -0.7411 H         1 <0>         0.1256
     30 H9         -1.9729    3.6514   -0.6202 H         1 <0>         0.1265
     31 H10        -1.1776    6.9729   -1.0815 H         1 <0>         0.1044
     32 H11        -1.7789    8.1660    0.1193 H         1 <0>         0.0695
     33 H12         0.4208    8.6008   -1.9770 H         1 <0>         0.0349
     34 H13        -1.2082    9.3572   -1.9486 H         1 <0>         0.0894
     35 H14         2.0613    9.2147   -0.3472 H         1 <0>         0.0352
     36 H15         1.6735   10.4385    0.9091 H         1 <0>         0.0904
     37 H16         0.1191    8.8797    2.0130 H         1 <0>         0.0755
     38 H17         1.6982    8.0530    1.7901 H         1 <0>         0.0999
     39 H18         0.4513   10.8938   -1.1013 H         1 <0>         0.3455
@<TRIPOS>BOND
     1    1    2 1
     2    1   22 1
     3    1   23 1
     4    1   24 1
     5    2    6 1
     6    2    3 2
     7    3    4 1
     8    3   25 1
     9    4   15 1
    10    4    5 2
    11    5    6 1
    12    5    7 1
    13    7    8 1
    14    7   26 1
    15    8   13 ar
    16    8    9 ar
    17    9   10 ar
    18    9   27 1
    19   10   11 ar
    20   10   28 1
    21   11   12 ar
    22   11   29 1
    23   12   13 ar
    24   12   30 1
    25   13   14 1
    26   14   15 2
    27   15   16 1
    28   16   21 1
    29   16   17 1
    30   17   18 1
    31   17   31 1
    32   17   32 1
    33   18   19 1
    34   18   33 1
    35   18   34 1
    36   19   20 1
    37   19   39 1
    38   20   21 1
    39   20   35 1
    40   20   36 1
    41   21   37 1
    42   21   38 1
@<TRIPOS>MOLECULE
ZINC05117657
   29    31     0     0     0
SMALL
USER_CHARGES
8-piperazin-1-ylimidazo[1,2-a]pyrazine
@<TRIPOS>ATOM
      1 C1         -0.0126    1.0758    0.0080 C.2       1 <0>         0.0362
      2 C2         -1.1228    1.8517    0.0168 C.2       1 <0>        -0.0561
      3 N1         -0.7065    3.1468    0.0257 N.pl3     1 <0>        -0.3436
      4 C3         -1.3609    4.3513    0.0380 C.2       1 <0>         0.0026
      5 C4         -0.6556    5.4994    0.0371 C.2       1 <0>         0.0618
      6 N2          0.6815    5.4944    0.0243 N.2       1 <0>        -0.5008
      7 C5          1.3611    4.3655    0.0121 C.2       1 <0>         0.3834
      8 C6          0.6649    3.1304    0.0125 C.2       1 <0>         0.1525
      9 N3          1.0593    1.8691    0.0020 N.2       1 <0>        -0.4591
     10 N4          2.7467    4.3854   -0.0015 N.pl3     1 <0>        -0.4617
     11 C7          3.2729    3.6358   -1.1507 C.3       1 <0>         0.0240
     12 C8          4.8019    3.6144   -1.0856 C.3       1 <0>         0.0048
     13 C9          4.7827    5.7434    0.0659 C.3       1 <0>        -0.0006
     14 C10         3.2537    5.7647    0.0008 C.3       1 <0>         0.0348
     15 H1          0.0021   -0.0041    0.0020 H         1 <0>         0.1945
     16 H2         -2.1463    1.5069    0.0187 H         1 <0>         0.1965
     17 H3         -2.4405    4.3800    0.0481 H         1 <0>         0.1809
     18 H4         -1.1810    6.4429    0.0472 H         1 <0>         0.1881
     19 H5          2.8935    2.6144   -1.1232 H         1 <0>         0.1475
     20 H6          2.9550    4.1174   -2.0754 H         1 <0>         0.0713
     21 H7          5.1954    3.0837   -1.9526 H         1 <0>         0.1454
     22 H8          5.1200    3.1086   -0.1740 H         1 <0>         0.1445
     23 H9          5.1621    6.7648    0.0384 H         1 <0>         0.1447
     24 H10         5.1006    5.2621    0.9907 H         1 <0>         0.1411
     25 H11         2.9356    6.2706   -0.9109 H         1 <0>         0.0805
     26 H12         2.8602    6.2954    0.8677 H         1 <0>         0.1347
     27 N5          5.3150    4.9975   -1.0902 N.4       1 <0>        -0.5204
     28 H13         5.0244    5.4640   -1.9575 H         1 <0>         0.4316
     29 H14         6.3403    4.9789   -1.0386 H         1 <0>         0.4408
@<TRIPOS>BOND
     1    1    9 1
     2    1    2 2
     3    1   15 1
     4    2    3 1
     5    2   16 1
     6    3    8 1
     7    3    4 1
     8    4    5 2
     9    4   17 1
    10    5    6 1
    11    5   18 1
    12    6    7 2
    13    7    8 1
    14    7   10 1
    15    8    9 2
    16   10   14 1
    17   10   11 1
    18   11   12 1
    19   11   19 1
    20   11   20 1
    21   12   21 1
    22   12   22 1
    23   12   27 1
    24   13   14 1
    25   13   23 1
    26   13   24 1
    27   13   27 1
    28   14   25 1
    29   14   26 1
    30   27   28 1
    31   27   29 1
@<TRIPOS>MOLECULE
ZINC05117657
   30    32     0     0     0
SMALL
USER_CHARGES
8-piperazin-1-ylimidazo[1,2-a]pyrazine
@<TRIPOS>ATOM
      1 C1         -0.0126    1.0758    0.0080 C.2       1 <0>         0.0897
      2 C2         -1.1228    1.8517    0.0168 C.2       1 <0>         0.0019
      3 N1         -0.7065    3.1468    0.0257 N.pl3     1 <0>        -0.2882
      4 C3         -1.3609    4.3513    0.0380 C.2       1 <0>         0.0288
      5 C4         -0.6556    5.4994    0.0371 C.2       1 <0>         0.1118
      6 N2          0.6815    5.4944    0.0243 N.2       1 <0>        -0.4399
      7 C5          1.3611    4.3655    0.0121 C.2       1 <0>         0.3599
      8 C6          0.6649    3.1304    0.0125 C.cat     1 <0>         0.2194
      9 N3          2.7467    4.3854   -0.0015 N.pl3     1 <0>        -0.4741
     10 C7          3.2729    3.6358   -1.1507 C.3       1 <0>         0.0180
     11 C8          4.8019    3.6144   -1.0856 C.3       1 <0>         0.0023
     12 C9          4.7827    5.7434    0.0659 C.3       1 <0>        -0.0029
     13 C10         3.2537    5.7647    0.0008 C.3       1 <0>         0.0346
     14 H1          0.0021   -0.0041    0.0020 H         1 <0>         0.2440
     15 H2         -2.1463    1.5069    0.0187 H         1 <0>         0.2411
     16 H3         -2.4405    4.3800    0.0481 H         1 <0>         0.2200
     17 H4         -1.1810    6.4429    0.0472 H         1 <0>         0.2203
     18 H5          2.8935    2.6144   -1.1232 H         1 <0>         0.1109
     19 H6          2.9550    4.1174   -2.0754 H         1 <0>         0.0949
     20 H7          5.1954    3.0837   -1.9526 H         1 <0>         0.1557
     21 H8          5.1200    3.1086   -0.1740 H         1 <0>         0.1486
     22 H9          5.1621    6.7648    0.0384 H         1 <0>         0.1564
     23 H10         5.1006    5.2621    0.9907 H         1 <0>         0.1466
     24 H11         2.9356    6.2706   -0.9109 H         1 <0>         0.0943
     25 H12         2.8602    6.2954    0.8677 H         1 <0>         0.1454
     26 N4          5.3150    4.9975   -1.0902 N.4       1 <0>        -0.5213
     27 H13         5.0244    5.4640   -1.9575 H         1 <0>         0.4369
     28 H14         6.3403    4.9789   -1.0386 H         1 <0>         0.4514
     29 N5          1.0573    1.8697    0.0020 N.pl3     1 <0>        -0.4842
     30 H15         2.0334    1.5514   -0.0090 H         1 <0>         0.4776
@<TRIPOS>BOND
     1    1    2 2
     2    1   14 1
     3    1   29 1
     4    2    3 1
     5    2   15 1
     6    3    8 1
     7    3    4 1
     8    4    5 2
     9    4   16 1
    10    5    6 1
    11    5   17 1
    12    6    7 2
    13    7    8 1
    14    7    9 1
    15    8   29 2
    16    9   13 1
    17    9   10 1
    18   10   11 1
    19   10   18 1
    20   10   19 1
    21   11   20 1
    22   11   21 1
    23   11   26 1
    24   12   13 1
    25   12   22 1
    26   12   23 1
    27   12   26 1
    28   13   24 1
    29   13   25 1
    30   26   27 1
    31   26   28 1
    32   29   30 1
@<TRIPOS>MOLECULE
ZINC00113355
   26    26     0     0     0
SMALL
USER_CHARGES

@<TRIPOS>ATOM
      1 C1         -0.0178    1.4648    0.0101 C.3       1 <0>        -0.0479
      2 N1          0.0021   -0.0041    0.0020 N.4       1 <0>        -0.5056
      3 C2         -1.3761   -0.5125    0.0124 C.3       1 <0>        -0.0441
      4 C3         -1.3553   -2.0424    0.0040 C.3       1 <0>         0.1349
      5 H1         -0.8281   -2.4035    0.8871 H         1 <0>         0.1326
      6 C4         -2.7691   -2.5640    0.0147 C.ar      1 <0>        -0.1267
      7 C5         -3.4628   -2.7041   -1.1733 C.ar      1 <0>        -0.1176
      8 C6         -4.7599   -3.1823   -1.1669 C.ar      1 <0>        -0.0922
      9 C7         -5.3666   -3.5211    0.0273 C.ar      1 <0>        -0.1270
     10 C8         -4.6729   -3.3815    1.2204 C.ar      1 <0>         0.1181
     11 C9         -3.3690   -2.9071    1.2106 C.ar      1 <0>        -0.1312
     12 O1         -5.2674   -3.7142    2.3963 O.3       1 <0>        -0.4966
     13 O2         -0.6865   -2.5032   -1.1717 O.3       1 <0>        -0.5474
     14 H2          1.0047    1.8421    0.0024 H         1 <0>         0.1288
     15 H3         -0.5450    1.8259   -0.8730 H         1 <0>         0.1235
     16 H4         -0.5280    1.8163    0.9069 H         1 <0>         0.1242
     17 H5          0.4744   -0.3295   -0.8281 H         1 <0>         0.4339
     18 H6         -1.8863   -0.1610    0.9092 H         1 <0>         0.1449
     19 H7         -1.9033   -0.1515   -0.8706 H         1 <0>         0.1373
     20 H8         -2.9906   -2.4391   -2.1078 H         1 <0>         0.1260
     21 H9         -5.2996   -3.2908   -2.0961 H         1 <0>         0.1375
     22 H10        -6.3801   -3.8940    0.0319 H         1 <0>         0.1388
     23 H11        -2.8252   -2.8020    2.1378 H         1 <0>         0.1339
     24 H12        -5.1357   -4.6361    2.6566 H         1 <0>         0.4010
     25 H13        -1.1017   -2.2189   -1.9974 H         1 <0>         0.3891
     26 H14         0.4901   -0.3383    0.8195 H         1 <0>         0.4317
@<TRIPOS>BOND
     1    1    2 1
     2    1   14 1
     3    1   15 1
     4    1   16 1
     5    2    3 1
     6    2   17 1
     7    2   26 1
     8    3    4 1
     9    3   18 1
    10    3   19 1
    11    4    5 1
    12    4    6 1
    13    4   13 1
    14    6   11 ar
    15    6    7 ar
    16    7    8 ar
    17    7   20 1
    18    8    9 ar
    19    8   21 1
    20    9   10 ar
    21    9   22 1
    22   10   11 ar
    23   10   12 1
    24   11   23 1
    25   12   24 1
    26   13   25 1
@<TRIPOS>MOLECULE
ZINC00900633
   28    29     0     0     0
SMALL
USER_CHARGES

@<TRIPOS>ATOM
      1 C1         -0.0178    1.4648    0.0101 C.3       1 <0>        -0.0533
      2 N1          0.0021   -0.0041    0.0020 N.4       1 <0>        -0.3770
      3 C2         -1.3642   -0.4768   -0.1315 C.3       1 <0>        -0.0102
      4 C3         -1.3996   -1.9756   -0.4464 C.3       1 <0>        -0.0967
      5 C4         -1.3325   -2.7357    0.8628 C.ar      1 <0>        -0.0945
      6 C5         -2.4369   -3.4380    1.3085 C.ar      1 <0>        -0.0982
      7 C6         -2.3700   -4.1297    2.5046 C.ar      1 <0>        -0.0924
      8 C7         -1.2049   -4.1171    3.2484 C.ar      1 <0>        -0.0971
      9 C8         -0.1015   -3.4128    2.7976 C.ar      1 <0>        -0.0260
     10 C9         -0.1744   -2.7235    1.6000 C.ar      1 <0>        -0.0978
     11 C10         1.0295   -1.9515    1.0994 C.3       1 <0>        -0.1068
     12 C11         0.7090   -0.4560    1.1870 C.3       1 <0>        -0.0076
     13 Cl1         1.3637   -3.3946    3.7285 Cl        1 <0>        -0.0468
     14 H1          1.0047    1.8421    0.0024 H         1 <0>         0.1262
     15 H2         -0.5450    1.8259   -0.8730 H         1 <0>         0.1262
     16 H3         -0.5280    1.8163    0.9069 H         1 <0>         0.1225
     17 H4         -1.8986   -0.2944    0.8009 H         1 <0>         0.1294
     18 H5         -1.8548    0.0697   -0.9369 H         1 <0>         0.1394
     19 H6         -2.3256   -2.2204   -0.9667 H         1 <0>         0.1218
     20 H7         -0.5457   -2.2408   -1.0698 H         1 <0>         0.0984
     21 H8         -3.3464   -3.4467    0.7261 H         1 <0>         0.1391
     22 H9         -3.2294   -4.6801    2.8580 H         1 <0>         0.1429
     23 H10        -1.1553   -4.6570    4.1825 H         1 <0>         0.1434
     24 H11         1.8962   -2.1788    1.7200 H         1 <0>         0.1238
     25 H12         1.2362   -2.2233    0.0642 H         1 <0>         0.1014
     26 H13         1.6389    0.1042    1.2843 H         1 <0>         0.1401
     27 H14         0.0890   -0.2737    2.0648 H         1 <0>         0.1295
     28 H15         0.5195   -0.3070   -0.8095 H         1 <0>         0.4204
@<TRIPOS>BOND
     1    1    2 1
     2    1   14 1
     3    1   15 1
     4    1   16 1
     5    2   12 1
     6    2    3 1
     7    2   28 1
     8    3    4 1
     9    3   17 1
    10    3   18 1
    11    4    5 1
    12    4   19 1
    13    4   20 1
    14    5   10 ar
    15    5    6 ar
    16    6    7 ar
    17    6   21 1
    18    7    8 ar
    19    7   22 1
    20    8    9 ar
    21    8   23 1
    22    9   10 ar
    23    9   13 1
    24   10   11 1
    25   11   12 1
    26   11   24 1
    27   11   25 1
    28   12   26 1
    29   12   27 1
@<TRIPOS>MOLECULE
ZINC02022527
   54    55     0     0     0
SMALL
USER_CHARGES

@<TRIPOS>ATOM
      1 C1         -3.0730    2.2881   -4.2693 C.3       1 <0>        -0.1569
      2 C2         -2.3049    1.5870   -3.1471 C.3       1 <0>        -0.1270
      3 C3         -2.8110    2.0874   -1.7927 C.3       1 <0>        -0.1231
      4 C4         -2.0429    1.3862   -0.6705 C.3       1 <0>        -0.1174
      5 C5         -2.5490    1.8867    0.6839 C.3       1 <0>        -0.1006
      6 C6         -2.2117    3.3722    0.8391 C.3       1 <0>        -0.1451
      7 C7         -2.6658    3.8518    2.2196 C.3       1 <0>        -0.0114
      8 C8         -2.3347    1.6429    3.1595 C.3       1 <0>        -0.0001
      9 C9         -1.8707    1.0973    1.8070 C.3       1 <0>        -0.1442
     10 C10        -2.2939    3.5901    4.5974 C.3       1 <0>        -0.0052
     11 C11        -2.1583    5.1140    4.5919 C.3       1 <0>        -0.1459
     12 C12        -2.4764    5.6593    5.9856 C.3       1 <0>        -0.1543
     13 C13        -2.3428    7.1604    5.9803 C.2       1 <0>         0.3987
     14 O1         -2.0245    7.7371    4.9623 O.2       1 <0>        -0.4456
     15 C14        -2.5986    7.9263    7.2106 C.ar      1 <0>        -0.1885
     16 C15        -3.0878    7.2813    8.3513 C.ar      1 <0>        -0.0705
     17 C16        -3.3195    8.0047    9.5018 C.ar      1 <0>        -0.1389
     18 C17        -3.0801    9.3679    9.5265 C.ar      1 <0>        -0.0729
     19 C18        -2.6016   10.0143    8.4004 C.ar      1 <0>        -0.1345
     20 C19        -2.3594    9.3036    7.2436 C.ar      1 <0>        -0.0178
     21 C20        -1.8387   10.0095    6.0182 C.3       1 <0>        -0.1264
     22 H1         -4.1363    2.0676   -4.1746 H         1 <0>         0.0549
     23 H2         -2.9175    3.3647   -4.1985 H         1 <0>         0.0540
     24 H3         -2.7125    1.9316   -5.2342 H         1 <0>         0.0581
     25 H4         -1.2417    1.8075   -3.2417 H         1 <0>         0.0621
     26 H5         -2.4605    0.5104   -3.2179 H         1 <0>         0.0631
     27 H6         -3.8743    1.8669   -1.6981 H         1 <0>         0.0644
     28 H7         -2.6555    3.1639   -1.7219 H         1 <0>         0.0632
     29 H8         -2.1984    0.3097   -0.7413 H         1 <0>         0.0733
     30 H9         -0.9796    1.6067   -0.7651 H         1 <0>         0.0688
     31 H10        -3.6287    1.7492    0.7427 H         1 <0>         0.0884
     32 H11        -1.1354    3.5132    0.7407 H         1 <0>         0.0881
     33 H12        -2.7264    3.9447    0.0675 H         1 <0>         0.1133
     34 H13        -3.7442    3.7233    2.3122 H         1 <0>         0.1295
     35 H14        -2.4142    4.9057    2.3388 H         1 <0>         0.1342
     36 H15        -3.4146    1.5248    3.2476 H         1 <0>         0.1293
     37 H16        -1.8426    1.0924    3.9613 H         1 <0>         0.1282
     38 H17        -2.1418    0.0446    1.7270 H         1 <0>         0.1118
     39 H18        -0.7890    1.2025    1.7239 H         1 <0>         0.0880
     40 H19        -3.3133    3.3170    4.8704 H         1 <0>         0.1315
     41 H20        -1.5979    3.1659    5.3211 H         1 <0>         0.1302
     42 H21        -1.1389    5.3871    4.3190 H         1 <0>         0.0944
     43 H22        -2.8542    5.5382    3.8682 H         1 <0>         0.0968
     44 H23        -3.4115    5.4088    6.2361 H         1 <0>         0.0981
     45 H24        -1.7805    5.2352    6.7093 H         1 <0>         0.1100
     46 H25        -3.2793    6.2186    8.3321 H         1 <0>         0.1290
     47 H26        -3.6933    7.5074   10.3846 H         1 <0>         0.1322
     48 H27        -3.2682    9.9300   10.4293 H         1 <0>         0.1326
     49 H28        -2.4176   11.0782    8.4274 H         1 <0>         0.1332
     50 H29        -2.6709   10.2515    5.3572 H         1 <0>         0.0784
     51 H30        -1.3321   10.9277    6.3156 H         1 <0>         0.0652
     52 H31        -1.1365    9.3600    5.4956 H         1 <0>         0.0893
     53 N1         -1.9588    3.0696    3.2558 N.4       1 <0>        -0.3931
     54 H32        -0.9467    3.1581    3.1071 H         1 <0>         0.4272
@<TRIPOS>BOND
     1    1    2 1
     2    1   22 1
     3    1   23 1
     4    1   24 1
     5    2    3 1
     6    2   25 1
     7    2   26 1
     8    3    4 1
     9    3   27 1
    10    3   28 1
    11    4    5 1
    12    4   29 1
    13    4   30 1
    14    5    9 1
    15    5    6 1
    16    5   31 1
    17    6    7 1
    18    6   32 1
    19    6   33 1
    20    7   34 1
    21    7   35 1
    22    7   53 1
    23    8    9 1
    24    8   36 1
    25    8   37 1
    26    8   53 1
    27    9   38 1
    28    9   39 1
    29   10   11 1
    30   10   40 1
    31   10   41 1
    32   10   53 1
    33   11   12 1
    34   11   42 1
    35   11   43 1
    36   12   13 1
    37   12   44 1
    38   12   45 1
    39   13   14 2
    40   13   15 1
    41   15   20 ar
    42   15   16 ar
    43   16   17 ar
    44   16   46 1
    45   17   18 ar
    46   17   47 1
    47   18   19 ar
    48   18   48 1
    49   19   20 ar
    50   19   49 1
    51   20   21 1
    52   21   50 1
    53   21   51 1
    54   21   52 1
    55   53   54 1
@<TRIPOS>MOLECULE
ZINC03612873
   32    34     0     0     0
SMALL
USER_CHARGES
4-(2-ethyl-5-fluoro-indan-2-yl)-1H-imidazole
@<TRIPOS>ATOM
      1 C1          3.0301    3.2972    1.6570 C.3       1 <0>        -0.1615
      2 C2          2.1353    4.5031    1.3637 C.3       1 <0>        -0.1049
      3 C3          1.4462    4.3100    0.0114 C.3       1 <0>         0.0272
      4 C4          0.5868    5.5408   -0.3472 C.3       1 <0>        -0.0716
      5 C5          0.7056    5.6830   -1.8496 C.ar      1 <0>        -0.0916
      6 C6         -0.0757    6.3905   -2.7483 C.ar      1 <0>        -0.0783
      7 C7          0.2267    6.3750   -4.0953 C.ar      1 <0>        -0.1528
      8 C8          1.3152    5.6500   -4.5504 C.ar      1 <0>         0.0932
      9 C9          2.0962    4.9435   -3.6536 C.ar      1 <0>        -0.1430
     10 C10         1.7925    4.9589   -2.3027 C.ar      1 <0>        -0.0695
     11 C11         2.4782    4.2809   -1.1359 C.3       1 <0>        -0.0698
     12 F1          1.6140    5.6331   -5.8678 F         1 <0>        -0.1407
     13 C12         0.6111    3.0555    0.0126 C.2       1 <0>         0.0238
     14 C13         1.0795    1.7930    0.0014 C.2       1 <0>        -0.0533
     15 N1         -0.0111    0.9658    0.0074 N.pl3     1 <0>        -0.5732
     16 H1          0.0025   -0.0341    0.0056 H         1 <0>         0.4264
     17 C14        -1.1088    1.7523    0.0162 C.2       1 <0>         0.1846
     18 N2         -0.7290    3.0008    0.0252 N.2       1 <0>        -0.4846
     19 H2          3.7838    3.2052    0.8750 H         1 <0>         0.0560
     20 H3          3.5210    3.4348    2.6204 H         1 <0>         0.0555
     21 H4          2.4228    2.3924    1.6846 H         1 <0>         0.0608
     22 H5          2.7425    5.4079    1.3361 H         1 <0>         0.0717
     23 H6          1.3816    4.5951    2.1457 H         1 <0>         0.0685
     24 H7         -0.4523    5.3720   -0.0643 H         1 <0>         0.0963
     25 H8          0.9748    6.4305    0.1488 H         1 <0>         0.0831
     26 H9         -0.9250    6.9558   -2.3940 H         1 <0>         0.1308
     27 H10        -0.3852    6.9273   -4.7932 H         1 <0>         0.1358
     28 H11         2.9452    4.3779   -4.0081 H         1 <0>         0.1307
     29 H12         3.3749    4.8318   -0.8521 H         1 <0>         0.0909
     30 H13         2.7307    3.2518   -1.3916 H         1 <0>         0.0783
     31 H14         2.1164    1.4911   -0.0096 H         1 <0>         0.1749
     32 H15        -2.1316    1.4055    0.0181 H         1 <0>         0.2063
@<TRIPOS>BOND
     1    1    2 1
     2    1   19 1
     3    1   20 1
     4    1   21 1
     5    2    3 1
     6    2   22 1
     7    2   23 1
     8    3   11 1
     9    3    4 1
    10    3   13 1
    11    4    5 1
    12    4   24 1
    13    4   25 1
    14    5   10 ar
    15    5    6 ar
    16    6    7 ar
    17    6   26 1
    18    7    8 ar
    19    7   27 1
    20    8    9 ar
    21    8   12 1
    22    9   10 ar
    23    9   28 1
    24   10   11 1
    25   11   29 1
    26   11   30 1
    27   13   18 1
    28   13   14 2
    29   14   15 1
    30   14   31 1
    31   15   16 1
    32   15   17 1
    33   17   18 2
    34   17   32 1
@<TRIPOS>MOLECULE
ZINC05424460
   33    35     0     0     0
SMALL
USER_CHARGES

@<TRIPOS>ATOM
      1 C1          0.6858   -0.5068    1.2401 C.3       1 <0>        -0.1599
      2 C2         -0.0094    0.0252   -0.0147 C.3       1 <0>        -0.1162
      3 C3          0.7857   -0.3913   -1.2537 C.3       1 <0>         0.0004
      4 C4          0.0527    0.0325   -2.5441 C.3       1 <0>        -0.0691
      5 C5          0.3340   -1.0719   -3.5405 C.ar      1 <0>        -0.1168
      6 C6          0.2097   -1.0885   -4.9200 C.ar      1 <0>        -0.0711
      7 C7          0.5291   -2.2265   -5.6335 C.ar      1 <0>        -0.1453
      8 C8          0.9761   -3.3558   -4.9682 C.ar      1 <0>         0.1112
      9 C9          1.1009   -3.3400   -3.5907 C.ar      1 <0>        -0.1392
     10 C10         0.7800   -2.1987   -2.8754 C.ar      1 <0>        -0.0800
     11 C11         0.8289   -1.9284   -1.3868 C.3       1 <0>        -0.0691
     12 F1          1.2891   -4.4712   -5.6633 F         1 <0>        -0.1305
     13 C12         2.1788    0.1819   -1.2111 C.2       1 <0>         0.0542
     14 C13         3.3245   -0.5113   -1.3536 C.2       1 <0>         0.0335
     15 N1          4.3487    0.3909   -1.2498 N.pl3     1 <0>        -0.5069
     16 H1          5.2968    0.1948   -1.3104 H         1 <0>         0.4682
     17 C14         3.7928    1.6048   -1.0473 C.cat     1 <0>         0.3065
     18 N2          2.4946    1.4729   -1.0303 N.pl3     1 <0>        -0.4733
     19 H2          0.6737   -1.5967    1.2277 H         1 <0>         0.0680
     20 H3          1.7172   -0.1551    1.2608 H         1 <0>         0.0458
     21 H4          0.1616   -0.1477    2.1258 H         1 <0>         0.0698
     22 H5         -1.0169   -0.3867   -0.0742 H         1 <0>         0.0952
     23 H6         -0.0638    1.1127    0.0335 H         1 <0>         0.0694
     24 H7         -1.0189    0.1130   -2.3613 H         1 <0>         0.1065
     25 H8          0.4472    0.9807   -2.9092 H         1 <0>         0.0775
     26 H9         -0.1388   -0.2081   -5.4393 H         1 <0>         0.1344
     27 H10         0.4303   -2.2360   -6.7089 H         1 <0>         0.1435
     28 H11         1.4491   -4.2206   -3.0715 H         1 <0>         0.1390
     29 H12         1.7533   -2.3191   -0.9616 H         1 <0>         0.0871
     30 H13        -0.0340   -2.3752   -0.8928 H         1 <0>         0.1109
     31 H14         3.4174   -1.5747   -1.5178 H         1 <0>         0.2242
     32 H15         4.3330    2.5319   -0.9240 H         1 <0>         0.2677
     33 H16         1.8585    2.1944   -0.9048 H         1 <0>         0.4641
@<TRIPOS>BOND
     1    1    2 1
     2    1   19 1
     3    1   20 1
     4    1   21 1
     5    2    3 1
     6    2   22 1
     7    2   23 1
     8    3   11 1
     9    3    4 1
    10    3   13 1
    11    4    5 1
    12    4   24 1
    13    4   25 1
    14    5   10 ar
    15    5    6 ar
    16    6    7 ar
    17    6   26 1
    18    7    8 ar
    19    7   27 1
    20    8    9 ar
    21    8   12 1
    22    9   10 ar
    23    9   28 1
    24   10   11 1
    25   11   29 1
    26   11   30 1
    27   13   18 1
    28   13   14 2
    29   14   15 1
    30   14   31 1
    31   15   16 1
    32   15   17 1
    33   17   18 2
    34   17   32 1
    35   18   33 1
@<TRIPOS>MOLECULE
ZINC05424460
   32    34     0     0     0
SMALL
USER_CHARGES
4-[(2S)-2-ethyl-5-fluoro-indan-2-yl]-1H-imidazole
@<TRIPOS>ATOM
      1 C1         -5.3925    0.8252    0.0660 C.3       1 <0>        -0.1527
      2 C2         -4.8564    2.2359    0.3176 C.3       1 <0>        -0.1075
      3 C3         -3.5213    2.4112   -0.4089 C.3       1 <0>         0.0211
      4 C4         -2.4869    1.3788    0.0875 C.3       1 <0>        -0.0665
      5 C5         -1.1582    2.1036    0.0580 C.ar      1 <0>        -0.0819
      6 C6          0.1348    1.6078    0.0886 C.ar      1 <0>        -0.0774
      7 C7          1.2117    2.4707    0.0464 C.ar      1 <0>        -0.1523
      8 C8          0.9992    3.8373   -0.0215 C.ar      1 <0>         0.0926
      9 C9         -0.2918    4.3336   -0.0469 C.ar      1 <0>        -0.1426
     10 C10        -1.3716    3.4679   -0.0046 C.ar      1 <0>        -0.0642
     11 C11        -2.8581    3.7532   -0.0191 C.3       1 <0>        -0.0720
     12 F1          2.0508    4.6845   -0.0633 F         1 <0>        -0.1413
     13 C12        -3.7081    2.3077   -1.9006 C.2       1 <0>         0.0144
     14 C13        -4.7102    2.8575   -2.6127 C.2       1 <0>        -0.0575
     15 N1         -4.4957    2.5223   -3.9224 N.pl3     1 <0>        -0.5688
     16 C14        -3.3742    1.7712   -3.9639 C.2       1 <0>         0.2036
     17 N2         -2.9087    1.6470   -2.7511 N.2       1 <0>        -0.4871
     18 H1         -6.3524    0.6992    0.5883 H         1 <0>         0.0546
     19 H2         -4.6703    0.0859    0.4426 H         1 <0>         0.0575
     20 H3         -5.5403    0.6763   -1.0138 H         1 <0>         0.0544
     21 H4         -5.5786    2.9752   -0.0590 H         1 <0>         0.0662
     22 H5         -4.7086    2.3848    1.3974 H         1 <0>         0.0728
     23 H6         -2.7497    1.0571    1.1061 H         1 <0>         0.0819
     24 H7         -2.4873    0.5074   -0.5838 H         1 <0>         0.0886
     25 H8          0.3012    0.5420    0.1411 H         1 <0>         0.1296
     26 H9          2.2185    2.0803    0.0659 H         1 <0>         0.1351
     27 H10        -0.4579    5.3994   -0.1002 H         1 <0>         0.1298
     28 H11        -3.1165    4.5200   -0.7643 H         1 <0>         0.0768
     29 H12        -3.2203    4.0673    0.9709 H         1 <0>         0.0901
     30 H13        -5.4179    3.3914   -2.1501 H         1 <0>         0.1643
     31 H14        -2.8978    1.3382   -4.7291 H         1 <0>         0.1894
     32 H15        -5.1915    2.8701   -4.7002 H         1 <0>         0.4489
@<TRIPOS>BOND
     1    1    2 1
     2    1   18 1
     3    1   19 1
     4    1   20 1
     5    2    3 1
     6    2   21 1
     7    2   22 1
     8    3   11 1
     9    3    4 1
    10    3   13 1
    11    4    5 1
    12    4   23 1
    13    4   24 1
    14    5   10 ar
    15    5    6 ar
    16    6    7 ar
    17    6   25 1
    18    7    8 ar
    19    7   26 1
    20    8    9 ar
    21    8   12 1
    22    9   10 ar
    23    9   27 1
    24   10   11 1
    25   11   28 1
    26   11   29 1
    27   13   17 1
    28   13   14 2
    29   14   15 1
    30   14   30 1
    31   15   16 1
    32   15   32 1
    33   16   17 2
    34   16   31 1
@<TRIPOS>MOLECULE
ZINC05424460
   32    34     0     0     0
SMALL
USER_CHARGES

@<TRIPOS>ATOM
      1 C1         -0.1055    1.4922    0.0202 C.3       1 <0>        -0.1531
      2 C2         -0.0177   -0.0352    0.0035 C.3       1 <0>        -0.1050
      3 C3          0.8475   -0.5091    1.1729 C.3       1 <0>         0.0191
      4 C4          2.2976   -0.0021    1.0233 C.3       1 <0>        -0.0729
      5 C5          3.1651   -1.1154    1.5705 C.ar      1 <0>        -0.1141
      6 C6          4.4885   -1.1030    1.9792 C.ar      1 <0>        -0.0775
      7 C7          5.0816   -2.2570    2.4512 C.ar      1 <0>        -0.1535
      8 C8          4.3511   -3.4315    2.5170 C.ar      1 <0>         0.1026
      9 C9          3.0293   -3.4448    2.1095 C.ar      1 <0>        -0.1412
     10 C10         2.4350   -2.2874    1.6357 C.ar      1 <0>        -0.0603
     11 C11         1.0271   -2.0416    1.1368 C.3       1 <0>        -0.0722
     12 F1          4.9285   -4.5626    2.9780 F         1 <0>        -0.1370
     13 C12         0.2550   -0.0700    2.4871 C.2       1 <0>         0.0000
     14 C13        -0.9313   -0.4492    2.9995 C.2       1 <0>        -0.0209
     15 N1         -1.0872    0.1635    4.1824 N.2       1 <0>        -0.4904
     16 C14        -0.0426    0.9080    4.4226 C.2       1 <0>         0.1828
     17 N2          0.8218    0.7863    3.3922 N.pl3     1 <0>        -0.5641
     18 H1          1.6827    1.2254    3.3082 H         1 <0>         0.4166
     19 H2          0.8994    1.9141    0.0050 H         1 <0>         0.0528
     20 H3         -0.6564    1.8341   -0.8561 H         1 <0>         0.0587
     21 H4         -0.6222    1.8166    0.9235 H         1 <0>         0.0554
     22 H5         -1.0181   -0.4577    0.0971 H         1 <0>         0.0746
     23 H6          0.4288   -0.3632   -0.9352 H         1 <0>         0.0743
     24 H7          2.5293    0.1766   -0.0267 H         1 <0>         0.0950
     25 H8          2.4414    0.9094    1.6035 H         1 <0>         0.0689
     26 H9          5.0587   -0.1872    1.9281 H         1 <0>         0.1308
     27 H10         6.1139   -2.2437    2.7684 H         1 <0>         0.1382
     28 H11         2.4593   -4.3607    2.1603 H         1 <0>         0.1352
     29 H12         0.3033   -2.5228    1.7946 H         1 <0>         0.0878
     30 H13         0.9172   -2.4114    0.1174 H         1 <0>         0.0958
     31 H14        -1.6339   -1.1277    2.5387 H         1 <0>         0.1666
     32 H15         0.1075    1.5172    5.3016 H         1 <0>         0.2068
@<TRIPOS>BOND
     1    1    2 1
     2    1   19 1
     3    1   20 1
     4    1   21 1
     5    2    3 1
     6    2   22 1
     7    2   23 1
     8    3   11 1
     9    3    4 1
    10    3   13 1
    11    4    5 1
    12    4   24 1
    13    4   25 1
    14    5   10 ar
    15    5    6 ar
    16    6    7 ar
    17    6   26 1
    18    7    8 ar
    19    7   27 1
    20    8    9 ar
    21    8   12 1
    22    9   10 ar
    23    9   28 1
    24   10   11 1
    25   11   29 1
    26   11   30 1
    27   13   17 1
    28   13   14 2
    29   14   15 1
    30   14   31 1
    31   15   16 2
    32   16   17 1
    33   16   32 1
    34   17   18 1
@<TRIPOS>MOLECULE
ZINC00538337
   58    62     0     0     0
SMALL
USER_CHARGES

@<TRIPOS>ATOM
      1 C1         -0.0168    1.3842    0.0097 C.ar      1 <0>        -0.0898
      2 C2          1.1703    2.0901    0.0021 C.ar      1 <0>        -0.1344
      3 C3          2.3788    1.4141   -0.0135 C.ar      1 <0>         0.1119
      4 C4          2.3997    0.0295   -0.0216 C.ar      1 <0>        -0.1322
      5 C5          1.2148   -0.6800   -0.0137 C.ar      1 <0>        -0.0888
      6 C6          0.0021   -0.0041    0.0020 C.ar      1 <0>         0.1035
      7 N1         -1.2015   -0.7222    0.0101 N.pl3     1 <0>        -0.4255
      8 C7         -2.2407   -0.5077    0.8765 C.2       1 <0>         0.0751
      9 C8         -3.2397   -1.3652    0.6140 C.2       1 <0>        -0.1721
     10 C9         -2.8068   -2.1974   -0.5117 C.ar      1 <0>        -0.0841
     11 C10        -1.5194   -1.7470   -0.8569 C.ar      1 <0>         0.1032
     12 C11        -0.8430   -2.3517   -1.9103 C.ar      1 <0>        -0.1070
     13 C12        -1.4366   -3.3808   -2.6081 C.ar      1 <0>        -0.0841
     14 C13        -2.7089   -3.8239   -2.2706 C.ar      1 <0>        -0.0491
     15 C14        -3.3935   -3.2441   -1.2250 C.ar      1 <0>        -0.0671
     16 Cl1        -3.4366   -5.1218   -3.1648 Cl        1 <0>        -0.0596
     17 C15        -4.5571   -1.4553    1.3402 C.3       1 <0>        -0.0164
     18 C16        -4.3063   -1.7573    2.8204 C.3       1 <0>        -0.1397
     19 C17        -5.6422   -1.7687    3.5665 C.3       1 <0>        -0.0052
     20 N2         -6.2909   -0.4585    3.4359 N.4       1 <0>        -0.3798
     21 C18        -6.5994   -0.1937    2.0255 C.3       1 <0>        -0.0131
     22 C19        -5.3003   -0.1217    1.2201 C.3       1 <0>        -0.1392
     23 C20        -7.5345   -0.4493    4.2177 C.3       1 <0>        -0.0330
     24 C21        -8.1476    0.9521    4.1845 C.3       1 <0>         0.1326
     25 N3         -9.3878    0.9612    4.9641 N.am      1 <0>        -0.6351
     26 C22       -10.7283    0.6664    4.4362 C.3       1 <0>         0.0898
     27 C23       -11.6494    0.8170    5.6625 C.3       1 <0>         0.0871
     28 N4        -10.7301    1.1807    6.7511 N.am      1 <0>        -0.7327
     29 C24        -9.4802    1.2337    6.2723 C.2       1 <0>         0.7000
     30 O1         -8.5172    1.5083    6.9620 O.2       1 <0>        -0.5776
     31 F1          3.5389    2.1063   -0.0213 F         1 <0>        -0.1276
     32 H1         -0.9590    1.9118    0.0260 H         1 <0>         0.1391
     33 H2          1.1561    3.1700    0.0080 H         1 <0>         0.1488
     34 H3          3.3432   -0.4959   -0.0345 H         1 <0>         0.1499
     35 H4          1.2315   -1.7598   -0.0203 H         1 <0>         0.1411
     36 H5         -2.2541    0.2401    1.6556 H         1 <0>         0.1691
     37 H6          0.1466   -2.0149   -2.1816 H         1 <0>         0.1333
     38 H7         -0.9074   -3.8472   -3.4259 H         1 <0>         0.1426
     39 H8         -4.3833   -3.5900   -0.9659 H         1 <0>         0.1336
     40 H9         -5.1611   -2.2499    0.9021 H         1 <0>         0.0971
     41 H10        -3.8271   -2.7315    2.9171 H         1 <0>         0.1158
     42 H11        -3.6594   -0.9891    3.2440 H         1 <0>         0.0884
     43 H12        -6.2882   -2.5373    3.1423 H         1 <0>         0.1304
     44 H13        -5.4673   -1.9836    4.6207 H         1 <0>         0.1320
     45 H14        -7.2250   -0.9960    1.6341 H         1 <0>         0.1319
     46 H15        -7.1311    0.7541    1.9420 H         1 <0>         0.1316
     47 H16        -4.6740    0.6804    1.6106 H         1 <0>         0.0885
     48 H17        -5.5315    0.0731    0.1729 H         1 <0>         0.1159
     49 H18        -8.2379   -1.1638    3.7899 H         1 <0>         0.1318
     50 H19        -7.3173   -0.7265    5.2492 H         1 <0>         0.1351
     51 H20        -7.4442    1.6665    4.6123 H         1 <0>         0.1060
     52 H21        -8.3648    1.2293    3.1530 H         1 <0>         0.1030
     53 H22       -11.0011    1.3839    3.6624 H         1 <0>         0.0916
     54 H23       -10.7713   -0.3513    4.0481 H         1 <0>         0.0867
     55 H24       -12.3795    1.6093    5.4975 H         1 <0>         0.0926
     56 H25       -12.1498   -0.1259    5.8832 H         1 <0>         0.0914
     57 H26       -10.9875    1.3510    7.6707 H         1 <0>         0.4382
     58 H27        -5.6719    0.2583    3.7840 H         1 <0>         0.4243
@<TRIPOS>BOND
     1    1    6 ar
     2    1    2 ar
     3    1   32 1
     4    2    3 ar
     5    2   33 1
     6    3    4 ar
     7    3   31 1
     8    4    5 ar
     9    4   34 1
    10    5    6 ar
    11    5   35 1
    12    6    7 1
    13    7   11 1
    14    7    8 1
    15    8    9 2
    16    8   36 1
    17    9   10 1
    18    9   17 1
    19   10   15 ar
    20   10   11 ar
    21   11   12 ar
    22   12   13 ar
    23   12   37 1
    24   13   14 ar
    25   13   38 1
    26   14   15 ar
    27   14   16 1
    28   15   39 1
    29   17   22 1
    30   17   18 1
    31   17   40 1
    32   18   19 1
    33   18   41 1
    34   18   42 1
    35   19   20 1
    36   19   43 1
    37   19   44 1
    38   20   21 1
    39   20   23 1
    40   20   58 1
    41   21   22 1
    42   21   45 1
    43   21   46 1
    44   22   47 1
    45   22   48 1
    46   23   24 1
    47   23   49 1
    48   23   50 1
    49   24   25 1
    50   24   51 1
    51   24   52 1
    52   25   29 am
    53   25   26 1
    54   26   27 1
    55   26   53 1
    56   26   54 1
    57   27   28 1
    58   27   55 1
    59   27   56 1
    60   28   29 am
    61   28   57 1
    62   29   30 2
@<TRIPOS>MOLECULE
ZINC00896484
   23    24     0     0     0
SMALL
USER_CHARGES

@<TRIPOS>ATOM
      1 C1         -0.0167    1.3793    0.0096 C.ar      1 <0>        -0.1251
      2 C2          1.1680    2.0938    0.0022 C.ar      1 <0>        -0.0904
      3 C3          2.3785    1.4297   -0.0129 C.ar      1 <0>        -0.0648
      4 C4          2.4050    0.0334   -0.0206 C.ar      1 <0>         0.1769
      5 C5          1.2052   -0.6814   -0.0130 C.ar      1 <0>        -0.0649
      6 C6          0.0021   -0.0041    0.0020 C.ar      1 <0>        -0.0904
      7 Cl1         1.2264   -2.4172   -0.0231 Cl        1 <0>        -0.0561
      8 N1          3.6030   -0.6324   -0.0361 N.2       1 <0>        -0.6265
      9 C7          4.1879   -0.9573    1.0933 C.2       1 <0>         0.6631
     10 N2          3.6659   -0.6737    2.3229 N.pl3     1 <0>        -0.7535
     11 C8          4.5775   -1.1780    3.3591 C.3       1 <0>         0.0928
     12 C9          5.7389   -1.8145    2.5745 C.3       1 <0>         0.1005
     13 N3          5.3800   -1.6198    1.1630 N.pl3     1 <0>        -0.7140
     14 Cl2         3.8638    2.3282   -0.0229 Cl        1 <0>        -0.0561
     15 H1         -0.9606    1.9039    0.0260 H         1 <0>         0.1385
     16 H2          1.1460    3.1736    0.0078 H         1 <0>         0.1363
     17 H3         -0.9265   -0.5555    0.0082 H         1 <0>         0.1363
     18 H4          4.9410   -0.3577    3.9780 H         1 <0>         0.0821
     19 H5          4.0780   -1.9269    3.9736 H         1 <0>         0.0822
     20 H6          6.6764   -1.3088    2.8056 H         1 <0>         0.0847
     21 H7          5.8134   -2.8781    2.8012 H         1 <0>         0.0844
     22 H8          5.9064   -1.9129    0.4028 H         1 <0>         0.4371
     23 H9          2.8280   -0.2130    2.4861 H         1 <0>         0.4271
@<TRIPOS>BOND
     1    1    6 ar
     2    1    2 ar
     3    1   15 1
     4    2    3 ar
     5    2   16 1
     6    3    4 ar
     7    3   14 1
     8    4    5 ar
     9    4    8 1
    10    5    6 ar
    11    5    7 1
    12    6   17 1
    13    8    9 2
    14    9   13 1
    15    9   10 1
    16   10   11 1
    17   10   23 1
    18   11   12 1
    19   11   18 1
    20   11   19 1
    21   12   13 1
    22   12   20 1
    23   12   21 1
    24   13   22 1
@<TRIPOS>MOLECULE
ZINC53064442
   59    62     0     0     0
SMALL
USER_CHARGES

@<TRIPOS>ATOM
      1 C1         -0.0173    1.4248    0.0099 C.3       1 <0>         0.0252
      2 O1          0.0021   -0.0041    0.0020 O.3       1 <0>        -0.3038
      3 C2          0.6063   -0.6076   -1.0566 C.ar      1 <0>         0.1200
      4 C3          1.1727    0.1584   -2.0619 C.ar      1 <0>        -0.2067
      5 C4          1.7862   -0.4565   -3.1379 C.ar      1 <0>        -0.0837
      6 C5          1.8369   -1.8361   -3.2138 C.ar      1 <0>        -0.1522
      7 C6          1.2745   -2.6077   -2.2144 C.ar      1 <0>        -0.0880
      8 C7          0.6620   -1.9977   -1.1294 C.ar      1 <0>         0.1392
      9 N1          0.0968   -2.7768   -0.1132 N.pl3     1 <0>        -0.6682
     10 C8         -1.3056   -3.2137   -0.1884 C.3       1 <0>         0.1543
     11 C9         -1.3570   -4.7276    0.0431 C.3       1 <0>         0.0432
     12 N2         -0.6724   -5.0507    1.3020 N.3       1 <0>        -0.5286
     13 C10         0.7517   -4.6956    1.2405 C.3       1 <0>         0.0373
     14 C11         0.8913   -3.1855    1.0551 C.3       1 <0>         0.1540
     15 C12        -0.8472   -6.4678    1.6476 C.3       1 <0>         0.0496
     16 C13        -0.3417   -6.7116    3.0710 C.3       1 <0>         0.0947
     17 N3         -0.5160   -8.1248    3.4157 N.am      1 <0>        -0.5648
     18 C14        -1.6686   -8.5092    3.9834 C.2       1 <0>         0.5224
     19 O2         -2.5368   -7.6868    4.1818 O.2       1 <0>        -0.4928
     20 C15        -1.9055   -9.9436    4.3791 C.3       1 <0>        -0.1313
     21 C16        -1.0927  -10.8580    3.4640 C.3       1 <0>        -0.0666
     22 C17        -1.2370  -12.3190    3.9117 C.3       1 <0>        -0.1127
     23 C18        -1.8643  -13.0802    2.7242 C.3       1 <0>        -0.1253
     24 C19        -1.5011  -12.2210    1.4873 C.3       1 <0>        -0.1236
     25 C20        -1.6310  -10.7733    2.0249 C.3       1 <0>        -0.1241
     26 C21         0.3768  -10.4406    3.4955 C.3       1 <0>        -0.1304
     27 C22         0.4818   -8.9790    3.1448 C.2       1 <0>         0.5233
     28 O3          1.4894   -8.5664    2.6118 O.2       1 <0>        -0.4984
     29 H1          1.0053    1.8021    0.0021 H         1 <0>         0.0536
     30 H2         -0.5445    1.7859   -0.8732 H         1 <0>         0.0536
     31 H3         -0.5275    1.7763    0.9067 H         1 <0>         0.0992
     32 H4          1.1348    1.2363   -2.0057 H         1 <0>         0.1276
     33 H5          2.2267    0.1425   -3.9212 H         1 <0>         0.1244
     34 H6          2.3168   -2.3119   -4.0562 H         1 <0>         0.1237
     35 H7          1.3151   -3.6852   -2.2764 H         1 <0>         0.1250
     36 H8         -1.8890   -2.7058    0.5796 H         1 <0>         0.0594
     37 H9         -1.7097   -2.9800   -1.1734 H         1 <0>         0.0701
     38 H10        -2.3961   -5.0517    0.1006 H         1 <0>         0.0801
     39 H11        -0.8612   -5.2388   -0.7821 H         1 <0>         0.0352
     40 H12         1.2419   -4.9966    2.1663 H         1 <0>         0.0816
     41 H13         1.2181   -5.2073    0.3986 H         1 <0>         0.0367
     42 H14         1.9390   -2.9332    0.8918 H         1 <0>         0.0699
     43 H15         0.5231   -2.6749    1.9450 H         1 <0>         0.0584
     44 H16        -1.9037   -6.7288    1.5875 H         1 <0>         0.0781
     45 H17        -0.2804   -7.0845    0.9501 H         1 <0>         0.0366
     46 H18         0.7149   -6.4507    3.1310 H         1 <0>         0.0953
     47 H19        -0.9085   -6.0950    3.7685 H         1 <0>         0.1048
     48 H20        -1.5937  -10.0924    5.4129 H         1 <0>         0.1126
     49 H21        -2.9654  -10.1783    4.2802 H         1 <0>         0.1162
     50 H22        -0.2581  -12.7361    4.1480 H         1 <0>         0.0750
     51 H23        -1.8902  -12.3805    4.7822 H         1 <0>         0.0752
     52 H24        -1.4301  -14.0763    2.6375 H         1 <0>         0.0698
     53 H25        -2.9462  -13.1434    2.8404 H         1 <0>         0.0689
     54 H26        -0.4799  -12.4224    1.1636 H         1 <0>         0.0695
     55 H27        -2.2064  -12.3960    0.6750 H         1 <0>         0.0702
     56 H28        -2.6746  -10.4585    2.0255 H         1 <0>         0.0752
     57 H29        -1.0253  -10.0894    1.4303 H         1 <0>         0.0639
     58 H30         0.7821  -10.6095    4.4932 H         1 <0>         0.1130
     59 H31         0.9381  -11.0285    2.7693 H         1 <0>         0.1151
@<TRIPOS>BOND
     1    1    2 1
     2    1   29 1
     3    1   30 1
     4    1   31 1
     5    2    3 1
     6    3    8 ar
     7    3    4 ar
     8    4    5 ar
     9    4   32 1
    10    5    6 ar
    11    5   33 1
    12    6    7 ar
    13    6   34 1
    14    7    8 ar
    15    7   35 1
    16    8    9 1
    17    9   14 1
    18    9   10 1
    19   10   11 1
    20   10   36 1
    21   10   37 1
    22   11   12 1
    23   11   38 1
    24   11   39 1
    25   12   13 1
    26   12   15 1
    27   13   14 1
    28   13   40 1
    29   13   41 1
    30   14   42 1
    31   14   43 1
    32   15   16 1
    33   15   44 1
    34   15   45 1
    35   16   17 1
    36   16   46 1
    37   16   47 1
    38   17   27 am
    39   17   18 am
    40   18   19 2
    41   18   20 1
    42   20   21 1
    43   20   48 1
    44   20   49 1
    45   21   25 1
    46   21   22 1
    47   21   26 1
    48   22   23 1
    49   22   50 1
    50   22   51 1
    51   23   24 1
    52   23   52 1
    53   23   53 1
    54   24   25 1
    55   24   54 1
    56   24   55 1
    57   25   56 1
    58   25   57 1
    59   26   27 1
    60   26   58 1
    61   26   59 1
    62   27   28 2
@<TRIPOS>MOLECULE
ZINC00157545
   25    25     0     0     0
SMALL
USER_CHARGES

@<TRIPOS>ATOM
      1 C1         -0.0187    1.5258    0.0104 C.3       1 <0>        -0.1971
      2 C2          0.0021   -0.0041    0.0020 C.3       1 <0>        -0.0065
      3 H1         -1.0205   -0.3814    0.0098 H         1 <0>         0.1528
      4 C3          0.7182   -0.4975   -1.2568 C.3       1 <0>         0.1383
      5 H2          0.8116   -1.5829   -1.2198 H         1 <0>         0.1315
      6 C4         -0.0771   -0.1029   -2.4745 C.ar      1 <0>        -0.1435
      7 C5          0.0932    1.1491   -3.0353 C.ar      1 <0>        -0.1086
      8 C6         -0.6364    1.5111   -4.1523 C.ar      1 <0>        -0.1112
      9 C7         -1.5358    0.6210   -4.7087 C.ar      1 <0>        -0.0981
     10 C8         -1.7054   -0.6313   -4.1484 C.ar      1 <0>        -0.1114
     11 C9         -0.9728   -0.9949   -3.0340 C.ar      1 <0>        -0.1027
     12 O1          2.0188    0.0904   -1.3262 O.3       1 <0>        -0.5464
     13 N1          0.7126   -0.4907    1.1921 N.4       1 <0>        -0.6323
     14 H3          1.0039    1.9031    0.0027 H         1 <0>         0.0840
     15 H4         -0.5459    1.8868   -0.8726 H         1 <0>         0.1136
     16 H5         -0.5289    1.8773    0.9072 H         1 <0>         0.0916
     17 H6          0.7959    1.8445   -2.6006 H         1 <0>         0.1226
     18 H7         -0.5039    2.4895   -4.5901 H         1 <0>         0.1324
     19 H8         -2.1063    0.9040   -5.5810 H         1 <0>         0.1326
     20 H9         -2.4084   -1.3266   -4.5829 H         1 <0>         0.1327
     21 H10        -1.1025   -1.9746   -2.5984 H         1 <0>         0.1273
     22 H11         2.0123    1.0567   -1.3619 H         1 <0>         0.3873
     23 H12         0.2403   -0.1653    2.0223 H         1 <0>         0.4373
     24 H13         0.7262   -1.4996    1.1866 H         1 <0>         0.4370
     25 H14         1.6592   -0.1415    1.1850 H         1 <0>         0.4369
@<TRIPOS>BOND
     1    1    2 1
     2    1   14 1
     3    1   15 1
     4    1   16 1
     5    2    3 1
     6    2    4 1
     7    2   13 1
     8    4    5 1
     9    4    6 1
    10    4   12 1
    11    6   11 ar
    12    6    7 ar
    13    7    8 ar
    14    7   17 1
    15    8    9 ar
    16    8   18 1
    17    9   10 ar
    18    9   19 1
    19   10   11 ar
    20   10   20 1
    21   11   21 1
    22   12   22 1
    23   13   23 1
    24   13   24 1
    25   13   25 1
@<TRIPOS>MOLECULE
ZINC00057624
   24    24     0     0     0
SMALL
USER_CHARGES

@<TRIPOS>ATOM
      1 C1         -0.0167    1.3779    0.0096 C.ar      1 <0>        -0.0981
      2 C2          1.1696    2.0886    0.0021 C.ar      1 <0>        -0.1236
      3 C3          2.3802    1.4154   -0.0130 C.ar      1 <0>         0.1055
      4 C4          2.3990    0.0236   -0.0206 C.ar      1 <0>         0.0900
      5 C5          1.2071   -0.6822   -0.0130 C.ar      1 <0>        -0.1137
      6 C6          0.0021   -0.0041    0.0020 C.ar      1 <0>        -0.1399
      7 C7         -1.2936   -0.7736    0.0102 C.3       1 <0>         0.1354
      8 H1         -1.1263   -1.7622    0.4376 H         1 <0>         0.1339
      9 C8         -1.8100   -0.9182   -1.4228 C.3       1 <0>        -0.0430
     10 N1         -3.0730   -1.6683   -1.4148 N.4       1 <0>        -0.6330
     11 O1         -2.2593   -0.0721    0.7960 O.3       1 <0>        -0.5475
     12 O2          3.5850   -0.6417   -0.0359 O.3       1 <0>        -0.4846
     13 O3          3.5476    2.1129   -0.0209 O.3       1 <0>        -0.4848
     14 H2         -0.9598    1.9038    0.0259 H         1 <0>         0.1309
     15 H3          1.1522    3.1684    0.0077 H         1 <0>         0.1437
     16 H4          1.2190   -1.7621   -0.0189 H         1 <0>         0.1389
     17 H5         -1.9772    0.0704   -1.8502 H         1 <0>         0.1398
     18 H6         -1.0734   -1.4533   -2.0221 H         1 <0>         0.1477
     19 H7         -2.9181   -2.5835   -1.0191 H         1 <0>         0.4371
     20 H8         -3.7548   -1.1730   -0.8600 H         1 <0>         0.4387
     21 H9         -2.4578    0.8175    0.4731 H         1 <0>         0.3897
     22 H10         3.9367   -0.8389    0.8430 H         1 <0>         0.3974
     23 H11         3.8938    2.3101    0.8602 H         1 <0>         0.3992
     24 H12        -3.4135   -1.7637   -2.3598 H         1 <0>         0.4402
@<TRIPOS>BOND
     1    1    6 ar
     2    1    2 ar
     3    1   14 1
     4    2    3 ar
     5    2   15 1
     6    3    4 ar
     7    3   13 1
     8    4    5 ar
     9    4   12 1
    10    5    6 ar
    11    5   16 1
    12    6    7 1
    13    7    8 1
    14    7    9 1
    15    7   11 1
    16    9   10 1
    17    9   17 1
    18    9   18 1
    19   10   19 1
    20   10   20 1
    21   10   24 1
    22   11   21 1
    23   12   22 1
    24   13   23 1
@<TRIPOS>MOLECULE
ZINC19796039
   54    55     0     0     0
SMALL
USER_CHARGES

@<TRIPOS>ATOM
      1 C1         -2.3669   -0.9201    0.0143 C.3       1 <0>        -0.1530
      2 C2         -0.8508   -1.0920   -0.0992 C.3       1 <0>         0.0573
      3 O1         -0.3390   -1.6247    1.1240 O.3       1 <0>        -0.3450
      4 C3          0.9920   -1.8379    1.1900 C.2       1 <0>         0.5215
      5 O2          1.6979   -1.5779    0.2335 O.2       1 <0>        -0.4853
      6 C4          1.5663   -2.3635    2.3705 C.2       1 <0>        -0.1706
      7 C5          1.4893   -3.6844    2.6076 C.2       1 <0>         0.1614
      8 N1          2.0418   -4.2273    3.7355 N.pl3     1 <0>        -0.6268
      9 C6          2.9751   -3.5288    4.4518 C.2       1 <0>         0.2330
     10 C7          3.1134   -2.2013    4.2923 C.2       1 <0>        -0.2444
     11 C8          2.2545   -1.4343    3.3297 C.3       1 <0>         0.0708
     12 H1          2.8758   -0.7357    2.7693 H         1 <0>         0.1107
     13 C9          1.2171   -0.6630    4.1042 C.ar      1 <0>        -0.0765
     14 C10         0.3009   -1.3352    4.8915 C.ar      1 <0>        -0.0900
     15 C11        -0.6507   -0.6279    5.6019 C.ar      1 <0>        -0.1153
     16 C12        -0.6869    0.7521    5.5257 C.ar      1 <0>        -0.1012
     17 C13         0.2284    1.4252    4.7390 C.ar      1 <0>        -0.1091
     18 C14         1.1849    0.7180    4.0320 C.ar      1 <0>        -0.0177
     19 Cl1         2.3393    1.5632    3.0488 Cl        1 <0>        -0.0561
     20 C15         4.0934   -1.5126    5.0439 C.2       1 <0>         0.5169
     21 O3          4.8005   -2.1217    5.8248 O.2       1 <0>        -0.5187
     22 O4          4.2446   -0.1798    4.8951 O.3       1 <0>        -0.3402
     23 C16         5.2539    0.4509    5.6860 C.3       1 <0>         0.0368
     24 C17         3.8586   -4.2567    5.4320 C.3       1 <0>        -0.1140
     25 C18         0.7865   -4.5783    1.6187 C.3       1 <0>         0.1008
     26 O5          1.7317   -5.4747    1.0312 O.3       1 <0>        -0.3919
     27 C19         1.1651   -6.3711    0.0734 C.3       1 <0>         0.0232
     28 C20         2.2620   -7.2786   -0.4871 C.3       1 <0>         0.0008
     29 N2          2.7843   -8.1355    0.5857 N.4       1 <0>        -0.6373
     30 H2         -2.5949   -0.2363    0.8320 H         1 <0>         0.0704
     31 H3         -2.7574   -0.5137   -0.9187 H         1 <0>         0.0836
     32 H4         -2.8286   -1.8878    0.2105 H         1 <0>         0.0650
     33 H5         -0.6229   -1.7758   -0.9168 H         1 <0>         0.0663
     34 H6         -0.3892   -0.1243   -0.2954 H         1 <0>         0.0731
     35 H7          1.7703   -5.1111    4.0287 H         1 <0>         0.4203
     36 H8          0.3285   -2.4132    4.9512 H         1 <0>         0.1195
     37 H9         -1.3665   -1.1535    6.2166 H         1 <0>         0.1286
     38 H10        -1.4309    1.3042    6.0807 H         1 <0>         0.1338
     39 H11         0.1999    2.5032    4.6793 H         1 <0>         0.1358
     40 H12         5.0362    0.2970    6.7429 H         1 <0>         0.0604
     41 H13         6.2254    0.0176    5.4483 H         1 <0>         0.0600
     42 H14         5.2699    1.5192    5.4701 H         1 <0>         0.1018
     43 H15         3.6076   -5.3174    5.4292 H         1 <0>         0.0604
     44 H16         4.9022   -4.1295    5.1443 H         1 <0>         0.1051
     45 H17         3.7050   -3.8496    6.4314 H         1 <0>         0.1051
     46 H18         0.0135   -5.1505    2.1317 H         1 <0>         0.0890
     47 H19         0.3301   -3.9691    0.8386 H         1 <0>         0.0859
     48 H20         0.3999   -6.9805    0.5544 H         1 <0>         0.0817
     49 H21         0.7166   -5.7990   -0.7387 H         1 <0>         0.1030
     50 H22         1.8484   -7.9011   -1.2804 H         1 <0>         0.1514
     51 H23         3.0696   -6.6667   -0.8890 H         1 <0>         0.1445
     52 H24         3.1672   -7.5592    1.3202 H         1 <0>         0.4406
     53 H25         2.0368   -8.7018    0.9578 H         1 <0>         0.4340
     54 H26         3.5077   -8.7339    0.2161 H         1 <0>         0.4405
@<TRIPOS>BOND
     1    1    2 1
     2    1   30 1
     3    1   31 1
     4    1   32 1
     5    2    3 1
     6    2   33 1
     7    2   34 1
     8    3    4 1
     9    4    5 2
    10    4    6 1
    11    6   11 1
    12    6    7 2
    13    7    8 1
    14    7   25 1
    15    8    9 1
    16    8   35 1
    17    9   10 2
    18    9   24 1
    19   10   11 1
    20   10   20 1
    21   11   12 1
    22   11   13 1
    23   13   18 ar
    24   13   14 ar
    25   14   15 ar
    26   14   36 1
    27   15   16 ar
    28   15   37 1
    29   16   17 ar
    30   16   38 1
    31   17   18 ar
    32   17   39 1
    33   18   19 1
    34   20   21 2
    35   20   22 1
    36   22   23 1
    37   23   40 1
    38   23   41 1
    39   23   42 1
    40   24   43 1
    41   24   44 1
    42   24   45 1
    43   25   26 1
    44   25   46 1
    45   25   47 1
    46   26   27 1
    47   27   28 1
    48   27   48 1
    49   27   49 1
    50   28   29 1
    51   28   50 1
    52   28   51 1
    53   29   52 1
    54   29   53 1
    55   29   54 1
@<TRIPOS>MOLECULE
ZINC19796041
   54    55     0     0     0
SMALL
USER_CHARGES

@<TRIPOS>ATOM
      1 C1          1.9114   -1.6145   -2.3659 C.3       1 <0>        -0.1494
      2 C2          1.0231   -1.3941   -1.1399 C.3       1 <0>         0.0548
      3 O1          1.6578   -1.9485    0.0141 O.3       1 <0>        -0.3433
      4 C3          1.0006   -1.8374    1.1876 C.2       1 <0>         0.5203
      5 O2         -0.0825   -1.2844    1.2283 O.2       1 <0>        -0.4832
      6 C4          1.5707   -2.3639    2.3698 C.2       1 <0>        -0.1739
      7 C5          1.4893   -3.6844    2.6076 C.2       1 <0>         0.1632
      8 N1          2.0231   -4.2258    3.7452 N.pl3     1 <0>        -0.6257
      9 C6          2.3221   -3.4271    4.8151 C.2       1 <0>         0.2319
     10 C7          2.4382   -2.0958    4.6693 C.2       1 <0>        -0.2437
     11 C8          2.2595   -1.4360    3.3299 C.3       1 <0>         0.0701
     12 H1          1.6577   -0.5356    3.4532 H         1 <0>         0.1098
     13 C9          3.6081   -1.0580    2.7735 C.ar      1 <0>        -0.0722
     14 C10         4.5471   -2.0379    2.5112 C.ar      1 <0>        -0.0881
     15 C11         5.7840   -1.6914    2.0008 C.ar      1 <0>        -0.1181
     16 C12         6.0828   -0.3645    1.7523 C.ar      1 <0>        -0.1023
     17 C13         5.1449    0.6161    2.0141 C.ar      1 <0>        -0.1089
     18 C14         3.9044    0.2692    2.5197 C.ar      1 <0>        -0.0175
     19 Cl1         2.7233    1.4997    2.8427 Cl        1 <0>        -0.0534
     20 C15         2.7391   -1.2999    5.7988 C.2       1 <0>         0.5165
     21 O3          2.8901   -1.8214    6.8878 O.2       1 <0>        -0.5171
     22 O4          2.8589    0.0380    5.6689 O.3       1 <0>        -0.3408
     23 C16         3.1642    0.7799    6.8514 C.3       1 <0>         0.0367
     24 C17         2.5233   -4.0474    6.1737 C.3       1 <0>        -0.1152
     25 C18         0.8014   -4.5794    1.6092 C.3       1 <0>         0.1028
     26 O5          1.7561   -5.4739    1.0344 O.3       1 <0>        -0.3908
     27 C19         1.2040   -6.3712    0.0689 C.3       1 <0>         0.0234
     28 C20         2.3100   -7.2766   -0.4770 C.3       1 <0>         0.0011
     29 N2          2.8194   -8.1327    0.6026 N.4       1 <0>        -0.6377
     30 H2          2.0666   -2.6831   -2.5147 H         1 <0>         0.0612
     31 H3          1.4273   -1.1916   -3.2462 H         1 <0>         0.0832
     32 H4          2.8732   -1.1259   -2.2103 H         1 <0>         0.0694
     33 H5          0.8679   -0.3255   -0.9911 H         1 <0>         0.0732
     34 H6          0.0612   -1.8827   -1.2955 H         1 <0>         0.0670
     35 H7          2.1899   -5.1801    3.7935 H         1 <0>         0.4193
     36 H8          4.3144   -3.0745    2.7054 H         1 <0>         0.1191
     37 H9          6.5174   -2.4573    1.7964 H         1 <0>         0.1258
     38 H10         7.0496   -0.0943    1.3539 H         1 <0>         0.1329
     39 H11         5.3785    1.6525    1.8203 H         1 <0>         0.1359
     40 H12         2.3771    0.6267    7.5898 H         1 <0>         0.0608
     41 H13         4.1159    0.4388    7.2588 H         1 <0>         0.0601
     42 H14         3.2323    1.8401    6.6077 H         1 <0>         0.1017
     43 H15         2.3915   -5.1271    6.1032 H         1 <0>         0.0615
     44 H16         3.5301   -3.8267    6.5284 H         1 <0>         0.1044
     45 H17         1.7940   -3.6371    6.8721 H         1 <0>         0.1072
     46 H18         0.0226   -5.1531    2.1117 H         1 <0>         0.0880
     47 H19         0.3545   -3.9708    0.8232 H         1 <0>         0.0845
     48 H20         0.4336   -6.9821    0.5394 H         1 <0>         0.0810
     49 H21         0.7654   -5.7998   -0.7491 H         1 <0>         0.1037
     50 H22         1.9082   -7.8998   -1.2759 H         1 <0>         0.1509
     51 H23         3.1218   -6.6632   -0.8680 H         1 <0>         0.1451
     52 H24         3.1914   -7.5559    1.3422 H         1 <0>         0.4400
     53 H25         2.0680   -8.7005    0.9645 H         1 <0>         0.4345
     54 H26         3.5488   -8.7298    0.2426 H         1 <0>         0.4405
@<TRIPOS>BOND
     1    1    2 1
     2    1   30 1
     3    1   31 1
     4    1   32 1
     5    2    3 1
     6    2   33 1
     7    2   34 1
     8    3    4 1
     9    4    5 2
    10    4    6 1
    11    6   11 1
    12    6    7 2
    13    7    8 1
    14    7   25 1
    15    8    9 1
    16    8   35 1
    17    9   10 2
    18    9   24 1
    19   10   11 1
    20   10   20 1
    21   11   12 1
    22   11   13 1
    23   13   18 ar
    24   13   14 ar
    25   14   15 ar
    26   14   36 1
    27   15   16 ar
    28   15   37 1
    29   16   17 ar
    30   16   38 1
    31   17   18 ar
    32   17   39 1
    33   18   19 1
    34   20   21 2
    35   20   22 1
    36   22   23 1
    37   23   40 1
    38   23   41 1
    39   23   42 1
    40   24   43 1
    41   24   44 1
    42   24   45 1
    43   25   26 1
    44   25   46 1
    45   25   47 1
    46   26   27 1
    47   27   28 1
    48   27   48 1
    49   27   49 1
    50   28   29 1
    51   28   50 1
    52   28   51 1
    53   29   52 1
    54   29   53 1
    55   29   54 1
@<TRIPOS>MOLECULE
ZINC19796041
   53    54     0     0     0
SMALL
USER_CHARGES

@<TRIPOS>ATOM
      1 C1         -0.4353    1.4545    0.2062 C.3       1 <0>        -0.1487
      2 C2         -0.1650   -0.0456    0.0737 C.3       1 <0>         0.0634
      3 O1          0.5022   -0.5148    1.2470 O.3       1 <0>        -0.3516
      4 C3          0.8146   -1.8250    1.2904 C.2       1 <0>         0.4640
      5 C4          1.4587   -2.3434    2.3924 C.2       1 <0>        -0.3777
      6 C5          1.8320   -3.8131    2.4736 C.3       1 <0>         0.1170
      7 H1          2.4785   -4.0475    1.6279 H         1 <0>         0.0614
      8 C6          2.5382   -4.2471    3.7450 C.2       1 <0>        -0.3466
      9 C7          2.7744   -3.2936    4.6935 C.2       1 <0>         0.2620
     10 N1          2.4115   -2.0298    4.5360 N.2       1 <0>        -0.6274
     11 C8          1.8018   -1.5395    3.4809 C.2       1 <0>         0.2759
     12 C9          1.4590   -0.0724    3.4468 C.3       1 <0>         0.1225
     13 O2          1.9008    0.5482    4.6558 O.3       1 <0>        -0.3738
     14 C10         1.6228    1.9482    4.7258 C.3       1 <0>         0.0191
     15 C11         2.1368    2.5043    6.0553 C.3       1 <0>         0.0042
     16 N2          3.6012    2.3963    6.0979 N.4       1 <0>        -0.6362
     17 C12         3.4735   -3.6945    5.9669 C.3       1 <0>        -0.1088
     18 C13         2.9343   -5.5819    3.9393 C.2       1 <0>         0.5210
     19 O3          3.6005   -5.8839    4.9131 O.2       1 <0>        -0.5535
     20 O4          2.5760   -6.5295    3.0459 O.3       1 <0>        -0.3454
     21 C14         3.0131   -7.8649    3.3061 C.3       1 <0>         0.0409
     22 C15         0.5711   -4.6273    2.3386 C.ar      1 <0>        -0.0244
     23 C16        -0.4554   -4.4685    3.2508 C.ar      1 <0>        -0.1010
     24 C17        -1.6120   -5.2152    3.1270 C.ar      1 <0>        -0.1301
     25 C18        -1.7429   -6.1214    2.0911 C.ar      1 <0>        -0.1266
     26 C19        -0.7174   -6.2811    1.1786 C.ar      1 <0>        -0.1235
     27 C20         0.4383   -5.5297    1.2986 C.ar      1 <0>         0.0128
     28 Cl1         1.7243   -5.7250    0.1489 Cl        1 <0>        -0.0718
     29 O5          0.4971   -2.6281    0.2559 O.3       1 <0>        -0.6130
     30 H2          0.5097    1.9850    0.3235 H         1 <0>         0.0579
     31 H3         -0.9443    1.8125   -0.6887 H         1 <0>         0.0741
     32 H4         -1.0639    1.6348    1.0783 H         1 <0>         0.0592
     33 H5         -1.1100   -0.5760   -0.0436 H         1 <0>         0.0625
     34 H6          0.4635   -0.2258   -0.7984 H         1 <0>         0.0623
     35 H7          1.9532    0.3966    2.5960 H         1 <0>         0.0786
     36 H8          0.3798    0.0464    3.3508 H         1 <0>         0.0808
     37 H9          2.1205    2.4591    3.9016 H         1 <0>         0.0685
     38 H10         0.5470    2.1089    4.6564 H         1 <0>         0.0916
     39 H11         1.8468    3.5510    6.1476 H         1 <0>         0.1396
     40 H12         1.7063    1.9341    6.8784 H         1 <0>         0.1403
     41 H13         3.8696    1.4275    6.0124 H         1 <0>         0.4479
     42 H14         3.9997    2.9242    5.3359 H         1 <0>         0.4309
     43 H15         4.5517   -3.6854    5.8078 H         1 <0>         0.0687
     44 H16         3.2172   -2.9910    6.7591 H         1 <0>         0.0497
     45 H17         3.1571   -4.6970    6.2550 H         1 <0>         0.0961
     46 H18         2.6124   -8.1983    4.2633 H         1 <0>         0.0493
     47 H19         2.6582   -8.5242    2.5141 H         1 <0>         0.0888
     48 H20         4.1023   -7.8906    3.3394 H         1 <0>         0.0500
     49 H21        -0.3536   -3.7610    4.0604 H         1 <0>         0.1127
     50 H22        -2.4135   -5.0910    3.8401 H         1 <0>         0.1141
     51 H23        -2.6467   -6.7048    1.9951 H         1 <0>         0.1186
     52 H24        -0.8197   -6.9892    0.3696 H         1 <0>         0.1206
     53 H25         3.9401    2.7631    6.9746 H         1 <0>         0.4330
@<TRIPOS>BOND
     1    1    2 1
     2    1   30 1
     3    1   31 1
     4    1   32 1
     5    2    3 1
     6    2   33 1
     7    2   34 1
     8    3    4 1
     9    4    5 2
    10    4   29 1
    11    5   11 1
    12    5    6 1
    13    6    7 1
    14    6    8 1
    15    6   22 1
    16    8    9 2
    17    8   18 1
    18    9   10 1
    19    9   17 1
    20   10   11 2
    21   11   12 1
    22   12   13 1
    23   12   35 1
    24   12   36 1
    25   13   14 1
    26   14   15 1
    27   14   37 1
    28   14   38 1
    29   15   16 1
    30   15   39 1
    31   15   40 1
    32   16   41 1
    33   16   42 1
    34   16   53 1
    35   17   43 1
    36   17   44 1
    37   17   45 1
    38   18   19 2
    39   18   20 1
    40   20   21 1
    41   21   46 1
    42   21   47 1
    43   21   48 1
    44   22   27 ar
    45   22   23 ar
    46   23   24 ar
    47   23   49 1
    48   24   25 ar
    49   24   50 1
    50   25   26 ar
    51   25   51 1
    52   26   27 ar
    53   26   52 1
    54   27   28 1
@<TRIPOS>MOLECULE
ZINC03860825
   53    57     0     0     0
SMALL
USER_CHARGES

@<TRIPOS>ATOM
      1 C1         -0.0173    1.4248    0.0099 C.3       1 <0>         0.0327
      2 O1          0.0021   -0.0041    0.0020 O.3       1 <0>        -0.3479
      3 C2          0.5984   -0.5997   -1.0427 C.2       1 <0>         0.4737
      4 O2          1.0877    0.0699   -1.9214 O.2       1 <0>        -0.5039
      5 C3          0.6575   -2.1036   -1.1196 C.3       1 <0>        -0.0650
      6 H1          1.1947   -2.4917   -0.2542 H         1 <0>         0.1260
      7 C4         -0.7643   -2.6714   -1.1364 C.3       1 <0>         0.1104
      8 H2         -1.2823   -2.3789   -0.2230 H         1 <0>         0.0803
      9 C5         -0.7098   -4.1973   -1.2238 C.3       1 <0>        -0.1531
     10 C6          0.0283   -4.6160   -2.4980 C.3       1 <0>        -0.1090
     11 C7          1.4478   -4.0496   -2.4652 C.3       1 <0>        -0.1066
     12 H3          1.9678   -4.4265   -1.5844 H         1 <0>         0.0984
     13 C8          1.3811   -2.5214   -2.3995 C.3       1 <0>        -0.0762
     14 H4          0.8340   -2.1460   -3.2643 H         1 <0>         0.1112
     15 C9          2.8021   -1.9525   -2.4146 C.3       1 <0>        -0.1520
     16 C10         3.5142   -2.4494   -3.6743 C.3       1 <0>         0.1158
     17 H5          2.9655   -2.1183   -4.5560 H         1 <0>         0.1480
     18 C11         4.9207   -1.9091   -3.7260 C.2       1 <0>         0.0226
     19 C12         5.9775   -2.6629   -4.1115 C.2       1 <0>        -0.1599
     20 C13         7.1508   -1.8219   -4.0411 C.ar      1 <0>        -0.1001
     21 C14         8.5026   -2.0504   -4.3178 C.ar      1 <0>        -0.0652
     22 C15         9.3608   -0.9941   -4.1376 C.ar      1 <0>        -0.1357
     23 C16         8.9212    0.2451   -3.7015 C.ar      1 <0>        -0.0818
     24 C17         7.5903    0.4991   -3.4190 C.ar      1 <0>        -0.1277
     25 C18         6.6952   -0.5542   -3.5938 C.ar      1 <0>         0.1109
     26 N1          5.3444   -0.6471   -3.4127 N.pl3     1 <0>        -0.5612
     27 H6          4.7717    0.0739   -3.1078 H         1 <0>         0.4234
     28 C19         5.8580   -4.1083   -4.5249 C.3       1 <0>        -0.0677
     29 C20         4.3745   -4.4075   -4.7852 C.3       1 <0>        -0.0061
     30 N2          3.5745   -3.9171   -3.6582 N.4       1 <0>        -0.3774
     31 C21         2.2119   -4.4657   -3.7230 C.3       1 <0>         0.0006
     32 O3         -1.4686   -2.1563   -2.2680 O.3       1 <0>        -0.5638
     33 H7          1.0053    1.8021    0.0021 H         1 <0>         0.0628
     34 H8         -0.5445    1.7859   -0.8732 H         1 <0>         0.0656
     35 H9         -0.5275    1.7763    0.9067 H         1 <0>         0.1087
     36 H10        -0.1842   -4.5917   -0.3542 H         1 <0>         0.0829
     37 H11        -1.7242   -4.5957   -1.2448 H         1 <0>         0.0871
     38 H12         0.0713   -5.7038   -2.5532 H         1 <0>         0.0818
     39 H13        -0.4991   -4.2269   -3.3690 H         1 <0>         0.0847
     40 H14         2.7600   -0.8634   -2.4237 H         1 <0>         0.1318
     41 H15         3.3419   -2.2929   -1.5309 H         1 <0>         0.0903
     42 H16         8.8550   -3.0132   -4.6571 H         1 <0>         0.1348
     43 H17        10.4120   -1.1338   -4.3420 H         1 <0>         0.1279
     44 H18         9.6417    1.0401   -3.5774 H         1 <0>         0.1311
     45 H19         7.2605    1.4697   -3.0791 H         1 <0>         0.1352
     46 H20         6.4334   -4.2800   -5.4346 H         1 <0>         0.1209
     47 H21         6.2289   -4.7515   -3.7269 H         1 <0>         0.0998
     48 H22         4.0584   -3.9085   -5.7013 H         1 <0>         0.1319
     49 H23         4.2337   -5.4833   -4.8902 H         1 <0>         0.1399
     50 H24         2.2638   -5.5532   -3.7749 H         1 <0>         0.1399
     51 H25         1.6991   -4.0815   -4.6048 H         1 <0>         0.1347
     52 H26        -2.3787   -2.4743   -2.3430 H         1 <0>         0.3915
     53 H27         4.0031   -4.2176   -2.7956 H         1 <0>         0.4231
@<TRIPOS>BOND
     1    1    2 1
     2    1   33 1
     3    1   34 1
     4    1   35 1
     5    2    3 1
     6    3    4 2
     7    3    5 1
     8    5    6 1
     9    5   13 1
    10    5    7 1
    11    7    8 1
    12    7    9 1
    13    7   32 1
    14    9   10 1
    15    9   36 1
    16    9   37 1
    17   10   11 1
    18   10   38 1
    19   10   39 1
    20   11   12 1
    21   11   31 1
    22   11   13 1
    23   13   14 1
    24   13   15 1
    25   15   16 1
    26   15   40 1
    27   15   41 1
    28   16   17 1
    29   16   30 1
    30   16   18 1
    31   18   26 1
    32   18   19 2
    33   19   20 1
    34   19   28 1
    35   20   25 ar
    36   20   21 ar
    37   21   22 ar
    38   21   42 1
    39   22   23 ar
    40   22   43 1
    41   23   24 ar
    42   23   44 1
    43   24   25 ar
    44   24   45 1
    45   25   26 1
    46   26   27 1
    47   28   29 1
    48   28   46 1
    49   28   47 1
    50   29   30 1
    51   29   48 1
    52   29   49 1
    53   30   31 1
    54   30   53 1
    55   31   50 1
    56   31   51 1
    57   32   52 1
@<TRIPOS>MOLECULE
ZINC01491952
   33    35     0     0     0
SMALL
USER_CHARGES
2-(3,4-dihydro-1H-isoquinolin-2-yl)pyridin-4-amine
@<TRIPOS>ATOM
      1 C1         -6.7942    6.1264    1.4284 C.ar      1 <0>        -0.1038
      2 C2         -6.6935    4.9246    2.1045 C.ar      1 <0>        -0.1121
      3 C3         -5.5343    4.1809    2.0157 C.ar      1 <0>        -0.1062
      4 C4         -4.4683    4.6319    1.2508 C.ar      1 <0>        -0.1015
      5 C5         -4.5706    5.8284    0.5743 C.ar      1 <0>        -0.0764
      6 C6         -5.7349    6.5760    0.6660 C.ar      1 <0>        -0.1133
      7 C7         -3.4439    6.3543   -0.2776 C.3       1 <0>        -0.0743
      8 C8         -2.1430    5.6324    0.0745 C.3       1 <0>         0.0215
      9 N1         -2.3912    4.1822    0.0470 N.pl3     1 <0>        -0.4733
     10 C9         -3.2227    3.7874    1.1884 C.3       1 <0>         0.1031
     11 C10        -1.1958    3.4723    0.0322 C.ar      1 <0>         0.3970
     12 C11        -1.2211    2.0843    0.0191 C.ar      1 <0>        -0.2390
     13 C12        -0.0168    1.3878    0.0097 C.ar      1 <0>         0.3457
     14 C13         1.1729    2.1198    0.0022 C.ar      1 <0>        -0.2169
     15 C14         1.1161    3.4959    0.0102 C.ar      1 <0>         0.1807
     16 N2          0.0021   -0.0041    0.0020 N.pl3     1 <0>        -0.8077
     17 H1         -7.6990    6.7121    1.4969 H         1 <0>         0.1309
     18 H2         -7.5206    4.5684    2.7007 H         1 <0>         0.1312
     19 H3         -5.4566    3.2426    2.5447 H         1 <0>         0.1273
     20 H4         -5.8135    7.5148    0.1378 H         1 <0>         0.1289
     21 H5         -3.6771    6.1876   -1.3292 H         1 <0>         0.0961
     22 H6         -3.3231    7.4227   -0.0986 H         1 <0>         0.0998
     23 H7         -1.8178    5.9295    1.0716 H         1 <0>         0.0785
     24 H8         -1.3741    5.8863   -0.6553 H         1 <0>         0.0947
     25 H9         -3.5035    2.7394    1.0834 H         1 <0>         0.1114
     26 H10        -2.6543    3.9169    2.1094 H         1 <0>         0.0774
     27 H11        -2.1615    1.5532    0.0202 H         1 <0>         0.1789
     28 H12         2.1263    1.6125   -0.0100 H         1 <0>         0.1808
     29 H13         2.0329    4.0666    0.0049 H         1 <0>         0.1948
     30 H14         0.8486   -0.4776   -0.0086 H         1 <0>         0.4241
     31 H15        -0.8313   -0.5005    0.0073 H         1 <0>         0.4231
     32 N3         -0.0446    4.2078    0.0251 N.ar      1 <0>        -0.5663
     33 H16        -0.0540    5.2345    0.0308 H         1 <0>         0.4648
@<TRIPOS>BOND
     1    1    6 ar
     2    1    2 ar
     3    1   17 1
     4    2    3 ar
     5    2   18 1
     6    3    4 ar
     7    3   19 1
     8    4   10 1
     9    4    5 ar
    10    5    6 ar
    11    5    7 1
    12    6   20 1
    13    7    8 1
    14    7   21 1
    15    7   22 1
    16    8    9 1
    17    8   23 1
    18    8   24 1
    19    9   10 1
    20    9   11 1
    21   10   25 1
    22   10   26 1
    23   11   12 ar
    24   11   32 ar
    25   12   13 ar
    26   12   27 1
    27   13   14 ar
    28   13   16 1
    29   14   15 ar
    30   14   28 1
    31   15   29 1
    32   15   32 ar
    33   16   30 1
    34   16   31 1
    35   32   33 1
@<TRIPOS>MOLECULE
ZINC13488071
   36    38     0     0     0
SMALL
USER_CHARGES
2-(3,4-dihydro-1H-isoquinolin-2-yl)-5-methyl-pyridin-4-amine
@<TRIPOS>ATOM
      1 C1          3.7106    2.0397   -0.0229 C.3       1 <0>        -0.1144
      2 C2          2.3770    1.3379   -0.0139 C.ar      1 <0>        -0.1765
      3 C3          2.3138   -0.0384   -0.0202 C.ar      1 <0>         0.1708
      4 C4          0.0021   -0.0041    0.0020 C.ar      1 <0>         0.3938
      5 C5         -0.0167    1.3836    0.0096 C.ar      1 <0>        -0.2353
      6 C6          1.1910    2.0750    0.0018 C.ar      1 <0>         0.3463
      7 N1          1.2163    3.4667    0.0086 N.pl3     1 <0>        -0.8074
      8 N2         -1.1966   -0.7086    0.0092 N.pl3     1 <0>        -0.4729
      9 C7         -0.9554   -2.1599   -0.0233 C.3       1 <0>         0.0216
     10 C8         -2.2529   -2.8760    0.3527 C.3       1 <0>        -0.0742
     11 C9         -3.3928   -2.3447   -0.4779 C.ar      1 <0>        -0.0764
     12 C10        -4.5620   -3.0871   -0.5482 C.ar      1 <0>        -0.1133
     13 C11        -5.6332   -2.6324   -1.2907 C.ar      1 <0>        -0.1040
     14 C12        -5.5397   -1.4309   -1.9683 C.ar      1 <0>        -0.1121
     15 C13        -4.3757   -0.6925   -1.9008 C.ar      1 <0>        -0.1063
     16 C14        -3.2977   -1.1485   -1.1559 C.ar      1 <0>        -0.1011
     17 C15        -2.0473   -0.3096   -1.1164 C.3       1 <0>         0.1029
     18 H1          4.0225    2.2141   -1.0526 H         1 <0>         0.0911
     19 H2          3.6225    2.9939    0.4966 H         1 <0>         0.0797
     20 H3          4.4514    1.4187    0.4809 H         1 <0>         0.0911
     21 H4          3.2280   -0.6133   -0.0321 H         1 <0>         0.1933
     22 H5         -0.9547    1.9190    0.0170 H         1 <0>         0.1799
     23 H6          0.3852    3.9668    0.0189 H         1 <0>         0.4231
     24 H7          2.0649    3.9364    0.0030 H         1 <0>         0.4224
     25 H8         -0.6502   -2.4581   -1.0263 H         1 <0>         0.0782
     26 H9         -0.1744   -2.4175    0.6920 H         1 <0>         0.0944
     27 H10        -2.4658   -2.7087    1.4086 H         1 <0>         0.0961
     28 H11        -2.1403   -3.9449    0.1712 H         1 <0>         0.0997
     29 H12        -4.6350   -4.0257   -0.0189 H         1 <0>         0.1288
     30 H13        -6.5418   -3.2140   -1.3425 H         1 <0>         0.1309
     31 H14        -6.3761   -1.0707   -2.5489 H         1 <0>         0.1312
     32 H15        -4.3035    0.2458   -2.4309 H         1 <0>         0.1272
     33 H16        -2.3214    0.7396   -1.0059 H         1 <0>         0.1112
     34 H17        -1.4968   -0.4414   -2.0478 H         1 <0>         0.0771
     35 N3          1.1502   -0.7449   -0.0129 N.ar      1 <0>        -0.5616
     36 H18         1.1361   -1.7715   -0.0183 H         1 <0>         0.4648
@<TRIPOS>BOND
     1    1    2 1
     2    1   18 1
     3    1   19 1
     4    1   20 1
     5    2    6 ar
     6    2    3 ar
     7    3   21 1
     8    3   35 ar
     9    4    5 ar
    10    4    8 1
    11    4   35 ar
    12    5    6 ar
    13    5   22 1
    14    6    7 1
    15    7   23 1
    16    7   24 1
    17    8   17 1
    18    8    9 1
    19    9   10 1
    20    9   25 1
    21    9   26 1
    22   10   11 1
    23   10   27 1
    24   10   28 1
    25   11   16 ar
    26   11   12 ar
    27   12   13 ar
    28   12   29 1
    29   13   14 ar
    30   13   30 1
    31   14   15 ar
    32   14   31 1
    33   15   16 ar
    34   15   32 1
    35   16   17 1
    36   17   33 1
    37   17   34 1
    38   35   36 1
@<TRIPOS>MOLECULE
ZINC03812892
   77    80     0     0     0
SMALL
USER_CHARGES

@<TRIPOS>ATOM
      1 C1         -5.6570   -1.8380   -5.8329 C.3       1 <0>        -0.1410
      2 C2         -5.2316   -3.3070   -5.7878 C.3       1 <0>        -0.0339
      3 C3         -5.1149   -3.7596   -4.3310 C.3       1 <0>        -0.1396
      4 C4         -6.2769   -4.1630   -6.5057 C.3       1 <0>        -0.1471
      5 C5         -3.8977   -3.4648   -6.4712 C.ar      1 <0>        -0.0573
      6 C6         -3.7802   -4.2876   -7.5758 C.ar      1 <0>        -0.1168
      7 C7         -2.5567   -4.4324   -8.2027 C.ar      1 <0>        -0.1067
      8 C8         -1.4508   -3.7541   -7.7253 C.ar      1 <0>        -0.1350
      9 C9         -1.5686   -2.9306   -6.6212 C.ar      1 <0>        -0.1088
     10 C10        -2.7930   -2.7825   -5.9969 C.ar      1 <0>        -0.1103
     11 C11        -0.1168   -3.9128   -8.4081 C.3       1 <0>         0.1533
     12 H1         -0.2727   -4.2002   -9.4478 H         1 <0>         0.1093
     13 C12         0.6951   -4.9963   -7.6956 C.3       1 <0>        -0.1445
     14 C13         1.9961   -5.2452   -8.4615 C.3       1 <0>        -0.1465
     15 C14         2.8080   -6.3287   -7.7490 C.3       1 <0>        -0.0105
     16 N1          4.0571   -6.5677   -8.4843 N.4       1 <0>        -0.3824
     17 C15         4.8871   -5.3578   -8.4420 C.3       1 <0>        -0.0079
     18 C16         6.1529   -5.5737   -9.2743 C.3       1 <0>        -0.1472
     19 C17         6.9399   -6.7549   -8.6994 C.3       1 <0>        -0.1198
     20 C18         6.0400   -7.9939   -8.6795 C.3       1 <0>        -0.1384
     21 C19         4.7784   -7.6883   -7.8693 C.3       1 <0>        -0.0058
     22 C20         8.1658   -7.0269   -9.5736 C.3       1 <0>         0.2364
     23 C21         9.0396   -5.7996   -9.6092 C.ar      1 <0>        -0.1208
     24 C22         9.4143   -5.1835   -8.4299 C.ar      1 <0>        -0.1129
     25 C23        10.2158   -4.0577   -8.4626 C.ar      1 <0>        -0.1158
     26 C24        10.6430   -3.5483   -9.6747 C.ar      1 <0>        -0.1101
     27 C25        10.2690   -4.1651  -10.8540 C.ar      1 <0>        -0.1131
     28 C26         9.4710   -5.2933  -10.8210 C.ar      1 <0>        -0.1068
     29 C27         8.9453   -8.1821   -9.0001 C.ar      1 <0>        -0.0827
     30 C28         9.3013   -8.1805   -7.6644 C.ar      1 <0>        -0.1158
     31 C29        10.0164   -9.2401   -7.1384 C.ar      1 <0>        -0.1179
     32 C30        10.3751  -10.3016   -7.9480 C.ar      1 <0>        -0.1104
     33 C31        10.0184  -10.3036   -9.2835 C.ar      1 <0>        -0.1181
     34 C32         9.2996   -9.2460   -9.8085 C.ar      1 <0>        -0.0910
     35 O1          7.7429   -7.3493  -10.8999 O.3       1 <0>        -0.5409
     36 O2          0.5943   -2.6743   -8.3578 O.3       1 <0>        -0.5537
     37 H2         -4.9123   -1.2282   -5.3215 H         1 <0>         0.0572
     38 H3         -5.7401   -1.5155   -6.8708 H         1 <0>         0.0574
     39 H4         -6.6218   -1.7238   -5.3387 H         1 <0>         0.0630
     40 H5         -6.0797   -3.6455   -3.8367 H         1 <0>         0.0629
     41 H6         -4.8118   -4.8062   -4.2989 H         1 <0>         0.0558
     42 H7         -4.3702   -3.1498   -3.8196 H         1 <0>         0.0568
     43 H8         -6.3600   -3.8405   -7.5436 H         1 <0>         0.0596
     44 H9         -5.9738   -5.2095   -6.4736 H         1 <0>         0.0586
     45 H10        -7.2417   -4.0488   -6.0114 H         1 <0>         0.0628
     46 H11        -4.6441   -4.8176   -7.9488 H         1 <0>         0.1307
     47 H12        -2.4646   -5.0758   -9.0653 H         1 <0>         0.1217
     48 H13        -0.7046   -2.4010   -6.2480 H         1 <0>         0.1176
     49 H14        -2.8859   -2.1362   -5.1366 H         1 <0>         0.1244
     50 H15         0.9270   -4.6692   -6.6821 H         1 <0>         0.0787
     51 H16         0.1148   -5.9182   -7.6560 H         1 <0>         0.0860
     52 H17         1.7641   -5.5723   -9.4750 H         1 <0>         0.0879
     53 H18         2.5764   -4.3234   -8.5011 H         1 <0>         0.0944
     54 H19         3.0399   -6.0016   -6.7355 H         1 <0>         0.1285
     55 H20         2.2277   -7.2506   -7.7094 H         1 <0>         0.1306
     56 H21         4.3245   -4.5174   -8.8485 H         1 <0>         0.1351
     57 H22         5.1637   -5.1434   -7.4097 H         1 <0>         0.1288
     58 H23         5.8774   -5.7879  -10.3069 H         1 <0>         0.0889
     59 H24         6.7686   -4.6749   -9.2401 H         1 <0>         0.1173
     60 H25         7.2596   -6.5203   -7.6841 H         1 <0>         0.1001
     61 H26         5.7622   -8.2584   -9.6998 H         1 <0>         0.0971
     62 H27         6.5751   -8.8251   -8.2202 H         1 <0>         0.1150
     63 H28         5.0574   -7.4243   -6.8492 H         1 <0>         0.1274
     64 H29         4.1356   -8.5685   -7.8530 H         1 <0>         0.1314
     65 H30         9.0806   -5.5814   -7.4830 H         1 <0>         0.1196
     66 H31        10.5080   -3.5759   -7.5413 H         1 <0>         0.1259
     67 H32        11.2686   -2.6684   -9.7003 H         1 <0>         0.1266
     68 H33        10.6025   -3.7669  -11.8009 H         1 <0>         0.1271
     69 H34         9.1819   -5.7773  -11.7422 H         1 <0>         0.1293
     70 H35         9.0210   -7.3512   -7.0319 H         1 <0>         0.1189
     71 H36        10.2951   -9.2385   -6.0950 H         1 <0>         0.1260
     72 H37        10.9345  -11.1291   -7.5372 H         1 <0>         0.1261
     73 H38        10.2990  -11.1328   -9.9161 H         1 <0>         0.1265
     74 H39         9.0176   -9.2493  -10.8511 H         1 <0>         0.1327
     75 H40         7.2342   -6.6493  -11.3316 H         1 <0>         0.3777
     76 H41         0.7687   -2.3570   -7.4611 H         1 <0>         0.3762
     77 H42         3.8432   -6.7930   -9.4443 H         1 <0>         0.4225
@<TRIPOS>BOND
     1    1    2 1
     2    1   37 1
     3    1   38 1
     4    1   39 1
     5    2    3 1
     6    2    4 1
     7    2    5 1
     8    3   40 1
     9    3   41 1
    10    3   42 1
    11    4   43 1
    12    4   44 1
    13    4   45 1
    14    5   10 ar
    15    5    6 ar
    16    6    7 ar
    17    6   46 1
    18    7    8 ar
    19    7   47 1
    20    8    9 ar
    21    8   11 1
    22    9   10 ar
    23    9   48 1
    24   10   49 1
    25   11   12 1
    26   11   13 1
    27   11   36 1
    28   13   14 1
    29   13   50 1
    30   13   51 1
    31   14   15 1
    32   14   52 1
    33   14   53 1
    34   15   16 1
    35   15   54 1
    36   15   55 1
    37   16   21 1
    38   16   17 1
    39   16   77 1
    40   17   18 1
    41   17   56 1
    42   17   57 1
    43   18   19 1
    44   18   58 1
    45   18   59 1
    46   19   20 1
    47   19   22 1
    48   19   60 1
    49   20   21 1
    50   20   61 1
    51   20   62 1
    52   21   63 1
    53   21   64 1
    54   22   23 1
    55   22   29 1
    56   22   35 1
    57   23   28 ar
    58   23   24 ar
    59   24   25 ar
    60   24   65 1
    61   25   26 ar
    62   25   66 1
    63   26   27 ar
    64   26   67 1
    65   27   28 ar
    66   27   68 1
    67   28   69 1
    68   29   34 ar
    69   29   30 ar
    70   30   31 ar
    71   30   70 1
    72   31   32 ar
    73   31   71 1
    74   32   33 ar
    75   32   72 1
    76   33   34 ar
    77   33   73 1
    78   34   74 1
    79   35   75 1
    80   36   76 1
@<TRIPOS>MOLECULE
ZINC03831511
   77    80     0     0     0
SMALL
USER_CHARGES

@<TRIPOS>ATOM
      1 C1          8.5157   -0.1133    0.5257 C.3       1 <0>        -0.1396
      2 C2          8.2329   -1.6122    0.4070 C.3       1 <0>        -0.0339
      3 C3          9.4003   -2.4003    1.0044 C.3       1 <0>        -0.1410
      4 C4          6.9480   -1.9504    1.1657 C.3       1 <0>        -0.1471
      5 C5          8.0700   -1.9792   -1.0455 C.ar      1 <0>        -0.0570
      6 C6          6.8812   -2.5261   -1.4911 C.ar      1 <0>        -0.1171
      7 C7          6.7318   -2.8628   -2.8235 C.ar      1 <0>        -0.1058
      8 C8          7.7711   -2.6522   -3.7103 C.ar      1 <0>        -0.1351
      9 C9          8.9595   -2.1045   -3.2649 C.ar      1 <0>        -0.1088
     10 C10         9.1074   -1.7638   -1.9334 C.ar      1 <0>        -0.1105
     11 C11         7.6085   -3.0201   -5.1627 C.3       1 <0>         0.1534
     12 H1          6.7941   -3.7370   -5.2669 H         1 <0>         0.1083
     13 C12         7.2888   -1.7633   -5.9745 C.3       1 <0>        -0.1447
     14 C13         7.0011   -2.1531   -7.4258 C.3       1 <0>        -0.1461
     15 C14         6.6814   -0.8963   -8.2376 C.3       1 <0>        -0.0105
     16 N1          6.4052   -1.2705   -9.6310 N.4       1 <0>        -0.3824
     17 C15         5.1925   -2.0957   -9.6833 C.3       1 <0>        -0.0077
     18 C16         4.9455   -2.5556  -11.1217 C.3       1 <0>        -0.1474
     19 C17         4.7691   -1.3287  -12.0210 C.3       1 <0>        -0.1197
     20 C18         6.0089   -0.4378  -11.9013 C.3       1 <0>        -0.1385
     21 C19         6.2165   -0.0564  -10.4340 C.3       1 <0>        -0.0057
     22 C20         4.6009   -1.7789  -13.4735 C.3       1 <0>         0.2363
     23 C21         3.3927   -2.6726  -13.5857 C.ar      1 <0>        -0.1208
     24 C22         2.1799   -2.2641  -13.0630 C.ar      1 <0>        -0.1130
     25 C23         1.0716   -3.0839  -13.1659 C.ar      1 <0>        -0.1159
     26 C24         1.1760   -4.3120  -13.7919 C.ar      1 <0>        -0.1102
     27 C25         2.3886   -4.7200  -14.3155 C.ar      1 <0>        -0.1131
     28 C26         3.4958   -3.8984  -14.2163 C.ar      1 <0>        -0.1068
     29 C27         4.4159   -0.5710  -14.3556 C.ar      1 <0>        -0.0827
     30 C28         3.4639    0.3789  -14.0360 C.ar      1 <0>        -0.1158
     31 C29         3.2942    1.4868  -14.8450 C.ar      1 <0>        -0.1179
     32 C30         4.0769    1.6450  -15.9735 C.ar      1 <0>        -0.1103
     33 C31         5.0295    0.6955  -16.2925 C.ar      1 <0>        -0.1181
     34 C32         5.2021   -0.4102  -15.4811 C.ar      1 <0>        -0.0909
     35 O1          5.7648   -2.4972  -13.8874 O.3       1 <0>        -0.5409
     36 O2          8.8208   -3.6031   -5.6449 O.3       1 <0>        -0.5535
     37 H2          9.4311    0.1277   -0.0148 H         1 <0>         0.0568
     38 H3          7.6840    0.4482    0.1001 H         1 <0>         0.0558
     39 H4          8.6335    0.1522    1.5763 H         1 <0>         0.0630
     40 H5          9.5181   -2.1349    2.0550 H         1 <0>         0.0630
     41 H6          9.1989   -3.4682    0.9199 H         1 <0>         0.0575
     42 H7         10.3157   -2.1594    0.4639 H         1 <0>         0.0572
     43 H8          6.1163   -1.3889    0.7401 H         1 <0>         0.0585
     44 H9          6.7465   -3.0183    1.0812 H         1 <0>         0.0596
     45 H10         7.0658   -1.6849    2.2163 H         1 <0>         0.0628
     46 H11         6.0693   -2.6907   -0.7982 H         1 <0>         0.1306
     47 H12         5.8033   -3.2907   -3.1715 H         1 <0>         0.1216
     48 H13         9.7716   -1.9402   -3.9577 H         1 <0>         0.1174
     49 H14        10.0346   -1.3325   -1.5861 H         1 <0>         0.1245
     50 H15         6.4142   -1.2698   -5.5507 H         1 <0>         0.0854
     51 H16         8.1405   -1.0838   -5.9427 H         1 <0>         0.0792
     52 H17         7.8757   -2.6466   -7.8496 H         1 <0>         0.0944
     53 H18         6.1495   -2.8326   -7.4575 H         1 <0>         0.0876
     54 H19         5.8068   -0.4027   -7.8138 H         1 <0>         0.1286
     55 H20         7.5331   -0.2168   -8.2059 H         1 <0>         0.1305
     56 H21         5.3183   -2.9669   -9.0404 H         1 <0>         0.1340
     57 H22         4.3402   -1.5105   -9.3380 H         1 <0>         0.1290
     58 H23         5.7972   -3.1412  -11.4679 H         1 <0>         0.0892
     59 H24         4.0437   -3.1667  -11.1587 H         1 <0>         0.1172
     60 H25         3.8873   -0.7703  -11.7068 H         1 <0>         0.1001
     61 H26         6.8827   -0.9794  -12.2637 H         1 <0>         0.0972
     62 H27         5.8672    0.4650  -12.4955 H         1 <0>         0.1151
     63 H28         5.3424    0.4854  -10.0727 H         1 <0>         0.1274
     64 H29         7.0983    0.5781  -10.3452 H         1 <0>         0.1315
     65 H30         2.0983   -1.3047  -12.5739 H         1 <0>         0.1196
     66 H31         0.1243   -2.7651  -12.7569 H         1 <0>         0.1258
     67 H32         0.3103   -4.9527  -13.8717 H         1 <0>         0.1266
     68 H33         2.4702   -5.6796  -14.8043 H         1 <0>         0.1272
     69 H34         4.4423   -4.2156  -14.6286 H         1 <0>         0.1294
     70 H35         2.8524    0.2553  -13.1544 H         1 <0>         0.1188
     71 H36         2.5499    2.2287  -14.5958 H         1 <0>         0.1260
     72 H37         3.9438    2.5103  -16.6060 H         1 <0>         0.1261
     73 H38         5.6408    0.8189  -17.1743 H         1 <0>         0.1265
     74 H39         5.9489   -1.1502  -15.7284 H         1 <0>         0.1327
     75 H40         5.9458   -3.2889  -13.3624 H         1 <0>         0.3777
     76 H41         9.5897   -3.0199   -5.5826 H         1 <0>         0.3768
     77 H42         7.1840   -1.7972   -9.9974 H         1 <0>         0.4229
@<TRIPOS>BOND
     1    1    2 1
     2    1   37 1
     3    1   38 1
     4    1   39 1
     5    2    3 1
     6    2    4 1
     7    2    5 1
     8    3   40 1
     9    3   41 1
    10    3   42 1
    11    4   43 1
    12    4   44 1
    13    4   45 1
    14    5   10 ar
    15    5    6 ar
    16    6    7 ar
    17    6   46 1
    18    7    8 ar
    19    7   47 1
    20    8    9 ar
    21    8   11 1
    22    9   10 ar
    23    9   48 1
    24   10   49 1
    25   11   12 1
    26   11   13 1
    27   11   36 1
    28   13   14 1
    29   13   50 1
    30   13   51 1
    31   14   15 1
    32   14   52 1
    33   14   53 1
    34   15   16 1
    35   15   54 1
    36   15   55 1
    37   16   21 1
    38   16   17 1
    39   16   77 1
    40   17   18 1
    41   17   56 1
    42   17   57 1
    43   18   19 1
    44   18   58 1
    45   18   59 1
    46   19   20 1
    47   19   22 1
    48   19   60 1
    49   20   21 1
    50   20   61 1
    51   20   62 1
    52   21   63 1
    53   21   64 1
    54   22   23 1
    55   22   29 1
    56   22   35 1
    57   23   28 ar
    58   23   24 ar
    59   24   25 ar
    60   24   65 1
    61   25   26 ar
    62   25   66 1
    63   26   27 ar
    64   26   67 1
    65   27   28 ar
    66   27   68 1
    67   28   69 1
    68   29   34 ar
    69   29   30 ar
    70   30   31 ar
    71   30   70 1
    72   31   32 ar
    73   31   71 1
    74   32   33 ar
    75   32   72 1
    76   33   34 ar
    77   33   73 1
    78   34   74 1
    79   35   75 1
    80   36   76 1
@<TRIPOS>MOLECULE
ZINC03775140
   62    64     0     0     0
SMALL
USER_CHARGES

@<TRIPOS>ATOM
      1 C1         -0.0173    1.4248    0.0099 C.3       1 <0>         0.0171
      2 O1          0.0021   -0.0041    0.0020 O.3       1 <0>        -0.2760
      3 C2          0.6048   -0.6061   -1.0540 C.ar      1 <0>         0.2490
      4 C3          1.1714    0.1577   -2.0595 C.ar      1 <0>        -0.2968
      5 C4          1.7875   -0.4643   -3.1379 C.ar      1 <0>         0.3045
      6 C5          1.8368   -1.8562   -3.2112 C.ar      1 <0>        -0.1599
      7 C6          1.2804   -2.6188   -2.2247 C.ar      1 <0>         0.0104
      8 C7          0.6619   -2.0064   -1.1291 C.ar      1 <0>        -0.2378
      9 C8          0.0677   -2.8282   -0.0619 C.2       1 <0>         0.5777
     10 O2         -0.4739   -2.2937    0.8871 O.2       1 <0>        -0.5075
     11 N1          0.1238   -4.1727   -0.1363 N.am      1 <0>        -0.7330
     12 C9         -0.4675   -4.9905    0.9257 C.3       1 <0>         0.1404
     13 H1         -1.3642   -4.5012    1.3060 H         1 <0>         0.1248
     14 C10         0.5437   -5.1622    2.0629 C.3       1 <0>        -0.1546
     15 C11         1.7671   -5.9184    1.5404 C.3       1 <0>        -0.0167
     16 N2          1.3566   -7.2378    1.0453 N.4       1 <0>        -0.3759
     17 C12         0.4423   -7.0806   -0.0921 C.3       1 <0>        -0.0388
     18 C13        -0.8339   -6.3685    0.3670 C.3       1 <0>         0.0659
     19 H2         -1.3203   -6.9585    1.1438 H         1 <0>         0.1015
     20 O3         -1.7219   -6.2131   -0.7418 O.3       1 <0>        -0.3502
     21 C14        -2.6322   -7.3011   -0.9143 C.3       1 <0>         0.0179
     22 C15         2.5438   -7.9895    0.6171 C.3       1 <0>        -0.0062
     23 C16         3.4343   -8.2703    1.8292 C.3       1 <0>        -0.1507
     24 C17         4.6708   -9.0533    1.3832 C.3       1 <0>         0.0614
     25 O4          5.5024   -9.3155    2.5152 O.3       1 <0>        -0.3099
     26 C18         6.6507  -10.0076    2.2904 C.ar      1 <0>         0.1104
     27 C19         6.9722  -10.4203    1.0058 C.ar      1 <0>        -0.1786
     28 C20         8.1394  -11.1237    0.7787 C.ar      1 <0>        -0.1136
     29 C21         8.9878  -11.4170    1.8328 C.ar      1 <0>         0.0730
     30 C22         8.6679  -11.0061    3.1156 C.ar      1 <0>        -0.1109
     31 C23         7.5046  -10.2969    3.3445 C.ar      1 <0>        -0.1156
     32 F1         10.1287  -12.1053    1.6094 F         1 <0>        -0.1339
     33 Cl1         2.6089   -2.6229   -4.5639 Cl        1 <0>        -0.0623
     34 N3          2.3569    0.3038   -4.1485 N.pl3     1 <0>        -0.8495
     35 H3          1.0053    1.8021    0.0021 H         1 <0>         0.0609
     36 H4         -0.5445    1.7859   -0.8732 H         1 <0>         0.0614
     37 H5         -0.5275    1.7763    0.9067 H         1 <0>         0.1085
     38 H6          1.1342    1.2357   -2.0059 H         1 <0>         0.1464
     39 H7          1.3215   -3.6961   -2.2880 H         1 <0>         0.1333
     40 H8          0.5557   -4.5989   -0.8931 H         1 <0>         0.3942
     41 H9          0.8503   -4.1821    2.4284 H         1 <0>         0.1283
     42 H10         0.0859   -5.7273    2.8748 H         1 <0>         0.1026
     43 H11         2.2242   -5.3523    0.7288 H         1 <0>         0.1317
     44 H12         2.4891   -6.0421    2.3475 H         1 <0>         0.1399
     45 H13         0.9276   -6.4898   -0.8690 H         1 <0>         0.1341
     46 H14         0.1862   -8.0624   -0.4903 H         1 <0>         0.1380
     47 H15        -2.0715   -8.2215   -1.0778 H         1 <0>         0.0481
     48 H16        -3.2481   -7.4047   -0.0210 H         1 <0>         0.0566
     49 H17        -3.2712   -7.1071   -1.7758 H         1 <0>         0.1042
     50 H18         2.2339   -8.9329    0.1676 H         1 <0>         0.1368
     51 H19         3.1003   -7.4039   -0.1147 H         1 <0>         0.1356
     52 H20         3.7442   -7.3269    2.2786 H         1 <0>         0.1012
     53 H21         2.8778   -8.8559    2.5610 H         1 <0>         0.1013
     54 H22         4.3608   -9.9967    0.9337 H         1 <0>         0.0740
     55 H23         5.2272   -8.4676    0.6514 H         1 <0>         0.0740
     56 H24         6.3103  -10.1922    0.1835 H         1 <0>         0.1353
     57 H25         8.3900  -11.4451   -0.2214 H         1 <0>         0.1422
     58 H26         9.3304  -11.2359    3.9370 H         1 <0>         0.1482
     59 H27         7.2577   -9.9722    4.3445 H         1 <0>         0.1439
     60 H28         2.3233    1.2719   -4.0992 H         1 <0>         0.4097
     61 H29         2.7876   -0.1289   -4.9023 H         1 <0>         0.4089
     62 H30         0.8896   -7.7426    1.7837 H         1 <0>         0.4252
@<TRIPOS>BOND
     1    1    2 1
     2    1   35 1
     3    1   36 1
     4    1   37 1
     5    2    3 1
     6    3    8 ar
     7    3    4 ar
     8    4    5 ar
     9    4   38 1
    10    5    6 ar
    11    5   34 1
    12    6    7 ar
    13    6   33 1
    14    7    8 ar
    15    7   39 1
    16    8    9 1
    17    9   10 2
    18    9   11 am
    19   11   12 1
    20   11   40 1
    21   12   13 1
    22   12   18 1
    23   12   14 1
    24   14   15 1
    25   14   41 1
    26   14   42 1
    27   15   16 1
    28   15   43 1
    29   15   44 1
    30   16   17 1
    31   16   22 1
    32   16   62 1
    33   17   18 1
    34   17   45 1
    35   17   46 1
    36   18   19 1
    37   18   20 1
    38   20   21 1
    39   21   47 1
    40   21   48 1
    41   21   49 1
    42   22   23 1
    43   22   50 1
    44   22   51 1
    45   23   24 1
    46   23   52 1
    47   23   53 1
    48   24   25 1
    49   24   54 1
    50   24   55 1
    51   25   26 1
    52   26   31 ar
    53   26   27 ar
    54   27   28 ar
    55   27   56 1
    56   28   29 ar
    57   28   57 1
    58   29   30 ar
    59   29   32 1
    60   30   31 ar
    61   30   58 1
    62   31   59 1
    63   34   60 1
    64   34   61 1
@<TRIPOS>MOLECULE
ZINC03830564
   62    64     0     0     0
SMALL
USER_CHARGES

@<TRIPOS>ATOM
      1 C1         -0.0173    1.4248    0.0099 C.3       1 <0>         0.0173
      2 O1          0.0021   -0.0041    0.0020 O.3       1 <0>        -0.2768
      3 C2          0.6048   -0.6061   -1.0540 C.ar      1 <0>         0.2482
      4 C3          1.1714    0.1577   -2.0595 C.ar      1 <0>        -0.2974
      5 C4          1.7875   -0.4643   -3.1379 C.ar      1 <0>         0.3044
      6 C5          1.8368   -1.8562   -3.2112 C.ar      1 <0>        -0.1594
      7 C6          1.2804   -2.6188   -2.2247 C.ar      1 <0>         0.0124
      8 C7          0.6619   -2.0064   -1.1291 C.ar      1 <0>        -0.2376
      9 C8          0.0677   -2.8282   -0.0619 C.2       1 <0>         0.5803
     10 O2         -0.4739   -2.2937    0.8871 O.2       1 <0>        -0.5144
     11 N1          0.1238   -4.1727   -0.1363 N.am      1 <0>        -0.7279
     12 C9         -0.4675   -4.9905    0.9257 C.3       1 <0>         0.1426
     13 H1         -0.3382   -4.4904    1.8855 H         1 <0>         0.1147
     14 C10        -1.9606   -5.1884    0.6484 C.3       1 <0>        -0.1574
     15 C11        -2.5547   -6.1082    1.7173 C.3       1 <0>        -0.0121
     16 N2         -1.8729   -7.4076    1.6837 N.4       1 <0>        -0.3780
     17 C12        -0.4544   -7.2346    2.0193 C.3       1 <0>        -0.0308
     18 C13         0.2219   -6.3574    0.9634 C.3       1 <0>         0.0634
     19 H2          0.1375   -6.8346   -0.0130 H         1 <0>         0.0897
     20 O3          1.6015   -6.1871    1.2946 O.3       1 <0>        -0.3498
     21 C14         2.4612   -7.1803    0.7321 C.3       1 <0>         0.0175
     22 C15        -2.4981   -8.3123    2.6576 C.3       1 <0>        -0.0056
     23 C16        -3.9400   -8.5999    2.2341 C.3       1 <0>        -0.1510
     24 C17        -4.5912   -9.5422    3.2484 C.3       1 <0>         0.0612
     25 O4         -5.9378   -9.8107    2.8528 O.3       1 <0>        -0.3101
     26 C18        -6.6627  -10.6375    3.6523 C.ar      1 <0>         0.1103
     27 C19        -6.0908  -11.1740    4.7964 C.ar      1 <0>        -0.1786
     28 C20        -6.8286  -12.0140    5.6079 C.ar      1 <0>        -0.1136
     29 C21        -8.1381  -12.3209    5.2793 C.ar      1 <0>         0.0729
     30 C22        -8.7100  -11.7865    4.1373 C.ar      1 <0>        -0.1110
     31 C23        -7.9767  -10.9409    3.3276 C.ar      1 <0>        -0.1157
     32 F1         -8.8583  -13.1429    6.0736 F         1 <0>        -0.1339
     33 Cl1         2.6089   -2.6229   -4.5639 Cl        1 <0>        -0.0612
     34 N3          2.3569    0.3038   -4.1485 N.pl3     1 <0>        -0.8498
     35 H3          1.0053    1.8021    0.0021 H         1 <0>         0.0610
     36 H4         -0.5445    1.7859   -0.8732 H         1 <0>         0.0608
     37 H5         -0.5275    1.7763    0.9067 H         1 <0>         0.1075
     38 H6          1.1342    1.2357   -2.0059 H         1 <0>         0.1460
     39 H7          1.3215   -3.6961   -2.2880 H         1 <0>         0.1366
     40 H8          0.5557   -4.5989   -0.8931 H         1 <0>         0.4011
     41 H9         -2.4669   -4.2235    0.6762 H         1 <0>         0.1280
     42 H10        -2.0914   -5.6407   -0.3346 H         1 <0>         0.0936
     43 H11        -2.4236   -5.6548    2.6998 H         1 <0>         0.1373
     44 H12        -3.6177   -6.2510    1.5230 H         1 <0>         0.1408
     45 H13        -0.3681   -6.7573    2.9954 H         1 <0>         0.1434
     46 H14         0.0331   -8.2090    2.0480 H         1 <0>         0.1370
     47 H15         2.1631   -8.1650    1.0923 H         1 <0>         0.0484
     48 H16         2.3857   -7.1529   -0.3549 H         1 <0>         0.0550
     49 H17         3.4905   -6.9808    1.0300 H         1 <0>         0.1046
     50 H18        -1.9380   -9.2465    2.6975 H         1 <0>         0.1365
     51 H19        -2.4951   -7.8445    3.6421 H         1 <0>         0.1371
     52 H20        -4.5001   -7.6657    2.1942 H         1 <0>         0.1015
     53 H21        -3.9430   -9.0676    1.2495 H         1 <0>         0.1005
     54 H22        -4.0310  -10.4764    3.2882 H         1 <0>         0.0740
     55 H23        -4.5881   -9.0744    4.2329 H         1 <0>         0.0745
     56 H24        -5.0691  -10.9353    5.0526 H         1 <0>         0.1356
     57 H25        -6.3836  -12.4318    6.4989 H         1 <0>         0.1423
     58 H26        -9.7315  -12.0270    3.8820 H         1 <0>         0.1482
     59 H27        -8.4246  -10.5203    2.4394 H         1 <0>         0.1438
     60 H28         2.3233    1.2719   -4.0992 H         1 <0>         0.4092
     61 H29         2.7876   -0.1289   -4.9023 H         1 <0>         0.4089
     62 H30        -1.9528   -7.8044    0.7595 H         1 <0>         0.4239
@<TRIPOS>BOND
     1    1    2 1
     2    1   35 1
     3    1   36 1
     4    1   37 1
     5    2    3 1
     6    3    8 ar
     7    3    4 ar
     8    4    5 ar
     9    4   38 1
    10    5    6 ar
    11    5   34 1
    12    6    7 ar
    13    6   33 1
    14    7    8 ar
    15    7   39 1
    16    8    9 1
    17    9   10 2
    18    9   11 am
    19   11   12 1
    20   11   40 1
    21   12   13 1
    22   12   18 1
    23   12   14 1
    24   14   15 1
    25   14   41 1
    26   14   42 1
    27   15   16 1
    28   15   43 1
    29   15   44 1
    30   16   17 1
    31   16   22 1
    32   16   62 1
    33   17   18 1
    34   17   45 1
    35   17   46 1
    36   18   19 1
    37   18   20 1
    38   20   21 1
    39   21   47 1
    40   21   48 1
    41   21   49 1
    42   22   23 1
    43   22   50 1
    44   22   51 1
    45   23   24 1
    46   23   52 1
    47   23   53 1
    48   24   25 1
    49   24   54 1
    50   24   55 1
    51   25   26 1
    52   26   31 ar
    53   26   27 ar
    54   27   28 ar
    55   27   56 1
    56   28   29 ar
    57   28   57 1
    58   29   30 ar
    59   29   32 1
    60   30   31 ar
    61   30   58 1
    62   31   59 1
    63   34   60 1
    64   34   61 1
@<TRIPOS>MOLECULE
ZINC03949424
   73    76     0     0     0
SMALL
USER_CHARGES

@<TRIPOS>ATOM
      1 C1         -0.0663    1.4819   -0.0222 C.3       1 <0>        -0.1665
      2 C2         -0.0295   -0.0476   -0.0295 C.3       1 <0>         0.1715
      3 C3          0.7069   -0.5460    1.2156 C.3       1 <0>        -0.1560
      4 C4         -1.4594   -0.5921   -0.0285 C.3       1 <0>        -0.1576
      5 N1          0.6696   -0.5136   -1.2296 N.am      1 <0>        -0.7124
      6 C5          1.9512   -0.1561   -1.4444 C.2       1 <0>         0.5117
      7 O1          2.5257    0.5514   -0.6442 O.2       1 <0>        -0.5198
      8 C6          2.6704   -0.6354   -2.6789 C.3       1 <0>         0.1207
      9 H1          1.9938   -0.6014   -3.5328 H         1 <0>         0.1478
     10 C7          3.1574   -2.0739   -2.4651 C.3       1 <0>         0.1175
     11 N2          4.2533   -2.0580   -1.4860 N.pl3     1 <0>        -0.5629
     12 C8          5.4192   -1.2007   -1.7417 C.3       1 <0>         0.0877
     13 C9          4.9322    0.2378   -1.9556 C.3       1 <0>         0.0924
     14 N3          3.8339    0.2245   -2.9371 N.am      1 <0>        -0.5813
     15 C10         3.8943    0.9808   -4.0510 C.2       1 <0>         0.6584
     16 O2          2.9815    0.9556   -4.8526 O.2       1 <0>        -0.5552
     17 O3          4.9660    1.7642   -4.2755 O.3       1 <0>        -0.3524
     18 C11         4.9631    2.5390   -5.4762 C.3       1 <0>         0.1289
     19 C12         6.2329    3.3467   -5.5559 C.ar      1 <0>        -0.1060
     20 C13         6.2815    4.6141   -5.0060 C.ar      1 <0>        -0.0923
     21 C14         7.4462    5.3550   -5.0791 C.ar      1 <0>        -0.1215
     22 C15         8.5625    4.8284   -5.7017 C.ar      1 <0>        -0.1030
     23 C16         8.5141    3.5607   -6.2507 C.ar      1 <0>        -0.1226
     24 C17         7.3507    2.8181   -6.1739 C.ar      1 <0>        -0.0935
     25 C18         4.1886   -2.8368   -0.3438 C.ar      1 <0>         0.6847
     26 N4          5.2385   -2.8774    0.4540 N.ar      1 <0>        -0.5820
     27 C19         5.2146   -3.6215    1.5710 C.ar      1 <0>         0.2225
     28 C20         6.3124   -3.6852    2.4381 C.ar      1 <0>        -0.2297
     29 C21         6.2376   -4.4635    3.5721 C.ar      1 <0>         0.2176
     30 C22         5.0759   -5.1909    3.8654 C.ar      1 <0>         0.1145
     31 C23         3.9938   -5.1430    3.0337 C.ar      1 <0>        -0.1167
     32 C24         4.0438   -4.3588    1.8743 C.ar      1 <0>        -0.1900
     33 C25         2.9486   -4.2759    0.9810 C.ar      1 <0>         0.5620
     34 N5          3.0689   -3.5091   -0.0933 N.ar      1 <0>        -0.5918
     35 N6          1.7831   -4.9721    1.2254 N.pl3     1 <0>        -0.7735
     36 O4          5.0259   -5.9533    4.9908 O.3       1 <0>        -0.2899
     37 C26         3.8146   -6.6711    5.2349 C.3       1 <0>         0.0159
     38 O5          7.3011   -4.5272    4.4149 O.3       1 <0>        -0.2781
     39 C27         8.4560   -3.7637    4.0608 C.3       1 <0>         0.0123
     40 H2          0.9524    1.8698   -0.0229 H         1 <0>         0.0759
     41 H3         -0.5909    1.8370   -0.9092 H         1 <0>         0.0577
     42 H4         -0.5864    1.8286    0.8708 H         1 <0>         0.0669
     43 H5          0.1867   -0.1994    2.1085 H         1 <0>         0.0656
     44 H6          0.7330   -1.6357    1.2104 H         1 <0>         0.0485
     45 H7          1.7255   -0.1581    1.2149 H         1 <0>         0.0713
     46 H8         -1.9840   -0.2370   -0.9155 H         1 <0>         0.0668
     47 H9         -1.4332   -1.6818   -0.0337 H         1 <0>         0.0621
     48 H10        -1.9795   -0.2454    0.8645 H         1 <0>         0.0774
     49 H11         0.2101   -1.0794   -1.8696 H         1 <0>         0.4023
     50 H12         2.3379   -2.6852   -2.0870 H         1 <0>         0.1316
     51 H13         3.5165   -2.4828   -3.4095 H         1 <0>         0.1120
     52 H14         6.0934   -1.2352   -0.8859 H         1 <0>         0.0940
     53 H15         5.9394   -1.5474   -2.6346 H         1 <0>         0.1105
     54 H16         4.5731    0.6467   -1.0111 H         1 <0>         0.1104
     55 H17         5.7517    0.8491   -2.3336 H         1 <0>         0.1203
     56 H18         4.9009    1.8740   -6.3376 H         1 <0>         0.0818
     57 H19         4.1048    3.2108   -5.4731 H         1 <0>         0.0812
     58 H20         5.4094    5.0255   -4.5196 H         1 <0>         0.1246
     59 H21         7.4840    6.3454   -4.6501 H         1 <0>         0.1281
     60 H22         9.4722    5.4076   -5.7594 H         1 <0>         0.1274
     61 H23         9.3861    3.1494   -6.7374 H         1 <0>         0.1277
     62 H24         7.3141    1.8262   -6.5996 H         1 <0>         0.1242
     63 H25         7.2115   -3.1285    2.2190 H         1 <0>         0.1676
     64 H26         3.1036   -5.7075    3.2687 H         1 <0>         0.1584
     65 H27         1.7066   -5.5270    2.0173 H         1 <0>         0.4285
     66 H28         1.0400   -4.9066    0.6054 H         1 <0>         0.4298
     67 H29         2.9864   -5.9676    5.3207 H         1 <0>         0.0634
     68 H30         3.6254   -7.3561    4.4084 H         1 <0>         0.0635
     69 H31         3.9081   -7.2370    6.1618 H         1 <0>         0.1173
     70 H32         8.8293   -4.0973    3.0926 H         1 <0>         0.0685
     71 H33         8.1903   -2.7081    4.0037 H         1 <0>         0.0687
     72 H34         9.2295   -3.9034    4.8161 H         1 <0>         0.1204
     73 H35         6.0326   -2.3666    0.2319 H         1 <0>         0.4346
@<TRIPOS>BOND
     1    1    2 1
     2    1   40 1
     3    1   41 1
     4    1   42 1
     5    2    3 1
     6    2    4 1
     7    2    5 1
     8    3   43 1
     9    3   44 1
    10    3   45 1
    11    4   46 1
    12    4   47 1
    13    4   48 1
    14    5    6 am
    15    5   49 1
    16    6    7 2
    17    6    8 1
    18    8    9 1
    19    8   14 1
    20    8   10 1
    21   10   11 1
    22   10   50 1
    23   10   51 1
    24   11   12 1
    25   11   25 1
    26   12   13 1
    27   12   52 1
    28   12   53 1
    29   13   14 1
    30   13   54 1
    31   13   55 1
    32   14   15 am
    33   15   16 2
    34   15   17 1
    35   17   18 1
    36   18   19 1
    37   18   56 1
    38   18   57 1
    39   19   24 ar
    40   19   20 ar
    41   20   21 ar
    42   20   58 1
    43   21   22 ar
    44   21   59 1
    45   22   23 ar
    46   22   60 1
    47   23   24 ar
    48   23   61 1
    49   24   62 1
    50   25   34 ar
    51   25   26 ar
    52   26   27 ar
    53   26   73 1
    54   27   32 ar
    55   27   28 ar
    56   28   29 ar
    57   28   63 1
    58   29   30 ar
    59   29   38 1
    60   30   31 ar
    61   30   36 1
    62   31   32 ar
    63   31   64 1
    64   32   33 ar
    65   33   34 ar
    66   33   35 1
    67   35   65 1
    68   35   66 1
    69   36   37 1
    70   37   67 1
    71   37   68 1
    72   37   69 1
    73   38   39 1
    74   39   70 1
    75   39   71 1
    76   39   72 1
@<TRIPOS>MOLECULE
ZINC03825965
   61    64     0     0     0
SMALL
USER_CHARGES
2-[4-[4-(7-methoxy-1-naphthyl)piperazin-1-yl]butyl]-4-methyl-1,2,4-triazine-3,5-dione
@<TRIPOS>ATOM
      1 C1         -2.0231    1.8137    0.6582 C.3       1 <0>         0.0742
      2 N1         -0.7874    2.5524    0.3867 N.am      1 <0>        -0.5564
      3 C2         -0.8326    3.8813    0.1583 C.2       1 <0>         0.5084
      4 O1         -1.8956    4.4738    0.1762 O.2       1 <0>        -0.4669
      5 C3          0.4140    4.6017   -0.1163 C.2       1 <0>         0.0634
      6 N2          1.5380    3.9407   -0.1287 N.2       1 <0>        -0.1777
      7 N3          1.5393    2.5628    0.1185 N.am      1 <0>        -0.4527
      8 C4          0.3932    1.9057    0.3704 C.2       1 <0>         0.6789
      9 O2          0.4233    0.7087    0.5818 O.2       1 <0>        -0.5327
     10 C5          2.8060    1.8269    0.1029 C.3       1 <0>         0.1443
     11 C6          3.0823    1.3171   -1.3129 C.3       1 <0>        -0.1367
     12 C7          4.4051    0.5485   -1.3292 C.3       1 <0>        -0.1456
     13 C8          4.6814    0.0387   -2.7450 C.3       1 <0>        -0.0029
     14 C9          7.0843    0.1963   -2.4877 C.3       1 <0>        -0.0008
     15 C10         8.3766   -0.6219   -2.4340 C.3       1 <0>         0.0217
     16 N4          8.5611   -1.3257   -3.7108 N.pl3     1 <0>        -0.4829
     17 C11         7.4284   -2.2213   -3.9837 C.3       1 <0>         0.0173
     18 C12         6.1361   -1.4030   -4.0374 C.3       1 <0>         0.0026
     19 C13         9.7664   -2.0260   -3.7256 C.ar      1 <0>         0.0812
     20 C14        10.4947   -2.1813   -2.5657 C.ar      1 <0>        -0.1408
     21 C15        11.6964   -2.8835   -2.5687 C.ar      1 <0>        -0.1158
     22 C16        12.1912   -3.4252   -3.7158 C.ar      1 <0>        -0.0881
     23 C17        11.4824   -3.2847   -4.9213 C.ar      1 <0>        -0.0708
     24 C18        10.2549   -2.5774   -4.9297 C.ar      1 <0>        -0.0049
     25 C19         9.5469   -2.4379   -6.1332 C.ar      1 <0>        -0.1649
     26 C20        10.0499   -2.9838   -7.2801 C.ar      1 <0>         0.1412
     27 C21        11.2610   -3.6818   -7.2702 C.ar      1 <0>        -0.1852
     28 C22        11.9704   -3.8345   -6.1198 C.ar      1 <0>        -0.0583
     29 O3          9.3633   -2.8476   -8.4452 O.3       1 <0>        -0.3171
     30 C23         9.9390   -3.4413   -9.6106 C.3       1 <0>         0.0231
     31 H1         -2.2167    1.8112    1.7308 H         1 <0>         0.0809
     32 H2         -2.8540    2.2926    0.1401 H         1 <0>         0.0986
     33 H3         -1.9180    0.7877    0.3055 H         1 <0>         0.0965
     34 H4          0.4017    5.6648   -0.3060 H         1 <0>         0.2278
     35 H5          3.6143    2.4882    0.4152 H         1 <0>         0.1043
     36 H6          2.7433    0.9812    0.7878 H         1 <0>         0.1061
     37 H7          2.2740    0.6558   -1.6252 H         1 <0>         0.0811
     38 H8          3.1449    2.1627   -1.9978 H         1 <0>         0.0840
     39 H9          5.2134    1.2098   -1.0169 H         1 <0>         0.0927
     40 H10         4.3425   -0.2971   -0.6443 H         1 <0>         0.0923
     41 H11         3.8731   -0.6226   -3.0573 H         1 <0>         0.1313
     42 H12         4.7441    0.8843   -3.4299 H         1 <0>         0.1342
     43 H13         7.1581    0.9411   -3.2801 H         1 <0>         0.1413
     44 H14         6.9304    0.6962   -1.5314 H         1 <0>         0.1384
     45 H15         8.3135   -1.3486   -1.6240 H         1 <0>         0.0709
     46 H16         9.2218    0.0441   -2.2604 H         1 <0>         0.1291
     47 H17         7.3545   -2.9661   -3.1914 H         1 <0>         0.0693
     48 H18         7.5822   -2.7212   -4.9400 H         1 <0>         0.1333
     49 H19         5.2909   -2.0691   -4.2110 H         1 <0>         0.1378
     50 H20         6.1987   -0.6764   -4.8475 H         1 <0>         0.1413
     51 H21        10.1265   -1.7571   -1.6432 H         1 <0>         0.1270
     52 H22        12.2479   -2.9965   -1.6471 H         1 <0>         0.1296
     53 H23        13.1276   -3.9630   -3.6992 H         1 <0>         0.1330
     54 H24         8.6099   -1.9012   -6.1528 H         1 <0>         0.1365
     55 H25        11.6388   -4.1055   -8.1890 H         1 <0>         0.1364
     56 H26        12.9046   -4.3763   -6.1269 H         1 <0>         0.1387
     57 H27         9.2919   -3.2592  -10.4686 H         1 <0>         0.1058
     58 H28        10.9195   -3.0024   -9.7954 H         1 <0>         0.0600
     59 H29        10.0448   -4.5152   -9.4568 H         1 <0>         0.0595
     60 N5          5.9513   -0.7185   -2.7404 N.4       1 <0>        -0.3980
     61 H30         5.9174   -1.4221   -1.9934 H         1 <0>         0.4253
@<TRIPOS>BOND
     1    1    2 1
     2    1   31 1
     3    1   32 1
     4    1   33 1
     5    2    8 am
     6    2    3 am
     7    3    4 2
     8    3    5 1
     9    5    6 2
    10    5   34 1
    11    6    7 1
    12    7    8 am
    13    7   10 1
    14    8    9 2
    15   10   11 1
    16   10   35 1
    17   10   36 1
    18   11   12 1
    19   11   37 1
    20   11   38 1
    21   12   13 1
    22   12   39 1
    23   12   40 1
    24   13   41 1
    25   13   42 1
    26   13   60 1
    27   14   15 1
    28   14   43 1
    29   14   44 1
    30   14   60 1
    31   15   16 1
    32   15   45 1
    33   15   46 1
    34   16   17 1
    35   16   19 1
    36   17   18 1
    37   17   47 1
    38   17   48 1
    39   18   49 1
    40   18   50 1
    41   18   60 1
    42   19   24 ar
    43   19   20 ar
    44   20   21 ar
    45   20   51 1
    46   21   22 ar
    47   21   52 1
    48   22   23 ar
    49   22   53 1
    50   23   28 ar
    51   23   24 ar
    52   24   25 ar
    53   25   26 ar
    54   25   54 1
    55   26   27 ar
    56   26   29 1
    57   27   28 ar
    58   27   55 1
    59   28   56 1
    60   29   30 1
    61   30   57 1
    62   30   58 1
    63   30   59 1
    64   60   61 1
@<TRIPOS>MOLECULE
ZINC00601304
   50    53     0     0     0
SMALL
USER_CHARGES

@<TRIPOS>ATOM
      1 C1         -0.0848    1.4532   -0.3643 C.3       1 <0>         0.0157
      2 O1         -0.0673    0.0248   -0.4029 O.3       1 <0>        -0.2899
      3 C2         -1.2697   -0.6091   -0.3507 C.ar      1 <0>         0.1141
      4 C3         -2.4181    0.1263   -0.2712 C.ar      1 <0>        -0.1159
      5 C4         -3.6565   -0.5247   -0.2178 C.ar      1 <0>        -0.1900
      6 C5         -3.7118   -1.9398   -0.2465 C.ar      1 <0>         0.2208
      7 C6         -2.5225   -2.6738   -0.3282 C.ar      1 <0>        -0.2298
      8 C7         -1.3169   -2.0092   -0.3848 C.ar      1 <0>         0.2171
      9 O2         -0.1616   -2.7187   -0.4697 O.3       1 <0>        -0.2781
     10 C8         -0.2756   -4.1428   -0.5007 C.3       1 <0>         0.0126
     11 N1         -4.9113   -2.5410   -0.1946 N.ar      1 <0>        -0.5852
     12 C9         -6.0151   -1.8231   -0.1184 C.ar      1 <0>         0.6808
     13 N2         -6.0075   -0.4933   -0.0894 N.ar      1 <0>        -0.5933
     14 C10        -4.8747    0.1928   -0.1354 C.ar      1 <0>         0.5614
     15 N3         -4.8820    1.5717   -0.1036 N.pl3     1 <0>        -0.7723
     16 N4         -7.2317   -2.4807   -0.0668 N.pl3     1 <0>        -0.5638
     17 C11        -7.2984   -3.9422   -0.2055 C.3       1 <0>         0.0875
     18 C12        -8.0309   -4.5172    1.0132 C.3       1 <0>         0.0811
     19 N5         -9.2792   -3.7665    1.2081 N.am      1 <0>        -0.6161
     20 C13        -9.2125   -2.3049    1.3468 C.3       1 <0>         0.0965
     21 C14        -8.4794   -1.7305    0.1337 C.3       1 <0>         0.1036
     22 C15       -10.4640   -4.4068    1.2583 C.2       1 <0>         0.6126
     23 O3        -11.4993   -3.7686    1.3005 O.2       1 <0>        -0.5007
     24 C16       -10.5057   -5.8728    1.2622 C.2       1 <0>        -0.0999
     25 C17       -11.6286   -6.6439    1.1675 C.2       1 <0>        -0.0980
     26 C18       -11.2046   -7.9813    1.2107 C.2       1 <0>        -0.2186
     27 C19        -9.8585   -7.9681    1.3284 C.2       1 <0>        -0.0023
     28 O4         -9.4406   -6.6959    1.3540 O.3       1 <0>        -0.1695
     29 H1          0.9367    1.8304   -0.4129 H         1 <0>         0.1175
     30 H2         -0.6531    1.8327   -1.2135 H         1 <0>         0.0636
     31 H3         -0.5513    1.7859    0.5629 H         1 <0>         0.0637
     32 H4         -2.3709    1.2050   -0.2492 H         1 <0>         0.1589
     33 H5         -2.5500   -3.7532   -0.3508 H         1 <0>         0.1674
     34 H6         -0.7651   -4.4880    0.4100 H         1 <0>         0.0684
     35 H7         -0.8669   -4.4412   -1.3664 H         1 <0>         0.0684
     36 H8          0.7180   -4.5855   -0.5693 H         1 <0>         0.1203
     37 H9         -4.0457    2.0621   -0.1379 H         1 <0>         0.4288
     38 H10        -5.7233    2.0512   -0.0471 H         1 <0>         0.4313
     39 H11        -7.8428   -4.1990   -1.1142 H         1 <0>         0.1106
     40 H12        -6.2893   -4.3517   -0.2526 H         1 <0>         0.0927
     41 H13        -8.2596   -5.5687    0.8400 H         1 <0>         0.1354
     42 H14        -7.4023   -4.4179    1.8982 H         1 <0>         0.0848
     43 H15       -10.2215   -1.8954    1.3938 H         1 <0>         0.1238
     44 H16        -8.6680   -2.0481    2.2555 H         1 <0>         0.0830
     45 H17        -8.2501   -0.6797    0.3105 H         1 <0>         0.1273
     46 H18        -9.1099   -1.8262   -0.7503 H         1 <0>         0.0981
     47 H19       -12.6459   -6.2927    1.0769 H         1 <0>         0.1643
     48 H20       -11.8356   -8.8563    1.1598 H         1 <0>         0.1626
     49 H21        -9.2239   -8.8399    1.3885 H         1 <0>         0.2151
     50 H22        -4.9664   -3.5093   -0.2136 H         1 <0>         0.4337
@<TRIPOS>BOND
     1    1    2 1
     2    1   29 1
     3    1   30 1
     4    1   31 1
     5    2    3 1
     6    3    8 ar
     7    3    4 ar
     8    4    5 ar
     9    4   32 1
    10    5   14 ar
    11    5    6 ar
    12    6    7 ar
    13    6   11 ar
    14    7    8 ar
    15    7   33 1
    16    8    9 1
    17    9   10 1
    18   10   34 1
    19   10   35 1
    20   10   36 1
    21   11   12 ar
    22   11   50 1
    23   12   13 ar
    24   12   16 1
    25   13   14 ar
    26   14   15 1
    27   15   37 1
    28   15   38 1
    29   16   21 1
    30   16   17 1
    31   17   18 1
    32   17   39 1
    33   17   40 1
    34   18   19 1
    35   18   41 1
    36   18   42 1
    37   19   20 1
    38   19   22 am
    39   20   21 1
    40   20   43 1
    41   20   44 1
    42   21   45 1
    43   21   46 1
    44   22   23 2
    45   22   24 1
    46   24   28 1
    47   24   25 2
    48   25   26 1
    49   25   47 1
    50   26   27 2
    51   26   48 1
    52   27   28 1
    53   27   49 1
@<TRIPOS>MOLECULE
ZINC20534273
   43    46     0     0     0
SMALL
USER_CHARGES
2-[[4-(4-chlorophenyl)piperazin-1-yl]methyl]imidazo[1,2-a]pyridine
@<TRIPOS>ATOM
      1 C1         -1.2403    1.7584    0.0175 C.2       1 <0>        -0.0215
      2 C2         -0.0126    1.0758    0.0080 C.2       1 <0>        -0.1135
      3 C3          1.1486    1.7634    0.0006 C.2       1 <0>         0.0831
      4 N1          1.1482    3.1282    0.0074 N.pl3     1 <0>        -0.3270
      5 C4          2.1557    4.0542    0.0023 C.2       1 <0>        -0.0298
      6 C5          1.5760    5.2745    0.0141 C.2       1 <0>         0.1041
      7 N2          0.2503    5.1168    0.0262 N.pl3     1 <0>        -0.5121
      8 C6         -0.0339    3.8221    0.0225 C.cat     1 <0>         0.3152
      9 C7         -1.2550    3.1185    0.0308 C.2       1 <0>        -0.1231
     10 C8          2.3045    6.5938    0.0137 C.3       1 <0>         0.1020
     11 N3          2.4215    7.0880   -1.3647 N.3       1 <0>        -0.5402
     12 C9          3.2888    6.2132   -2.1660 C.3       1 <0>         0.0471
     13 C10         3.3209    6.7162   -3.6112 C.3       1 <0>         0.0579
     14 N4          3.8100    8.1018   -3.6341 N.pl3     1 <0>        -0.4879
     15 C11         2.9427    8.9767   -2.8328 C.3       1 <0>         0.0479
     16 C12         2.9106    8.4736   -1.3876 C.3       1 <0>         0.0550
     17 C13         3.9214    8.5720   -4.9453 C.ar      1 <0>         0.1085
     18 C14         3.2491    9.7247   -5.3306 C.ar      1 <0>        -0.1566
     19 C15         3.3660   10.1906   -6.6255 C.ar      1 <0>        -0.0818
     20 C16         4.1420    9.5031   -7.5421 C.ar      1 <0>        -0.0557
     21 C17         4.8083    8.3512   -7.1625 C.ar      1 <0>        -0.0837
     22 C18         4.7000    7.8842   -5.8673 C.ar      1 <0>        -0.1262
     23 Cl1         4.2804   10.0872   -9.1710 Cl        1 <0>        -0.0636
     24 H1         -2.1682    1.2058    0.0189 H         1 <0>         0.1741
     25 H2          0.0021   -0.0041    0.0020 H         1 <0>         0.1825
     26 H3          2.0869    1.2287   -0.0113 H         1 <0>         0.1990
     27 H4          3.2158    3.8481   -0.0091 H         1 <0>         0.2210
     28 H5         -2.1929    3.6538    0.0422 H         1 <0>         0.1779
     29 H6          1.7441    7.3222    0.6181 H         1 <0>         0.1145
     30 H7          3.3089    6.4582    0.4411 H         1 <0>         0.0904
     31 H8          4.3069    6.2254   -1.7498 H         1 <0>         0.0591
     32 H9          2.8956    5.1861   -2.1429 H         1 <0>         0.0798
     33 H10         3.9921    6.0795   -4.2062 H         1 <0>         0.0935
     34 H11         2.3068    6.6772   -4.0356 H         1 <0>         0.0541
     35 H12         3.3361   10.0037   -2.8559 H         1 <0>         0.0981
     36 H13         1.9246    8.9646   -3.2490 H         1 <0>         0.0595
     37 H14         2.2391    9.1093   -0.7919 H         1 <0>         0.0946
     38 H15         3.9244    8.5117   -0.9625 H         1 <0>         0.0590
     39 H16         2.6392   10.2588   -4.6170 H         1 <0>         0.1358
     40 H17         2.8476   11.0897   -6.9242 H         1 <0>         0.1365
     41 H18         5.4138    7.8170   -7.8797 H         1 <0>         0.1379
     42 H19         5.2205    6.9854   -5.5715 H         1 <0>         0.1334
     43 H20        -0.4083    5.9978    0.0370 H         1 <0>         0.5014
@<TRIPOS>BOND
     1    1    9 2
     2    1    2 1
     3    1   24 1
     4    2    3 2
     5    2   25 1
     6    3    4 1
     7    3   26 1
     8    4    8 1
     9    4    5 1
    10    5    6 2
    11    5   27 1
    12    6    7 1
    13    6   10 1
    14    7    8 2
    15    7   43 1
    16    8    9 1
    17    9   28 1
    18   10   11 1
    19   10   29 1
    20   10   30 1
    21   11   16 1
    22   11   12 1
    23   12   13 1
    24   12   31 1
    25   12   32 1
    26   13   14 1
    27   13   33 1
    28   13   34 1
    29   14   15 1
    30   14   17 1
    31   15   16 1
    32   15   35 1
    33   15   36 1
    34   16   37 1
    35   16   38 1
    36   17   22 ar
    37   17   18 ar
    38   18   19 ar
    39   18   39 1
    40   19   20 ar
    41   19   40 1
    42   20   21 ar
    43   20   23 1
    44   21   22 ar
    45   21   41 1
    46   22   42 1
@<TRIPOS>MOLECULE
ZINC20534273
   42    45     0     0     0
SMALL
USER_CHARGES
2-[[4-(4-chlorophenyl)piperazin-1-yl]methyl]imidazo[1,2-a]pyridine
@<TRIPOS>ATOM
      1 C1         -1.2403    1.7584    0.0175 C.2       1 <0>        -0.1026
      2 C2         -0.0126    1.0758    0.0080 C.2       1 <0>        -0.1401
      3 C3          1.1486    1.7634    0.0006 C.2       1 <0>         0.0529
      4 N1          1.1482    3.1282    0.0074 N.pl3     1 <0>        -0.3610
      5 C4          2.1557    4.0542    0.0023 C.2       1 <0>        -0.0967
      6 C5          1.5760    5.2745    0.0141 C.2       1 <0>         0.0728
      7 N2          0.2503    5.1168    0.0262 N.2       1 <0>        -0.4736
      8 C6         -0.0339    3.8221    0.0225 C.2       1 <0>         0.2228
      9 C7         -1.2550    3.1185    0.0308 C.2       1 <0>        -0.0778
     10 C8          2.3045    6.5938    0.0137 C.3       1 <0>         0.1347
     11 N3          2.4215    7.0880   -1.3647 N.3       1 <0>        -0.5317
     12 C9          3.2888    6.2132   -2.1660 C.3       1 <0>         0.0530
     13 C10         3.3209    6.7162   -3.6112 C.3       1 <0>         0.0601
     14 N4          3.8100    8.1018   -3.6341 N.pl3     1 <0>        -0.4891
     15 C11         2.9427    8.9767   -2.8328 C.3       1 <0>         0.0500
     16 C12         2.9106    8.4736   -1.3876 C.3       1 <0>         0.0560
     17 C13         3.9214    8.5720   -4.9453 C.ar      1 <0>         0.1189
     18 C14         3.2491    9.7247   -5.3306 C.ar      1 <0>        -0.1590
     19 C15         3.3660   10.1906   -6.6255 C.ar      1 <0>        -0.0817
     20 C16         4.1420    9.5031   -7.5421 C.ar      1 <0>        -0.0618
     21 C17         4.8083    8.3512   -7.1625 C.ar      1 <0>        -0.0842
     22 C18         4.7000    7.8842   -5.8673 C.ar      1 <0>        -0.1294
     23 Cl1         4.2804   10.0872   -9.1710 Cl        1 <0>        -0.0730
     24 H1         -2.1682    1.2058    0.0189 H         1 <0>         0.1438
     25 H2          0.0021   -0.0041    0.0020 H         1 <0>         0.1517
     26 H3          2.0869    1.2287   -0.0113 H         1 <0>         0.1627
     27 H4          3.2158    3.8481   -0.0091 H         1 <0>         0.1794
     28 H5         -2.1929    3.6538    0.0422 H         1 <0>         0.1514
     29 H6          1.7441    7.3222    0.6181 H         1 <0>         0.0961
     30 H7          3.3089    6.4582    0.4411 H         1 <0>         0.0550
     31 H8          4.3069    6.2254   -1.7498 H         1 <0>         0.0464
     32 H9          2.8956    5.1861   -2.1429 H         1 <0>         0.0849
     33 H10         3.9921    6.0795   -4.2062 H         1 <0>         0.0874
     34 H11         2.3068    6.6772   -4.0356 H         1 <0>         0.0550
     35 H12         3.3361   10.0037   -2.8559 H         1 <0>         0.0908
     36 H13         1.9246    8.9646   -3.2490 H         1 <0>         0.0594
     37 H14         2.2391    9.1093   -0.7919 H         1 <0>         0.0896
     38 H15         3.9244    8.5117   -0.9625 H         1 <0>         0.0475
     39 H16         2.6392   10.2588   -4.6170 H         1 <0>         0.1369
     40 H17         2.8476   11.0897   -6.9242 H         1 <0>         0.1339
     41 H18         5.4138    7.8170   -7.8797 H         1 <0>         0.1350
     42 H19         5.2205    6.9854   -5.5715 H         1 <0>         0.1334
@<TRIPOS>BOND
     1    1    9 2
     2    1    2 1
     3    1   24 1
     4    2    3 2
     5    2   25 1
     6    3    4 1
     7    3   26 1
     8    4    8 1
     9    4    5 1
    10    5    6 2
    11    5   27 1
    12    6    7 1
    13    6   10 1
    14    7    8 2
    15    8    9 1
    16    9   28 1
    17   10   11 1
    18   10   29 1
    19   10   30 1
    20   11   16 1
    21   11   12 1
    22   12   13 1
    23   12   31 1
    24   12   32 1
    25   13   14 1
    26   13   33 1
    27   13   34 1
    28   14   15 1
    29   14   17 1
    30   15   16 1
    31   15   35 1
    32   15   36 1
    33   16   37 1
    34   16   38 1
    35   17   22 ar
    36   17   18 ar
    37   18   19 ar
    38   18   39 1
    39   19   20 ar
    40   19   40 1
    41   20   21 ar
    42   20   23 1
    43   21   22 ar
    44   21   41 1
    45   22   42 1
@<TRIPOS>MOLECULE
ZINC20668191
   47    50     0     0     0
SMALL
USER_CHARGES
2-[[4-(2-methoxyphenyl)piperazin-1-yl]methyl]imidazo[1,2-a]pyridine
@<TRIPOS>ATOM
      1 C1          5.0984   12.0164   -4.4692 C.3       1 <0>         0.0203
      2 O1          4.6646   10.6935   -4.1472 O.3       1 <0>        -0.3076
      3 C2          4.3516    9.8758   -5.1880 C.ar      1 <0>         0.1219
      4 C3          4.4601   10.3365   -6.4897 C.ar      1 <0>        -0.1888
      5 C4          4.1423    9.5037   -7.5469 C.ar      1 <0>        -0.0936
      6 C5          3.7159    8.2103   -7.3091 C.ar      1 <0>        -0.1339
      7 C6          3.6096    7.7413   -6.0132 C.ar      1 <0>        -0.1310
      8 C7          3.9215    8.5727   -4.9474 C.ar      1 <0>         0.0674
      9 N1          3.8100    8.1018   -3.6341 N.pl3     1 <0>        -0.4789
     10 C8          2.7458    8.8101   -2.9092 C.3       1 <0>         0.0585
     11 C9          2.7092    8.3235   -1.4586 C.3       1 <0>         0.0571
     12 N2          2.4809    6.8719   -1.4372 N.3       1 <0>        -0.5400
     13 C10         3.5451    6.1636   -2.1621 C.3       1 <0>         0.0493
     14 C11         3.5817    6.6502   -3.6127 C.3       1 <0>         0.0520
     15 C12         2.3638    6.3776   -0.0588 C.3       1 <0>         0.1013
     16 C13         1.8902    4.9471   -0.0766 C.2       1 <0>         0.1058
     17 C14         2.6823    3.8539   -0.0248 C.2       1 <0>        -0.0302
     18 N3          1.8629    2.7588   -0.0643 N.pl3     1 <0>        -0.3268
     19 C15         2.1130    1.4172   -0.0417 C.2       1 <0>         0.0833
     20 C16         1.0990    0.5282   -0.0940 C.2       1 <0>        -0.1140
     21 C17        -0.2306    0.9738   -0.1781 C.2       1 <0>        -0.0222
     22 C18        -0.4942    2.3081   -0.1951 C.2       1 <0>        -0.1229
     23 C19         0.5757    3.2239   -0.1403 C.cat     1 <0>         0.3145
     24 N4          0.6178    4.5488   -0.1463 N.pl3     1 <0>        -0.5120
     25 H1          5.3171   12.5664   -3.5420 H         1 <0>         0.1035
     26 H2          4.3053   12.5370   -5.0259 H         1 <0>         0.0566
     27 H3          6.0067   11.9641   -5.0875 H         1 <0>         0.0581
     28 H4          4.7932   11.3462   -6.6790 H         1 <0>         0.1331
     29 H5          4.2279    9.8647   -8.5613 H         1 <0>         0.1280
     30 H6          3.4692    7.5634   -8.1380 H         1 <0>         0.1262
     31 H7          3.2802    6.7292   -5.8303 H         1 <0>         0.1296
     32 H8          2.9457    9.8916   -2.9292 H         1 <0>         0.1008
     33 H9          1.7772    8.6073   -3.3895 H         1 <0>         0.0485
     34 H10         3.6683    8.5521   -0.9709 H         1 <0>         0.0587
     35 H11         1.8946    8.8317   -0.9218 H         1 <0>         0.0913
     36 H12         4.5137    6.3665   -1.6817 H         1 <0>         0.0578
     37 H13         3.3453    5.0821   -2.1421 H         1 <0>         0.0773
     38 H14         2.6227    6.4226   -4.1011 H         1 <0>         0.0523
     39 H15         4.3964    6.1429   -4.1502 H         1 <0>         0.0908
     40 H16         3.3451    6.4328    0.4351 H         1 <0>         0.0898
     41 H17         1.6405    6.9964    0.4925 H         1 <0>         0.1136
     42 H18         3.7606    3.8459    0.0364 H         1 <0>         0.2211
     43 H19         3.1317    1.0638    0.0184 H         1 <0>         0.1988
     44 H20         1.3109   -0.5306   -0.0756 H         1 <0>         0.1821
     45 H21        -1.0399    0.2602   -0.2243 H         1 <0>         0.1737
     46 H22        -1.5127    2.6622   -0.2555 H         1 <0>         0.1776
     47 H23        -0.1898    5.2939   -0.1969 H         1 <0>         0.5014
@<TRIPOS>BOND
     1    1    2 1
     2    1   25 1
     3    1   26 1
     4    1   27 1
     5    2    3 1
     6    3    8 ar
     7    3    4 ar
     8    4    5 ar
     9    4   28 1
    10    5    6 ar
    11    5   29 1
    12    6    7 ar
    13    6   30 1
    14    7    8 ar
    15    7   31 1
    16    8    9 1
    17    9   14 1
    18    9   10 1
    19   10   11 1
    20   10   32 1
    21   10   33 1
    22   11   12 1
    23   11   34 1
    24   11   35 1
    25   12   13 1
    26   12   15 1
    27   13   14 1
    28   13   36 1
    29   13   37 1
    30   14   38 1
    31   14   39 1
    32   15   16 1
    33   15   40 1
    34   15   41 1
    35   16   24 1
    36   16   17 2
    37   17   18 1
    38   17   42 1
    39   18   23 1
    40   18   19 1
    41   19   20 2
    42   19   43 1
    43   20   21 1
    44   20   44 1
    45   21   22 2
    46   21   45 1
    47   22   23 1
    48   22   46 1
    49   23   24 2
    50   24   47 1
@<TRIPOS>MOLECULE
ZINC03917109
   63    66     0     0     0
SMALL
USER_CHARGES

@<TRIPOS>ATOM
      1 C1         -0.0173    1.4248    0.0099 C.3       1 <0>         0.0228
      2 O1          0.0021   -0.0041    0.0020 O.3       1 <0>        -0.3111
      3 C2          0.6063   -0.6076   -1.0566 C.ar      1 <0>         0.1291
      4 C3          1.1727    0.1584   -2.0619 C.ar      1 <0>        -0.2022
      5 C4          1.7862   -0.4565   -3.1379 C.ar      1 <0>        -0.0669
      6 C5          1.8369   -1.8361   -3.2138 C.ar      1 <0>        -0.1491
      7 C6          1.2745   -2.6077   -2.2144 C.ar      1 <0>        -0.0822
      8 C7          0.6620   -1.9977   -1.1294 C.ar      1 <0>         0.1088
      9 N1          0.0968   -2.7768   -0.1132 N.pl3     1 <0>        -0.6636
     10 C8         -1.3057   -3.2146   -0.1871 C.3       1 <0>         0.1216
     11 C9         -1.3569   -4.7253    0.0636 C.3       1 <0>        -0.0220
     12 N2         -0.6925   -5.0320    1.3366 N.4       1 <0>        -0.3806
     13 C10         0.7338   -4.6939    1.2505 C.3       1 <0>        -0.0274
     14 C11         0.8902   -3.1864    1.0559 C.3       1 <0>         0.1218
     15 C12        -0.8376   -6.4641    1.6301 C.3       1 <0>        -0.0087
     16 C13        -0.2558   -6.7628    3.0132 C.3       1 <0>        -0.1461
     17 C14        -0.4069   -8.2543    3.3189 C.3       1 <0>        -0.1300
     18 C15         0.1750   -8.5530    4.7020 C.3       1 <0>         0.1193
     19 N3          0.0302   -9.9811    4.9947 N.am      1 <0>        -0.7331
     20 C16         0.4752  -10.4775    6.1660 C.2       1 <0>         0.5643
     21 O2          0.9967   -9.7401    6.9797 O.2       1 <0>        -0.5315
     22 C17         0.3293  -11.9181    6.4612 C.ar      1 <0>        -0.1484
     23 C18        -0.2697  -12.7675    5.5136 C.ar      1 <0>        -0.0967
     24 C19        -0.4150  -14.0939    5.7614 C.ar      1 <0>        -0.1051
     25 C20         0.0356  -14.6361    6.9791 C.ar      1 <0>        -0.0320
     26 C21        -0.1038  -16.0058    7.2582 C.ar      1 <0>        -0.1147
     27 C22         0.3421  -16.5017    8.4450 C.ar      1 <0>        -0.0983
     28 C23         0.9368  -15.6705    9.3925 C.ar      1 <0>        -0.1143
     29 C24         1.0892  -14.3386    9.1579 C.ar      1 <0>        -0.0963
     30 C25         0.6411  -13.7901    7.9427 C.ar      1 <0>        -0.0651
     31 C26         0.7884  -12.4225    7.6665 C.ar      1 <0>        -0.0245
     32 H1          1.0053    1.8021    0.0021 H         1 <0>         0.0589
     33 H2         -0.5445    1.7859   -0.8732 H         1 <0>         0.0589
     34 H3         -0.5275    1.7763    0.9067 H         1 <0>         0.1037
     35 H4          1.1348    1.2363   -2.0057 H         1 <0>         0.1341
     36 H5          2.2267    0.1425   -3.9212 H         1 <0>         0.1320
     37 H6          2.3168   -2.3119   -4.0562 H         1 <0>         0.1305
     38 H7          1.3151   -3.6852   -2.2764 H         1 <0>         0.1264
     39 H8         -1.8914   -2.6971    0.5728 H         1 <0>         0.0778
     40 H9         -1.7068   -2.9936   -1.1762 H         1 <0>         0.1138
     41 H10        -2.3961   -5.0513    0.1082 H         1 <0>         0.1357
     42 H11        -0.8470   -5.2457   -0.7471 H         1 <0>         0.1295
     43 H12         1.2353   -4.9969    2.1697 H         1 <0>         0.1375
     44 H13         1.1804   -5.2153    0.4039 H         1 <0>         0.1298
     45 H14         1.9402   -2.9468    0.8881 H         1 <0>         0.1137
     46 H15         0.5300   -2.6661    1.9434 H         1 <0>         0.0774
     47 H16        -1.8938   -6.7330    1.6144 H         1 <0>         0.1318
     48 H17        -0.3036   -7.0450    0.8781 H         1 <0>         0.1294
     49 H18         0.8004   -6.4939    3.0289 H         1 <0>         0.0916
     50 H19        -0.7898   -6.1819    3.7652 H         1 <0>         0.0922
     51 H20        -1.4631   -8.5232    3.3032 H         1 <0>         0.0826
     52 H21         0.1271   -8.8352    2.5669 H         1 <0>         0.0820
     53 H22         1.2312   -8.2841    4.7177 H         1 <0>         0.0723
     54 H23        -0.3590   -7.9721    5.4540 H         1 <0>         0.0726
     55 H24        -0.3859  -10.5695    4.3454 H         1 <0>         0.4021
     56 H25        -0.6188  -12.3588    4.5768 H         1 <0>         0.1223
     57 H26        -0.8770  -14.7335    5.0239 H         1 <0>         0.1343
     58 H27        -0.5632  -16.6627    6.5343 H         1 <0>         0.1320
     59 H28         0.2331  -17.5553    8.6557 H         1 <0>         0.1293
     60 H29         1.2814  -16.0892   10.3264 H         1 <0>         0.1298
     61 H30         1.5515  -13.7060    9.9012 H         1 <0>         0.1331
     62 H31         1.2517  -11.7677    8.3897 H         1 <0>         0.1429
     63 H32        -1.1202   -4.4947    2.0759 H         1 <0>         0.4226
@<TRIPOS>BOND
     1    1    2 1
     2    1   32 1
     3    1   33 1
     4    1   34 1
     5    2    3 1
     6    3    8 ar
     7    3    4 ar
     8    4    5 ar
     9    4   35 1
    10    5    6 ar
    11    5   36 1
    12    6    7 ar
    13    6   37 1
    14    7    8 ar
    15    7   38 1
    16    8    9 1
    17    9   14 1
    18    9   10 1
    19   10   11 1
    20   10   39 1
    21   10   40 1
    22   11   12 1
    23   11   41 1
    24   11   42 1
    25   12   13 1
    26   12   15 1
    27   12   63 1
    28   13   14 1
    29   13   43 1
    30   13   44 1
    31   14   45 1
    32   14   46 1
    33   15   16 1
    34   15   47 1
    35   15   48 1
    36   16   17 1
    37   16   49 1
    38   16   50 1
    39   17   18 1
    40   17   51 1
    41   17   52 1
    42   18   19 1
    43   18   53 1
    44   18   54 1
    45   19   20 am
    46   19   55 1
    47   20   21 2
    48   20   22 1
    49   22   31 ar
    50   22   23 ar
    51   23   24 ar
    52   23   56 1
    53   24   25 ar
    54   24   57 1
    55   25   30 ar
    56   25   26 ar
    57   26   27 ar
    58   26   58 1
    59   27   28 ar
    60   27   59 1
    61   28   29 ar
    62   28   60 1
    63   29   30 ar
    64   29   61 1
    65   30   31 ar
    66   31   62 1
@<TRIPOS>MOLECULE
ZINC03917109
   62    65     0     0     0
SMALL
USER_CHARGES

@<TRIPOS>ATOM
      1 C1         -0.0173    1.4248    0.0099 C.3       1 <0>         0.0251
      2 O1          0.0021   -0.0041    0.0020 O.3       1 <0>        -0.3039
      3 C2         -1.2013   -0.6380    0.0101 C.ar      1 <0>         0.1197
      4 C3         -2.3740    0.0989    0.0195 C.ar      1 <0>        -0.2065
      5 C4         -3.5967   -0.5469    0.0283 C.ar      1 <0>        -0.0836
      6 C5         -3.6532   -1.9283    0.0271 C.ar      1 <0>        -0.1523
      7 C6         -2.4875   -2.6710    0.0173 C.ar      1 <0>        -0.0882
      8 C7         -1.2572   -2.0300    0.0032 C.ar      1 <0>         0.1390
      9 N1         -0.0754   -2.7797   -0.0127 N.pl3     1 <0>        -0.6683
     10 C8          0.5713   -3.1961    1.2410 C.3       1 <0>         0.1532
     11 C9          0.8354   -4.7041    1.1750 C.3       1 <0>         0.0416
     12 N2          1.5913   -5.0126   -0.0462 N.3       1 <0>        -0.5348
     13 C10         0.8175   -4.6811   -1.2500 C.3       1 <0>         0.0379
     14 C11         0.5494   -3.1773   -1.2834 C.3       1 <0>         0.1529
     15 C12         2.0135   -6.4196   -0.0626 C.3       1 <0>         0.0570
     16 C13         2.9994   -6.6428   -1.2111 C.3       1 <0>        -0.1132
     17 C14         3.4391   -8.1081   -1.2283 C.3       1 <0>        -0.1303
     18 C15         4.4250   -8.3314   -2.3768 C.3       1 <0>         0.1194
     19 N3          4.8460   -9.7345   -2.3932 N.am      1 <0>        -0.7276
     20 C16         5.7188  -10.1653   -3.3255 C.2       1 <0>         0.5586
     21 O2          6.1567   -9.3896   -4.1527 O.2       1 <0>        -0.5351
     22 C17         6.1435  -11.5806   -3.3420 C.ar      1 <0>        -0.1394
     23 C18         5.6291  -12.4748   -2.3860 C.ar      1 <0>        -0.0931
     24 C19         6.0037  -13.7793   -2.3806 C.ar      1 <0>        -0.1083
     25 C20         6.9183  -14.2530   -3.3393 C.ar      1 <0>        -0.0339
     26 C21         7.3209  -15.5988   -3.3538 C.ar      1 <0>        -0.1133
     27 C22         8.2070  -16.0282   -4.2939 C.ar      1 <0>        -0.1034
     28 C23         8.7244  -15.1520   -5.2462 C.ar      1 <0>        -0.1183
     29 C24         8.3580  -13.8415   -5.2638 C.ar      1 <0>        -0.0955
     30 C25         7.4441  -13.3613   -4.3084 C.ar      1 <0>        -0.0641
     31 C26         7.0406  -12.0176   -4.3023 C.ar      1 <0>        -0.0303
     32 H1          1.0053    1.8021    0.0021 H         1 <0>         0.0993
     33 H2         -0.5445    1.7859   -0.8732 H         1 <0>         0.0537
     34 H3         -0.5275    1.7763    0.9067 H         1 <0>         0.0537
     35 H4         -2.3335    1.1781    0.0204 H         1 <0>         0.1277
     36 H5         -4.5101    0.0293    0.0363 H         1 <0>         0.1245
     37 H6         -4.6104   -2.4284    0.0343 H         1 <0>         0.1238
     38 H7         -2.5344   -3.7500    0.0168 H         1 <0>         0.1249
     39 H8          1.5150   -2.6639    1.3604 H         1 <0>         0.0581
     40 H9         -0.0855   -2.9758    2.0825 H         1 <0>         0.0690
     41 H10         1.4125   -5.0108    2.0473 H         1 <0>         0.0793
     42 H11        -0.1140   -5.2393    1.1600 H         1 <0>         0.0339
     43 H12         1.3817   -4.9710   -2.1364 H         1 <0>         0.0831
     44 H13        -0.1317   -5.2166   -1.2312 H         1 <0>         0.0333
     45 H14        -0.1219   -2.9447   -2.1101 H         1 <0>         0.0686
     46 H15         1.4910   -2.6433   -1.4113 H         1 <0>         0.0577
     47 H16         2.4960   -6.6652    0.8834 H         1 <0>         0.0748
     48 H17         1.1418   -7.0588   -0.2026 H         1 <0>         0.0322
     49 H18         2.5169   -6.3971   -2.1571 H         1 <0>         0.0668
     50 H19         3.8711   -6.0035   -1.0711 H         1 <0>         0.0766
     51 H20         3.9216   -8.3538   -0.2823 H         1 <0>         0.0712
     52 H21         2.5674   -8.7474   -1.3683 H         1 <0>         0.0684
     53 H22         3.9425   -8.0857   -3.3228 H         1 <0>         0.0696
     54 H23         5.2967   -7.6921   -2.2368 H         1 <0>         0.0713
     55 H24         4.4966  -10.3534   -1.7332 H         1 <0>         0.4001
     56 H25         4.9272  -12.1188   -1.6463 H         1 <0>         0.1252
     57 H26         5.6001  -14.4539   -1.6401 H         1 <0>         0.1336
     58 H27         6.9294  -16.2899   -2.6219 H         1 <0>         0.1303
     59 H28         8.5140  -17.0636   -4.3016 H         1 <0>         0.1266
     60 H29         9.4265  -15.5182   -5.9806 H         1 <0>         0.1272
     61 H30         8.7671  -13.1735   -6.0073 H         1 <0>         0.1318
     62 H31         7.4298  -11.3288   -5.0374 H         1 <0>         0.1429
@<TRIPOS>BOND
     1    1    2 1
     2    1   32 1
     3    1   33 1
     4    1   34 1
     5    2    3 1
     6    3    8 ar
     7    3    4 ar
     8    4    5 ar
     9    4   35 1
    10    5    6 ar
    11    5   36 1
    12    6    7 ar
    13    6   37 1
    14    7    8 ar
    15    7   38 1
    16    8    9 1
    17    9   14 1
    18    9   10 1
    19   10   11 1
    20   10   39 1
    21   10   40 1
    22   11   12 1
    23   11   41 1
    24   11   42 1
    25   12   13 1
    26   12   15 1
    27   13   14 1
    28   13   43 1
    29   13   44 1
    30   14   45 1
    31   14   46 1
    32   15   16 1
    33   15   47 1
    34   15   48 1
    35   16   17 1
    36   16   49 1
    37   16   50 1
    38   17   18 1
    39   17   51 1
    40   17   52 1
    41   18   19 1
    42   18   53 1
    43   18   54 1
    44   19   20 am
    45   19   55 1
    46   20   21 2
    47   20   22 1
    48   22   31 ar
    49   22   23 ar
    50   23   24 ar
    51   23   56 1
    52   24   25 ar
    53   24   57 1
    54   25   30 ar
    55   25   26 ar
    56   26   27 ar
    57   26   58 1
    58   27   28 ar
    59   27   59 1
    60   28   29 ar
    61   28   60 1
    62   29   30 ar
    63   29   61 1
    64   30   31 ar
    65   31   62 1
@<TRIPOS>MOLECULE
ZINC02169422
   49    51     0     0     0
SMALL
USER_CHARGES

@<TRIPOS>ATOM
      1 C1         -0.0173    1.4248    0.0099 C.3       1 <0>         0.0220
      2 O1          0.0021   -0.0041    0.0020 O.3       1 <0>        -0.3158
      3 C2          0.6263   -0.6188    1.0422 C.ar      1 <0>         0.1556
      4 C3          1.2023    0.1379    2.0514 C.ar      1 <0>        -0.2329
      5 C4          1.8370   -0.4860    3.1091 C.ar      1 <0>        -0.0259
      6 C5          1.9002   -1.8657    3.1656 C.ar      1 <0>        -0.2322
      7 C6          1.3266   -2.6296    2.1604 C.ar      1 <0>         0.1603
      8 C7          0.6826   -2.0063    1.0982 C.ar      1 <0>         0.0101
      9 O2          0.1135   -2.7526    0.1126 O.3       1 <0>        -0.3151
     10 C8          0.9387   -3.0899   -1.0043 C.3       1 <0>         0.0248
     11 C9          0.1318   -3.9245   -2.0009 C.3       1 <0>         0.0027
     12 N1         -0.9570   -3.1085   -2.5546 N.4       1 <0>        -0.5070
     13 C10        -1.7317   -3.9098   -3.5115 C.3       1 <0>         0.0060
     14 C11        -2.8656   -3.0599   -4.0881 C.3       1 <0>         0.0197
     15 H1         -2.4506   -2.1903   -4.5978 H         1 <0>         0.1086
     16 C12        -3.6875   -3.8964   -5.0780 C.3       1 <0>         0.0336
     17 O3         -4.7457   -3.0771   -5.5867 O.3       1 <0>        -0.2940
     18 C13        -5.4491   -2.3511   -4.6753 C.ar      1 <0>         0.0502
     19 C14        -6.6865   -1.8324   -5.0268 C.ar      1 <0>        -0.1085
     20 C15        -7.4109   -1.0903   -4.1134 C.ar      1 <0>        -0.1000
     21 C16        -6.9048   -0.8632   -2.8471 C.ar      1 <0>        -0.1093
     22 C17        -5.6732   -1.3784   -2.4899 C.ar      1 <0>        -0.1051
     23 C18        -4.9414   -2.1250   -3.4015 C.ar      1 <0>         0.0395
     24 O4         -3.7333   -2.6322   -3.0325 O.3       1 <0>        -0.3160
     25 O5          1.3897   -3.9870    2.2166 O.3       1 <0>        -0.3070
     26 C19         2.0623   -4.5592    3.3400 C.3       1 <0>         0.0218
     27 H2          1.0053    1.8021    0.0021 H         1 <0>         0.0625
     28 H3         -0.5445    1.7859   -0.8732 H         1 <0>         0.1060
     29 H4         -0.5275    1.7763    0.9067 H         1 <0>         0.0643
     30 H5          1.1554    1.2161    2.0107 H         1 <0>         0.1408
     31 H6          2.2850    0.1061    3.8934 H         1 <0>         0.1398
     32 H7          2.3972   -2.3494    3.9934 H         1 <0>         0.1417
     33 H8          1.2835   -2.1771   -1.4901 H         1 <0>         0.0771
     34 H9          1.7981   -3.6654   -0.6604 H         1 <0>         0.1012
     35 H10         0.7840   -4.2565   -2.8087 H         1 <0>         0.1485
     36 H11        -0.2873   -4.7927   -1.4923 H         1 <0>         0.1435
     37 H12        -1.5607   -2.8012   -1.8068 H         1 <0>         0.4445
     38 H13        -1.0795   -4.2418   -4.3193 H         1 <0>         0.1556
     39 H14        -2.1508   -4.7780   -3.0028 H         1 <0>         0.1460
     40 H15        -3.0503   -4.2255   -5.8989 H         1 <0>         0.1319
     41 H16        -4.1068   -4.7633   -4.5672 H         1 <0>         0.0891
     42 H17        -7.0840   -2.0082   -6.0155 H         1 <0>         0.1416
     43 H18        -8.3743   -0.6875   -4.3892 H         1 <0>         0.1408
     44 H19        -7.4727   -0.2818   -2.1359 H         1 <0>         0.1399
     45 H20        -5.2800   -1.1994   -1.5001 H         1 <0>         0.1376
     46 H21         2.0404   -5.6461    3.2617 H         1 <0>         0.1081
     47 H22         3.0971   -4.2169    3.3570 H         1 <0>         0.0620
     48 H23         1.5626   -4.2509    4.2584 H         1 <0>         0.0634
     49 H24        -0.5690   -2.3048   -3.0254 H         1 <0>         0.4279
@<TRIPOS>BOND
     1    1    2 1
     2    1   27 1
     3    1   28 1
     4    1   29 1
     5    2    3 1
     6    3    8 ar
     7    3    4 ar
     8    4    5 ar
     9    4   30 1
    10    5    6 ar
    11    5   31 1
    12    6    7 ar
    13    6   32 1
    14    7    8 ar
    15    7   25 1
    16    8    9 1
    17    9   10 1
    18   10   11 1
    19   10   33 1
    20   10   34 1
    21   11   12 1
    22   11   35 1
    23   11   36 1
    24   12   13 1
    25   12   37 1
    26   12   49 1
    27   13   14 1
    28   13   38 1
    29   13   39 1
    30   14   15 1
    31   14   24 1
    32   14   16 1
    33   16   17 1
    34   16   40 1
    35   16   41 1
    36   17   18 1
    37   18   23 ar
    38   18   19 ar
    39   19   20 ar
    40   19   42 1
    41   20   21 ar
    42   20   43 1
    43   21   22 ar
    44   21   44 1
    45   22   23 ar
    46   22   45 1
    47   23   24 1
    48   25   26 1
    49   26   46 1
    50   26   47 1
    51   26   48 1
@<TRIPOS>MOLECULE
ZINC02169424
   49    51     0     0     0
SMALL
USER_CHARGES

@<TRIPOS>ATOM
      1 C1         -0.0173    1.4248    0.0099 C.3       1 <0>         0.0220
      2 O1          0.0021   -0.0041    0.0020 O.3       1 <0>        -0.3161
      3 C2          0.6263   -0.6188    1.0422 C.ar      1 <0>         0.1555
      4 C3          1.2023    0.1379    2.0514 C.ar      1 <0>        -0.2328
      5 C4          1.8370   -0.4860    3.1091 C.ar      1 <0>        -0.0256
      6 C5          1.9002   -1.8657    3.1656 C.ar      1 <0>        -0.2321
      7 C6          1.3266   -2.6296    2.1604 C.ar      1 <0>         0.1604
      8 C7          0.6826   -2.0063    1.0982 C.ar      1 <0>         0.0097
      9 O2          0.1135   -2.7526    0.1126 O.3       1 <0>        -0.3164
     10 C8          0.9387   -3.0899   -1.0043 C.3       1 <0>         0.0247
     11 C9          0.1318   -3.9245   -2.0009 C.3       1 <0>         0.0033
     12 N1         -0.9570   -3.1085   -2.5546 N.4       1 <0>        -0.5074
     13 C10        -1.7317   -3.9098   -3.5115 C.3       1 <0>         0.0060
     14 C11        -2.8656   -3.0599   -4.0881 C.3       1 <0>         0.0198
     15 H1         -3.4690   -2.6528   -3.2767 H         1 <0>         0.1089
     16 C12        -3.7445   -3.9223   -5.0040 C.3       1 <0>         0.0338
     17 O3         -4.7846   -3.0948   -5.5364 O.3       1 <0>        -0.2938
     18 C13        -4.4107   -1.8796   -6.0222 C.ar      1 <0>         0.0506
     19 C14        -5.2702   -1.1893   -6.8640 C.ar      1 <0>        -0.1082
     20 C15        -4.9061    0.0471   -7.3627 C.ar      1 <0>        -0.0999
     21 C16        -3.6849    0.5995   -7.0236 C.ar      1 <0>        -0.1096
     22 C17        -2.8233   -0.0837   -6.1866 C.ar      1 <0>        -0.1058
     23 C18        -3.1817   -1.3259   -5.6843 C.ar      1 <0>         0.0388
     24 O4         -2.3191   -1.9901   -4.8670 O.3       1 <0>        -0.3164
     25 O5          1.3897   -3.9870    2.2166 O.3       1 <0>        -0.3071
     26 C19         2.0623   -4.5592    3.3400 C.3       1 <0>         0.0218
     27 H2          1.0053    1.8021    0.0021 H         1 <0>         0.0628
     28 H3         -0.5445    1.7859   -0.8732 H         1 <0>         0.1064
     29 H4         -0.5275    1.7763    0.9067 H         1 <0>         0.0642
     30 H5          1.1554    1.2161    2.0107 H         1 <0>         0.1409
     31 H6          2.2850    0.1061    3.8934 H         1 <0>         0.1399
     32 H7          2.3972   -2.3494    3.9934 H         1 <0>         0.1418
     33 H8          1.2835   -2.1771   -1.4901 H         1 <0>         0.0775
     34 H9          1.7981   -3.6654   -0.6604 H         1 <0>         0.1014
     35 H10         0.7840   -4.2565   -2.8087 H         1 <0>         0.1483
     36 H11        -0.2873   -4.7927   -1.4923 H         1 <0>         0.1439
     37 H12        -1.5607   -2.8012   -1.8068 H         1 <0>         0.4373
     38 H13        -1.0795   -4.2418   -4.3193 H         1 <0>         0.1463
     39 H14        -2.1508   -4.7780   -3.0028 H         1 <0>         0.1563
     40 H15        -3.1423   -4.3253   -5.8184 H         1 <0>         0.0892
     41 H16        -4.1822   -4.7395   -4.4306 H         1 <0>         0.1322
     42 H17        -6.2248   -1.6185   -7.1302 H         1 <0>         0.1418
     43 H18        -5.5768    0.5828   -8.0181 H         1 <0>         0.1409
     44 H19        -3.4037    1.5665   -7.4138 H         1 <0>         0.1399
     45 H20        -1.8699    0.3501   -5.9233 H         1 <0>         0.1368
     46 H21         2.0404   -5.6461    3.2617 H         1 <0>         0.1082
     47 H22         3.0971   -4.2169    3.3570 H         1 <0>         0.0621
     48 H23         1.5626   -4.2509    4.2584 H         1 <0>         0.0634
     49 H24        -0.5690   -2.3048   -3.0254 H         1 <0>         0.4346
@<TRIPOS>BOND
     1    1    2 1
     2    1   27 1
     3    1   28 1
     4    1   29 1
     5    2    3 1
     6    3    8 ar
     7    3    4 ar
     8    4    5 ar
     9    4   30 1
    10    5    6 ar
    11    5   31 1
    12    6    7 ar
    13    6   32 1
    14    7    8 ar
    15    7   25 1
    16    8    9 1
    17    9   10 1
    18   10   11 1
    19   10   33 1
    20   10   34 1
    21   11   12 1
    22   11   35 1
    23   11   36 1
    24   12   13 1
    25   12   37 1
    26   12   49 1
    27   13   14 1
    28   13   38 1
    29   13   39 1
    30   14   15 1
    31   14   24 1
    32   14   16 1
    33   16   17 1
    34   16   40 1
    35   16   41 1
    36   17   18 1
    37   18   23 ar
    38   18   19 ar
    39   19   20 ar
    40   19   42 1
    41   20   21 ar
    42   20   43 1
    43   21   22 ar
    44   21   44 1
    45   22   23 ar
    46   22   45 1
    47   23   24 1
    48   25   26 1
    49   26   46 1
    50   26   47 1
    51   26   48 1
@<TRIPOS>MOLECULE
ZINC01571800
   25    26     0     0     0
SMALL
USER_CHARGES

@<TRIPOS>ATOM
      1 C1          0.0058    1.3143    0.2255 C.ar      1 <0>         0.0078
      2 C2          1.1819    2.0265    0.0017 C.ar      1 <0>         0.3632
      3 N1          2.3163    1.3747   -0.2188 N.ar      1 <0>        -0.4918
      4 C3          2.3262    0.0514   -0.2252 C.ar      1 <0>         0.1743
      5 C4          1.1557   -0.6517   -0.0029 C.ar      1 <0>         0.0305
      6 N2          0.0235   -0.0049    0.2176 N.ar      1 <0>        -0.3796
      7 Cl1         3.8095   -0.8031   -0.5135 Cl        1 <0>         0.0093
      8 N3          1.1669    3.4164    0.0088 N.pl3     1 <0>        -0.6210
      9 C5          2.4203    4.1864   -0.0052 C.3       1 <0>         0.0984
     10 C6          2.3337    5.2349   -1.1192 C.3       1 <0>        -0.0220
     11 N4          1.1252    6.0476   -0.9323 N.4       1 <0>        -0.5049
     12 C7         -0.0702    5.2088   -1.0856 C.3       1 <0>        -0.0220
     13 C8         -0.1028    4.1591    0.0244 C.3       1 <0>         0.0983
     14 H1         -0.9187    1.8414    0.4097 H         1 <0>         0.1747
     15 H2          1.1666   -1.7316   -0.0090 H         1 <0>         0.1864
     16 H3          2.5558    4.6831    0.9555 H         1 <0>         0.0939
     17 H4          3.2592    3.5172   -0.1965 H         1 <0>         0.1382
     18 H5          3.2133    5.8776   -1.0825 H         1 <0>         0.1477
     19 H6          2.2892    4.7345   -2.0866 H         1 <0>         0.1351
     20 H7          1.1337    6.4533   -0.0085 H         1 <0>         0.4297
     21 H8         -0.9621    5.8324   -1.0240 H         1 <0>         0.1506
     22 H9         -0.0420    4.7092   -2.0539 H         1 <0>         0.1358
     23 H10        -0.9313    3.4718   -0.1472 H         1 <0>         0.1300
     24 H11        -0.2264    4.6529    0.9882 H         1 <0>         0.1013
     25 H12         1.1076    6.7851   -1.6207 H         1 <0>         0.4359
@<TRIPOS>BOND
     1    1    6 ar
     2    1    2 ar
     3    1   14 1
     4    2    3 ar
     5    2    8 1
     6    3    4 ar
     7    4    5 ar
     8    4    7 1
     9    5    6 ar
    10    5   15 1
    11    8   13 1
    12    8    9 1
    13    9   10 1
    14    9   16 1
    15    9   17 1
    16   10   11 1
    17   10   18 1
    18   10   19 1
    19   11   12 1
    20   11   20 1
    21   11   25 1
    22   12   13 1
    23   12   21 1
    24   12   22 1
    25   13   23 1
    26   13   24 1
@<TRIPOS>MOLECULE
ZINC00001567
   52    55     0     0     0
SMALL
USER_CHARGES

@<TRIPOS>ATOM
      1 C1         -0.0167    1.3794    0.0096 C.ar      1 <0>        -0.0838
      2 C2          1.1684    2.0935    0.0021 C.ar      1 <0>        -0.1241
      3 C3          2.3774    1.4292   -0.0129 C.ar      1 <0>        -0.0559
      4 C4          2.4034    0.0337   -0.0206 C.ar      1 <0>        -0.1495
      5 C5          1.2043   -0.6806   -0.0130 C.ar      1 <0>        -0.0865
      6 C6          0.0021   -0.0041    0.0020 C.ar      1 <0>        -0.1264
      7 C7          3.6955   -0.6847   -0.0372 C.2       1 <0>         0.5687
      8 O1          4.7382   -0.0600   -0.0443 O.2       1 <0>        -0.5263
      9 N1          3.7172   -2.0323   -0.0446 N.am      1 <0>        -0.7287
     10 C8          4.9975   -2.7441   -0.0611 C.3       1 <0>         0.1364
     11 C9          5.4871   -2.8841   -1.5054 C.3       1 <0>        -0.1610
     12 C10         6.7833   -3.6970   -1.5223 C.3       1 <0>        -0.0017
     13 N2          6.5373   -5.0288   -0.9563 N.4       1 <0>        -0.3847
     14 C11         6.1366   -4.9059    0.4504 C.3       1 <0>        -0.0067
     15 C12         4.8154   -4.1394    0.5432 C.3       1 <0>        -0.1555
     16 C13         7.7643   -5.8316   -1.0460 C.3       1 <0>        -0.0082
     17 C14         7.4765   -7.2576   -0.5719 C.3       1 <0>        -0.0580
     18 C15         8.7352   -8.0812   -0.6639 C.2       1 <0>        -0.2048
     19 C16         9.1004   -8.8698   -1.6870 C.2       1 <0>         0.0846
     20 N3         10.3049   -9.4593   -1.4149 N.pl3     1 <0>        -0.5881
     21 H1         10.7716  -10.0714   -2.0050 H         1 <0>         0.4231
     22 C17        10.7557   -9.0540   -0.1786 C.ar      1 <0>         0.0943
     23 C18         9.7953   -8.1680    0.3434 C.ar      1 <0>        -0.1003
     24 C19         9.9919   -7.5876    1.5975 C.ar      1 <0>        -0.0845
     25 C20        11.1198   -7.8806    2.3114 C.ar      1 <0>        -0.1322
     26 C21        12.0721   -8.7507    1.7992 C.ar      1 <0>        -0.0935
     27 C22        11.8937   -9.3420    0.5674 C.ar      1 <0>        -0.1216
     28 H2         -0.9605    1.9042    0.0260 H         1 <0>         0.1328
     29 H3          1.1468    3.1732    0.0078 H         1 <0>         0.1351
     30 H4          3.3017    1.9878   -0.0191 H         1 <0>         0.1375
     31 H5          1.2176   -1.7605   -0.0193 H         1 <0>         0.1227
     32 H6         -0.9265   -0.5556    0.0079 H         1 <0>         0.1326
     33 H7          2.8851   -2.5308   -0.0391 H         1 <0>         0.4058
     34 H8          5.7316   -2.1875    0.5215 H         1 <0>         0.1067
     35 H9          4.7290   -3.3954   -2.0988 H         1 <0>         0.0908
     36 H10         5.6722   -1.8950   -1.9244 H         1 <0>         0.1173
     37 H11         7.1347   -3.7984   -2.5491 H         1 <0>         0.1342
     38 H12         7.5407   -3.1848   -0.9289 H         1 <0>         0.1321
     39 H13         6.0105   -5.8997    0.8800 H         1 <0>         0.1390
     40 H14         6.9077   -4.3678    1.0017 H         1 <0>         0.1334
     41 H15         4.5205   -4.0477    1.5885 H         1 <0>         0.1198
     42 H16         4.0434   -4.6768   -0.0076 H         1 <0>         0.0947
     43 H17         8.1084   -5.8550   -2.0800 H         1 <0>         0.1313
     44 H18         8.5356   -5.3881   -0.4163 H         1 <0>         0.1310
     45 H19         7.1324   -7.2342    0.4621 H         1 <0>         0.0912
     46 H20         6.7052   -7.7011   -1.2016 H         1 <0>         0.0907
     47 H21         8.5280   -9.0175   -2.5908 H         1 <0>         0.1728
     48 H22         9.2555   -6.9090    2.0021 H         1 <0>         0.1174
     49 H23        11.2715   -7.4313    3.2817 H         1 <0>         0.1270
     50 H24        12.9587   -8.9719    2.3750 H         1 <0>         0.1315
     51 H25        12.6411  -10.0168    0.1770 H         1 <0>         0.1255
     52 H26         5.8016   -5.4834   -1.4760 H         1 <0>         0.4217
@<TRIPOS>BOND
     1    1    6 ar
     2    1    2 ar
     3    1   28 1
     4    2    3 ar
     5    2   29 1
     6    3    4 ar
     7    3   30 1
     8    4    5 ar
     9    4    7 1
    10    5    6 ar
    11    5   31 1
    12    6   32 1
    13    7    8 2
    14    7    9 am
    15    9   10 1
    16    9   33 1
    17   10   15 1
    18   10   11 1
    19   10   34 1
    20   11   12 1
    21   11   35 1
    22   11   36 1
    23   12   13 1
    24   12   37 1
    25   12   38 1
    26   13   14 1
    27   13   16 1
    28   13   52 1
    29   14   15 1
    30   14   39 1
    31   14   40 1
    32   15   41 1
    33   15   42 1
    34   16   17 1
    35   16   43 1
    36   16   44 1
    37   17   18 1
    38   17   45 1
    39   17   46 1
    40   18   23 1
    41   18   19 2
    42   19   20 1
    43   19   47 1
    44   20   21 1
    45   20   22 1
    46   22   27 ar
    47   22   23 ar
    48   23   24 ar
    49   24   25 ar
    50   24   48 1
    51   25   26 ar
    52   25   49 1
    53   26   27 ar
    54   26   50 1
    55   27   51 1
@<TRIPOS>MOLECULE
ZINC29210986
   33    34     0     0     0
SMALL
USER_CHARGES
(1R)-1-(dimethylaminomethyl)indane-4,5-diol
@<TRIPOS>ATOM
      1 C1         -1.3950    1.2161    4.0725 C.3       1 <0>        -0.0548
      2 N1         -0.6237    2.3527    3.5518 N.4       1 <0>        -0.4134
      3 C2          0.2485    2.9170    4.5904 C.3       1 <0>        -0.0489
      4 C3          0.1524    1.9635    2.3668 C.3       1 <0>        -0.0067
      5 C4         -0.8027    1.6171    1.2228 C.3       1 <0>        -0.0636
      6 H1         -1.5219    0.8845    1.6178 H         1 <0>         0.1065
      7 C5         -0.0127    1.0858    0.0080 C.3       1 <0>        -0.1090
      8 C6         -0.8257    1.6300   -1.1857 C.3       1 <0>        -0.0752
      9 C7         -1.5151    2.8718   -0.6623 C.ar      1 <0>        -0.0774
     10 C8         -1.5046    2.8647    0.7206 C.ar      1 <0>        -0.1280
     11 C9         -2.0831    3.9092    1.4219 C.ar      1 <0>        -0.1207
     12 C10        -2.6729    4.9613    0.7481 C.ar      1 <0>        -0.1092
     13 C11        -2.6867    4.9744   -0.6370 C.ar      1 <0>         0.0861
     14 C12        -2.1058    3.9265   -1.3434 C.ar      1 <0>         0.0958
     15 O1         -2.1173    3.9355   -2.7033 O.3       1 <0>        -0.4906
     16 O2         -3.2667    6.0080   -1.3038 O.3       1 <0>        -0.4905
     17 H2         -2.0381    0.8137    3.2759 H         1 <0>         0.1241
     18 H3         -2.0195    1.5514    4.9137 H         1 <0>         0.1253
     19 H4         -0.7049    0.4321    4.4178 H         1 <0>         0.1219
     20 H5          0.8131    3.7644    4.1744 H         1 <0>         0.1233
     21 H6          0.9500    2.1449    4.9393 H         1 <0>         0.1206
     22 H7         -0.3645    3.2642    5.4352 H         1 <0>         0.1246
     23 H8          0.8010    2.7983    2.0629 H         1 <0>         0.1325
     24 H9          0.7716    1.0863    2.6059 H         1 <0>         0.1333
     25 H10         1.0145    1.4783    0.0385 H         1 <0>         0.0851
     26 H11         0.0137   -0.0134    0.0400 H         1 <0>         0.0930
     27 H12        -0.1443    1.8654   -2.0165 H         1 <0>         0.0888
     28 H13        -1.5521    0.8708   -1.5112 H         1 <0>         0.0914
     29 H14        -2.0738    3.9010    2.5018 H         1 <0>         0.1075
     30 H15        -3.1231    5.7727    1.3008 H         1 <0>         0.1436
     31 H16        -2.5854    4.7714   -3.2438 H         1 <0>         0.4254
     32 H17        -3.2766    6.0165   -2.4037 H         1 <0>         0.4267
     33 H18        -1.3361    3.1337    3.2477 H         1 <0>         0.4322
@<TRIPOS>BOND
     1    1    2 1
     2    1   17 1
     3    1   18 1
     4    1   19 1
     5    2    3 1
     6    2    4 1
     7    2   33 1
     8    3   20 1
     9    3   21 1
    10    3   22 1
    11    4    5 1
    12    4   23 1
    13    4   24 1
    14    5    6 1
    15    5   10 1
    16    5    7 1
    17    7    8 1
    18    7   25 1
    19    7   26 1
    20    8    9 1
    21    8   27 1
    22    8   28 1
    23    9   14 ar
    24    9   10 ar
    25   10   11 ar
    26   11   12 ar
    27   11   29 1
    28   12   13 ar
    29   12   30 1
    30   13   14 ar
    31   13   16 1
    32   14   15 1
    33   15   31 1
    34   16   32 1
@<TRIPOS>MOLECULE
ZINC29210990
   33    34     0     0     0
SMALL
USER_CHARGES
(1S)-1-(dimethylaminomethyl)indane-4,5-diol
@<TRIPOS>ATOM
      1 C1          3.4593    4.6239   -1.6648 C.3       1 <0>        -0.0489
      2 N1          3.1382    3.5499   -0.7154 N.4       1 <0>        -0.4137
      3 C2          3.4826    3.9410    0.6581 C.3       1 <0>        -0.0546
      4 C3          1.7238    3.1653   -0.8143 C.3       1 <0>        -0.0066
      5 C4          1.4838    1.8912   -0.0020 C.3       1 <0>        -0.0637
      6 H1          1.8868    2.0694    1.0059 H         1 <0>         0.1068
      7 C5         -0.0189    1.5392    0.0105 C.3       1 <0>        -0.1089
      8 C6          0.0021   -0.0041    0.0020 C.3       1 <0>        -0.0753
      9 C7          1.3100   -0.3789   -0.6614 C.ar      1 <0>        -0.0774
     10 C8          2.1620    0.7106   -0.6640 C.ar      1 <0>        -0.1282
     11 C9          3.4239    0.6002   -1.2233 C.ar      1 <0>        -0.1207
     12 C10         3.8393   -0.5939   -1.7804 C.ar      1 <0>        -0.1090
     13 C11         2.9908   -1.6888   -1.7809 C.ar      1 <0>         0.0861
     14 C12         1.7228   -1.5802   -1.2196 C.ar      1 <0>         0.0960
     15 O1          0.8868   -2.6529   -1.2177 O.3       1 <0>        -0.4905
     16 O2          3.3960   -2.8659   -2.3284 O.3       1 <0>        -0.4905
     17 H2          3.1920    4.3051   -2.6831 H         1 <0>         0.1233
     18 H3          4.5363    4.8430   -1.6200 H         1 <0>         0.1246
     19 H4          2.8900    5.5277   -1.4022 H         1 <0>         0.1205
     20 H5          3.2324    3.1204    1.3466 H         1 <0>         0.1240
     21 H6          2.9135    4.8401    0.9369 H         1 <0>         0.1219
     22 H7          4.5598    4.1553    0.7191 H         1 <0>         0.1252
     23 H8          1.0948    3.9764   -0.4187 H         1 <0>         0.1331
     24 H9          1.4664    2.9824   -1.8680 H         1 <0>         0.1325
     25 H10        -0.4855    1.9556    0.9154 H         1 <0>         0.0932
     26 H11        -0.5028    1.9653   -0.8808 H         1 <0>         0.0852
     27 H12        -0.0487   -0.3772    1.0356 H         1 <0>         0.0915
     28 H13        -0.8618   -0.3795   -0.5662 H         1 <0>         0.0888
     29 H14         4.0874    1.4524   -1.2238 H         1 <0>         0.1075
     30 H15         4.8249   -0.6738   -2.2148 H         1 <0>         0.1437
     31 H16         1.2135   -3.6056   -1.6601 H         1 <0>         0.4254
     32 H17         2.7206   -3.7341   -2.3277 H         1 <0>         0.4267
     33 H18         3.7465    2.6723   -0.9795 H         1 <0>         0.4321
@<TRIPOS>BOND
     1    1    2 1
     2    1   17 1
     3    1   18 1
     4    1   19 1
     5    2    3 1
     6    2    4 1
     7    2   33 1
     8    3   20 1
     9    3   21 1
    10    3   22 1
    11    4    5 1
    12    4   23 1
    13    4   24 1
    14    5    6 1
    15    5   10 1
    16    5    7 1
    17    7    8 1
    18    7   25 1
    19    7   26 1
    20    8    9 1
    21    8   27 1
    22    8   28 1
    23    9   14 ar
    24    9   10 ar
    25   10   11 ar
    26   11   12 ar
    27   11   29 1
    28   12   13 ar
    29   12   30 1
    30   13   14 ar
    31   13   16 1
    32   14   15 1
    33   15   31 1
    34   16   32 1
@<TRIPOS>MOLECULE
ZINC00002264
   41    43     0     0     0
SMALL
USER_CHARGES

@<TRIPOS>ATOM
      1 C1          0.7658   -0.3473   -1.0644 C.3       1 <0>        -0.0548
      2 N1         -0.0036   -0.0037    0.1389 N.4       1 <0>        -0.3894
      3 C2         -0.0391    1.4563    0.2971 C.3       1 <0>        -0.0477
      4 C3         -1.3742   -0.5153    0.0064 C.3       1 <0>        -0.0001
      5 C4         -1.3490   -2.0451   -0.0023 C.3       1 <0>         0.0179
      6 O1         -0.8829   -2.5210    1.2620 O.3       1 <0>        -0.3363
      7 C5         -0.7999   -3.8710    1.4222 C.2       1 <0>         0.1610
      8 C6         -1.2488   -4.5696    0.4577 C.2       1 <0>        -0.2032
      9 C7         -1.3500   -6.0155    0.2935 C.ar      1 <0>         0.0017
     10 C8         -2.6274   -6.5666   -0.2185 C.ar      1 <0>        -0.1185
     11 C9         -2.7810   -7.8584   -0.3863 C.ar      1 <0>        -0.0929
     12 C10        -1.6766   -8.7788   -0.0646 C.ar      1 <0>        -0.1110
     13 C11        -0.5421   -8.2947    0.3883 C.ar      1 <0>        -0.0866
     14 C12        -0.3707   -6.8406    0.5754 C.ar      1 <0>        -0.1119
     15 S1          1.1725   -6.2399    1.1799 S.3       1 <0>        -0.0138
     16 C13         0.7483   -5.4433    2.6927 C.ar      1 <0>        -0.1087
     17 C14        -0.2021   -4.3246    2.6760 C.ar      1 <0>        -0.0314
     18 C15        -0.5174   -3.7279    3.8095 C.ar      1 <0>        -0.0633
     19 C16         0.0841   -4.1790    5.0751 C.ar      1 <0>        -0.0299
     20 C17         0.9386   -5.1798    5.0804 C.ar      1 <0>        -0.0906
     21 C18         1.2819   -5.8475    3.8244 C.ar      1 <0>        -0.0433
     22 Cl1        -0.3342   -3.3890    6.5632 Cl        1 <0>        -0.0465
     23 H1          1.7828    0.0323   -0.9661 H         1 <0>         0.1280
     24 H2          0.7921   -1.4307   -1.1818 H         1 <0>         0.1221
     25 H3          0.2933    0.1014   -1.9382 H         1 <0>         0.1252
     26 H4         -0.6816    1.7151    1.1386 H         1 <0>         0.1247
     27 H5          0.9693    1.8263    0.4826 H         1 <0>         0.1262
     28 H6         -0.4312    1.9109   -0.6127 H         1 <0>         0.1236
     29 H7         -1.9750   -0.1666    0.8464 H         1 <0>         0.1430
     30 H8         -1.8085   -0.1538   -0.9257 H         1 <0>         0.1509
     31 H9         -2.3545   -2.4240   -0.1849 H         1 <0>         0.1127
     32 H10        -0.6810   -2.3930   -0.7902 H         1 <0>         0.0922
     33 H11        -1.6169   -3.9955   -0.3797 H         1 <0>         0.1306
     34 H12        -3.4409   -5.8970   -0.4556 H         1 <0>         0.1273
     35 H13        -3.7168   -8.2472   -0.7598 H         1 <0>         0.1349
     36 H14        -1.7987   -9.8433   -0.1996 H         1 <0>         0.1374
     37 H15         0.2703   -8.9655    0.6259 H         1 <0>         0.1368
     38 H16        -1.2182   -2.9062    3.8090 H         1 <0>         0.1431
     39 H17         1.3801   -5.5099    6.0091 H         1 <0>         0.1521
     40 H18         1.9826   -6.6694    3.8283 H         1 <0>         0.1546
     41 H19         0.4337   -0.4191    0.9477 H         1 <0>         0.4341
@<TRIPOS>BOND
     1    1    2 1
     2    1   23 1
     3    1   24 1
     4    1   25 1
     5    2    3 1
     6    2    4 1
     7    2   41 1
     8    3   26 1
     9    3   27 1
    10    3   28 1
    11    4    5 1
    12    4   29 1
    13    4   30 1
    14    5    6 1
    15    5   31 1
    16    5   32 1
    17    6    7 1
    18    7   17 1
    19    7    8 2
    20    8    9 1
    21    8   33 1
    22    9   14 ar
    23    9   10 ar
    24   10   11 ar
    25   10   34 1
    26   11   12 ar
    27   11   35 1
    28   12   13 ar
    29   12   36 1
    30   13   14 ar
    31   13   37 1
    32   14   15 1
    33   15   16 1
    34   16   21 ar
    35   16   17 ar
    36   17   18 ar
    37   18   19 ar
    38   18   38 1
    39   19   20 ar
    40   19   22 1
    41   20   21 ar
    42   20   39 1
    43   21   40 1
@<TRIPOS>MOLECULE
ZINC05974922
   37    41     0     0     0
SMALL
USER_CHARGES

@<TRIPOS>ATOM
      1 C1         -0.0165    1.3626    0.0095 C.ar      1 <0>        -0.1513
      2 C2          1.1700    2.0831    0.0021 C.ar      1 <0>        -0.0965
      3 C3          2.3851    1.4346   -0.0135 C.ar      1 <0>        -0.1356
      4 C4          2.4263    0.0434   -0.0214 C.ar      1 <0>         0.0925
      5 C5          1.2215   -0.6803   -0.0133 C.ar      1 <0>        -0.0857
      6 C6          0.0021   -0.0041    0.0020 C.ar      1 <0>        -0.0552
      7 C7          1.6009   -2.1018   -0.0255 C.2       1 <0>        -0.0890
      8 C8          2.9542   -2.1440   -0.0396 C.2       1 <0>         0.0608
      9 N1          3.4561   -0.8714   -0.0373 N.pl3     1 <0>        -0.5917
     10 H1          4.3995   -0.6461   -0.0461 H         1 <0>         0.4176
     11 C9          0.6787   -3.2643   -0.0224 C.2       1 <0>         0.0923
     12 C10         1.0449   -4.5725   -0.0284 C.2       1 <0>        -0.0496
     13 N2         -0.1124   -5.3107   -0.0218 N.pl3     1 <0>        -0.5702
     14 H2         -0.1781   -6.2785   -0.0235 H         1 <0>         0.4187
     15 C11        -1.1534   -4.4277   -0.0120 C.2       1 <0>         0.2945
     16 N3         -0.6667   -3.2060   -0.0074 N.2       1 <0>        -0.4648
     17 C12        -2.5855   -4.7846   -0.0029 C.2       1 <0>        -0.1028
     18 C13        -3.1098   -6.0378    0.0033 C.2       1 <0>         0.0811
     19 N4         -4.4712   -5.9673    0.0117 N.pl3     1 <0>        -0.5802
     20 H3         -5.0663   -6.7332    0.0176 H         1 <0>         0.4233
     21 C14        -4.8805   -4.6508    0.0113 C.ar      1 <0>         0.0970
     22 C15        -3.7252   -3.8512    0.0078 C.ar      1 <0>        -0.0601
     23 C16        -3.8373   -2.4623    0.0114 C.ar      1 <0>        -0.0468
     24 C17        -5.0848   -1.8788    0.0217 C.ar      1 <0>        -0.1198
     25 C18        -6.2274   -2.6675    0.0289 C.ar      1 <0>        -0.0648
     26 C19        -6.1315   -4.0427    0.0178 C.ar      1 <0>        -0.1003
     27 Br1        -7.9314   -1.8475    0.0442 Br        1 <0>        -0.0462
     28 H4         -0.9612    1.8857    0.0259 H         1 <0>         0.1219
     29 H5          1.1400    3.1626    0.0082 H         1 <0>         0.1238
     30 H6          3.3029    2.0038   -0.0199 H         1 <0>         0.1185
     31 H7         -0.9247   -0.5585    0.0083 H         1 <0>         0.1302
     32 H8          3.5478   -3.0462   -0.0510 H         1 <0>         0.1716
     33 H9          2.0537   -4.9581   -0.0373 H         1 <0>         0.1785
     34 H10        -2.5349   -6.9520    0.0014 H         1 <0>         0.1750
     35 H11        -2.9502   -1.8463    0.0066 H         1 <0>         0.1448
     36 H12        -5.1747   -0.8025    0.0246 H         1 <0>         0.1363
     37 H13        -7.0265   -4.6472    0.0245 H         1 <0>         0.1322
@<TRIPOS>BOND
     1    1    6 ar
     2    1    2 ar
     3    1   28 1
     4    2    3 ar
     5    2   29 1
     6    3    4 ar
     7    3   30 1
     8    4    9 1
     9    4    5 ar
    10    5    6 ar
    11    5    7 1
    12    6   31 1
    13    7    8 2
    14    7   11 1
    15    8    9 1
    16    8   32 1
    17    9   10 1
    18   11   16 1
    19   11   12 2
    20   12   13 1
    21   12   33 1
    22   13   14 1
    23   13   15 1
    24   15   16 2
    25   15   17 1
    26   17   22 1
    27   17   18 2
    28   18   19 1
    29   18   34 1
    30   19   20 1
    31   19   21 1
    32   21   26 ar
    33   21   22 ar
    34   22   23 ar
    35   23   24 ar
    36   23   35 1
    37   24   25 ar
    38   24   36 1
    39   25   26 ar
    40   25   27 1
    41   26   37 1
@<TRIPOS>MOLECULE
ZINC05974922
   38    42     0     0     0
SMALL
USER_CHARGES

@<TRIPOS>ATOM
      1 C1         -0.0165    1.3626    0.0095 C.ar      1 <0>        -0.1229
      2 C2          1.1700    2.0831    0.0021 C.ar      1 <0>        -0.0893
      3 C3          2.3851    1.4346   -0.0135 C.ar      1 <0>        -0.1167
      4 C4          2.4263    0.0434   -0.0214 C.ar      1 <0>         0.0951
      5 C5          1.2215   -0.6803   -0.0133 C.ar      1 <0>        -0.0800
      6 C6          0.0021   -0.0041    0.0020 C.ar      1 <0>        -0.0841
      7 C7          1.6009   -2.1018   -0.0255 C.2       1 <0>        -0.1668
      8 C8          2.9542   -2.1440   -0.0396 C.2       1 <0>         0.1126
      9 N1          3.4561   -0.8714   -0.0373 N.pl3     1 <0>        -0.5755
     10 H1          4.3995   -0.6461   -0.0461 H         1 <0>         0.4288
     11 C9          0.6787   -3.2643   -0.0224 C.2       1 <0>         0.1354
     12 C10        -0.4724   -3.3671    0.6916 C.2       1 <0>         0.0320
     13 N2         -1.0121   -4.5959    0.4035 N.pl3     1 <0>        -0.5110
     14 H2         -1.8367   -4.9608    0.7610 H         1 <0>         0.4626
     15 C11        -0.1713   -5.2079   -0.4807 C.cat     1 <0>         0.4281
     16 N3          0.8344   -4.3987   -0.7316 N.pl3     1 <0>        -0.4851
     17 C12        -0.3617   -6.5512   -1.0618 C.2       1 <0>        -0.2073
     18 C13         0.6104   -7.4525   -1.3589 C.2       1 <0>         0.1647
     19 N4          0.0491   -8.5803   -1.8797 N.pl3     1 <0>        -0.5591
     20 H3          0.5432   -9.3639   -2.1672 H         1 <0>         0.4373
     21 C14        -1.3218   -8.4471   -1.9388 C.ar      1 <0>         0.0981
     22 C15        -1.6435   -7.1788   -1.4269 C.ar      1 <0>        -0.0623
     23 C16        -2.9739   -6.7698   -1.3600 C.ar      1 <0>        -0.0847
     24 C17        -3.9702   -7.6155   -1.7948 C.ar      1 <0>        -0.0860
     25 C18        -3.6543   -8.8705   -2.2975 C.ar      1 <0>        -0.0668
     26 C19        -2.3419   -9.2853   -2.3765 C.ar      1 <0>        -0.0773
     27 Br1        -5.0364  -10.0179   -2.8884 Br        1 <0>        -0.0173
     28 H4         -0.9612    1.8857    0.0259 H         1 <0>         0.1317
     29 H5          1.1400    3.1626    0.0082 H         1 <0>         0.1353
     30 H6          3.3029    2.0038   -0.0199 H         1 <0>         0.1299
     31 H7         -0.9247   -0.5585    0.0083 H         1 <0>         0.1230
     32 H8          3.5478   -3.0462   -0.0510 H         1 <0>         0.1785
     33 H9         -0.8839   -2.6243    1.3589 H         1 <0>         0.2256
     34 H10         1.6684   -7.2985   -1.2058 H         1 <0>         0.1934
     35 H11        -3.2226   -5.7944   -0.9687 H         1 <0>         0.1308
     36 H12        -5.0021   -7.3011   -1.7441 H         1 <0>         0.1468
     37 H13        -2.1069  -10.2639   -2.7683 H         1 <0>         0.1450
     38 H14         1.5729   -4.5895   -1.3309 H         1 <0>         0.4575
@<TRIPOS>BOND
     1    1    6 ar
     2    1    2 ar
     3    1   28 1
     4    2    3 ar
     5    2   29 1
     6    3    4 ar
     7    3   30 1
     8    4    9 1
     9    4    5 ar
    10    5    6 ar
    11    5    7 1
    12    6   31 1
    13    7    8 2
    14    7   11 1
    15    8    9 1
    16    8   32 1
    17    9   10 1
    18   11   16 1
    19   11   12 2
    20   12   13 1
    21   12   33 1
    22   13   14 1
    23   13   15 1
    24   15   16 2
    25   15   17 1
    26   16   38 1
    27   17   22 1
    28   17   18 2
    29   18   19 1
    30   18   34 1
    31   19   20 1
    32   19   21 1
    33   21   26 ar
    34   21   22 ar
    35   22   23 ar
    36   23   24 ar
    37   23   35 1
    38   24   25 ar
    39   24   36 1
    40   25   26 ar
    41   25   27 1
    42   26   37 1
@<TRIPOS>MOLECULE
ZINC29482860
   25    26     0     0     0
SMALL
USER_CHARGES
(1R)-1-(aminomethyl)-1,3-dihydroisobenzofuran-4,5-diol
@<TRIPOS>ATOM
      1 C1         -1.2203    1.7507    0.0173 C.ar      1 <0>        -0.0789
      2 C2         -0.0126    1.0758    0.0080 C.ar      1 <0>        -0.1258
      3 C3          1.1779    1.7842    0.0004 C.ar      1 <0>         0.1560
      4 C4          1.1567    3.1768    0.0076 C.ar      1 <0>         0.1005
      5 C5         -0.0533    3.8450    0.0222 C.ar      1 <0>        -0.1898
      6 C6         -1.2416    3.1300    0.0298 C.ar      1 <0>        -0.1577
      7 C7         -2.3693    4.1357    0.0456 C.3       1 <0>         0.1089
      8 H1         -2.8005    4.2654    1.0492 H         1 <0>         0.1044
      9 O1         -1.7912    5.3852   -0.3745 O.3       1 <0>        -0.3648
     10 C8         -0.4126    5.3124    0.0329 C.3       1 <0>         0.1028
     11 C9         -3.4692    3.7097   -0.9289 C.3       1 <0>         0.0014
     12 N1         -4.5568    4.6968   -0.9016 N.4       1 <0>        -0.6850
     13 O2          2.3226    3.8769    0.0006 O.3       1 <0>        -0.5105
     14 O3          2.3651    1.1211   -0.0145 O.3       1 <0>        -0.4971
     15 H2         -2.1476    1.1970    0.0187 H         1 <0>         0.1343
     16 H3          0.0021   -0.0041    0.0020 H         1 <0>         0.1485
     17 H4         -0.2756    5.7160    1.0470 H         1 <0>         0.0909
     18 H5          0.2386    5.8545   -0.6685 H         1 <0>         0.1058
     19 H6         -3.0546    3.6489   -1.9460 H         1 <0>         0.1376
     20 H7         -3.8602    2.7250   -0.6329 H         1 <0>         0.1424
     21 H8         -5.3476    4.3905   -1.6022 H         1 <0>         0.4610
     22 H9         -4.1658    5.6814   -1.1976 H         1 <0>         0.4633
     23 H10         2.3038    4.9767    0.0063 H         1 <0>         0.4457
     24 H11         3.3098    1.6846   -0.0205 H         1 <0>         0.4506
     25 H12        -4.9714    4.7575    0.1155 H         1 <0>         0.4556
@<TRIPOS>BOND
     1    1    6 ar
     2    1    2 ar
     3    1   15 1
     4    2    3 ar
     5    2   16 1
     6    3    4 ar
     7    3   14 1
     8    4    5 ar
     9    4   13 1
    10    5   10 1
    11    5    6 ar
    12    6    7 1
    13    7    8 1
    14    7    9 1
    15    7   11 1
    16    9   10 1
    17   10   17 1
    18   10   18 1
    19   11   12 1
    20   11   19 1
    21   11   20 1
    22   12   21 1
    23   12   22 1
    24   12   25 1
    25   13   23 1
    26   14   24 1
@<TRIPOS>MOLECULE
ZINC29482863
   25    26     0     0     0
SMALL
USER_CHARGES
(1S)-1-(aminomethyl)-1,3-dihydroisobenzofuran-4,5-diol
@<TRIPOS>ATOM
      1 C1          0.3834   -0.1929   -2.8221 C.ar      1 <0>        -0.0790
      2 C2          0.9422   -0.4045   -4.0700 C.ar      1 <0>        -0.1259
      3 C3          1.0157    0.6352   -4.9825 C.ar      1 <0>         0.1560
      4 C4          0.5266    1.8938   -4.6412 C.ar      1 <0>         0.1005
      5 C5         -0.0301    2.0986   -3.3927 C.ar      1 <0>        -0.1896
      6 C6         -0.1008    1.0536   -2.4837 C.ar      1 <0>        -0.1578
      7 C7         -0.7527    1.5927   -1.2315 C.3       1 <0>         0.1090
      8 H1         -1.8153    1.3172   -1.1609 H         1 <0>         0.1038
      9 O1         -0.6515    3.0258   -1.3180 O.3       1 <0>        -0.3637
     10 C8         -0.6360    3.3128   -2.7284 C.3       1 <0>         0.1023
     11 C9         -0.0127    1.0858    0.0080 C.3       1 <0>         0.0011
     12 N1         -0.7003    1.5596    1.2166 N.4       1 <0>        -0.6853
     13 O2          0.5969    2.9180   -5.5332 O.3       1 <0>        -0.5105
     14 O3          1.5650    0.4275   -6.2091 O.3       1 <0>        -0.4971
     15 H2          0.3265   -1.0046   -2.1120 H         1 <0>         0.1342
     16 H3          1.3210   -1.3811   -4.3331 H         1 <0>         0.1485
     17 H4         -0.0192    4.1968   -2.9477 H         1 <0>         0.1058
     18 H5         -1.6542    3.4715   -3.1132 H         1 <0>         0.0908
     19 H6          0.0022   -0.0141    0.0019 H         1 <0>         0.1424
     20 H7          1.0193    1.4665    0.0002 H         1 <0>         0.1381
     21 H8         -0.1683    1.1952    2.1078 H         1 <0>         0.4612
     22 H9         -1.7323    1.1789    1.2244 H         1 <0>         0.4555
     23 H10         0.2101    3.9113   -5.2617 H         1 <0>         0.4458
     24 H11         1.6228    1.2538   -6.9329 H         1 <0>         0.4506
     25 H12        -0.7152    2.6595    1.2226 H         1 <0>         0.4631
@<TRIPOS>BOND
     1    1    6 ar
     2    1    2 ar
     3    1   15 1
     4    2    3 ar
     5    2   16 1
     6    3    4 ar
     7    3   14 1
     8    4    5 ar
     9    4   13 1
    10    5   10 1
    11    5    6 ar
    12    6    7 1
    13    7    8 1
    14    7    9 1
    15    7   11 1
    16    9   10 1
    17   10   17 1
    18   10   18 1
    19   11   12 1
    20   11   19 1
    21   11   20 1
    22   12   21 1
    23   12   22 1
    24   12   25 1
    25   13   23 1
    26   14   24 1
@<TRIPOS>MOLECULE
ZINC05996397
   26    26     0     0     0
SMALL
USER_CHARGES
2-fluoro-3-(1-hydroxy-2-methylamino-ethyl)-phenol
@<TRIPOS>ATOM
      1 C1          3.4944    1.6317   -1.2560 C.3       1 <0>        -0.0436
      2 C2          1.4227    1.6154   -0.0028 C.3       1 <0>        -0.0394
      3 C3         -0.0127    1.0858    0.0080 C.3       1 <0>         0.1366
      4 H1          0.0021   -0.0041    0.0020 H         1 <0>         0.1354
      5 C4         -0.7181    1.5718    1.2479 C.ar      1 <0>        -0.1631
      6 C5         -1.4916    2.7173    1.1990 C.ar      1 <0>        -0.0876
      7 C6         -2.1405    3.1651    2.3342 C.ar      1 <0>        -0.1005
      8 C7         -2.0185    2.4694    3.5223 C.ar      1 <0>        -0.0993
      9 C8         -1.2439    1.3211    3.5759 C.ar      1 <0>         0.0878
     10 C9         -0.5963    0.8691    2.4327 C.ar      1 <0>         0.0847
     11 F1          0.1550   -0.2528    2.4796 F         1 <0>        -0.1284
     12 O1         -1.1225    0.6353    4.7436 O.3       1 <0>        -0.4846
     13 O2         -0.7038    1.5592   -1.1497 O.3       1 <0>        -0.5431
     14 H2          3.9803    1.2663   -2.1607 H         1 <0>         0.1285
     15 H3          3.4940    2.7217   -1.2587 H         1 <0>         0.1229
     16 H4          4.0359    1.2708   -0.3816 H         1 <0>         0.1234
     17 H5          1.4079    2.7053    0.0031 H         1 <0>         0.1389
     18 H6          1.9499    1.2543    0.8802 H         1 <0>         0.1432
     19 H7         -1.5890    3.2626    0.2719 H         1 <0>         0.1390
     20 H8         -2.7441    4.0597    2.2927 H         1 <0>         0.1460
     21 H9         -2.5261    2.8205    4.4086 H         1 <0>         0.1501
     22 H10        -1.7937   -0.0494    4.8691 H         1 <0>         0.4032
     23 H11        -0.7557    2.5229   -1.2101 H         1 <0>         0.3897
     24 N1          2.1058    1.1355   -1.2190 N.4       1 <0>        -0.5150
     25 H12         2.1129    0.1088   -1.2207 H         1 <0>         0.4369
     26 H13         1.6024    1.4756   -2.0467 H         1 <0>         0.4384
@<TRIPOS>BOND
     1    1   14 1
     2    1   15 1
     3    1   16 1
     4    1   24 1
     5    2    3 1
     6    2   17 1
     7    2   18 1
     8    2   24 1
     9    3    4 1
    10    3    5 1
    11    3   13 1
    12    5   10 ar
    13    5    6 ar
    14    6    7 ar
    15    6   19 1
    16    7    8 ar
    17    7   20 1
    18    8    9 ar
    19    8   21 1
    20    9   10 ar
    21    9   12 1
    22   10   11 1
    23   12   22 1
    24   13   23 1
    25   24   25 1
    26   24   26 1
@<TRIPOS>MOLECULE
ZINC05996428
   26    26     0     0     0
SMALL
USER_CHARGES
2-fluoro-3-(1-hydroxy-2-methylamino-ethyl)-phenol
@<TRIPOS>ATOM
      1 C1         -0.0178    1.4648    0.0101 C.3       1 <0>        -0.0436
      2 C2         -1.3620   -0.5491    0.0121 C.3       1 <0>        -0.0390
      3 C3         -1.3005   -2.0779    0.0033 C.3       1 <0>         0.1368
      4 H1         -0.7050   -2.4126   -0.8460 H         1 <0>         0.1345
      5 C4         -2.6956   -2.6361   -0.1102 C.ar      1 <0>        -0.1630
      6 C5         -3.3873   -3.0050    1.0292 C.ar      1 <0>        -0.0872
      7 C6         -4.6692   -3.5121    0.9288 C.ar      1 <0>        -0.1004
      8 C7         -5.2599   -3.6627   -0.3117 C.ar      1 <0>        -0.0993
      9 C8         -4.5680   -3.2995   -1.4567 C.ar      1 <0>         0.0878
     10 C9         -3.2816   -2.7846   -1.3540 C.ar      1 <0>         0.0840
     11 F1         -2.6043   -2.4291   -2.4676 F         1 <0>        -0.1288
     12 O1         -5.1473   -3.4465   -2.6779 O.3       1 <0>        -0.4847
     13 O2         -0.7008   -2.5374    1.2162 O.3       1 <0>        -0.5426
     14 H2          1.0047    1.8421    0.0024 H         1 <0>         0.1285
     15 H3         -0.5450    1.8259   -0.8730 H         1 <0>         0.1234
     16 H4         -0.5280    1.8163    0.9069 H         1 <0>         0.1230
     17 H5         -1.8815   -0.2116    0.9089 H         1 <0>         0.1393
     18 H6         -1.8985   -0.2020   -0.8709 H         1 <0>         0.1425
     19 H7         -2.9266   -2.8925    1.9995 H         1 <0>         0.1393
     20 H8         -5.2084   -3.7954    1.8207 H         1 <0>         0.1461
     21 H9         -6.2600   -4.0628   -0.3889 H         1 <0>         0.1501
     22 H10        -4.9833   -4.3057   -3.0902 H         1 <0>         0.4033
     23 H11        -1.1787   -2.2757    2.0151 H         1 <0>         0.3901
     24 N1          0.0110   -0.0100    0.0019 N.4       1 <0>        -0.5156
     25 H12         0.5120   -0.3437    0.8337 H         1 <0>         0.4390
     26 H13         0.4960   -0.3346   -0.8429 H         1 <0>         0.4367
@<TRIPOS>BOND
     1    1   14 1
     2    1   15 1
     3    1   16 1
     4    1   24 1
     5    2    3 1
     6    2   17 1
     7    2   18 1
     8    2   24 1
     9    3    4 1
    10    3    5 1
    11    3   13 1
    12    5   10 ar
    13    5    6 ar
    14    6    7 ar
    15    6   19 1
    16    7    8 ar
    17    7   20 1
    18    8    9 ar
    19    8   21 1
    20    9   10 ar
    21    9   12 1
    22   10   11 1
    23   12   22 1
    24   13   23 1
    25   24   25 1
    26   24   26 1
@<TRIPOS>MOLECULE
ZINC04770290
   40    44     0     0     0
SMALL
USER_CHARGES

@<TRIPOS>ATOM
      1 C1         -0.0165    1.3626    0.0095 C.ar      1 <0>        -0.1486
      2 C2          1.1700    2.0830    0.0021 C.ar      1 <0>        -0.0971
      3 C3          2.3851    1.4345   -0.0130 C.ar      1 <0>        -0.1308
      4 C4          2.4263    0.0434   -0.0208 C.ar      1 <0>         0.0933
      5 C5          1.2215   -0.6802   -0.0132 C.ar      1 <0>        -0.0843
      6 C6          0.0021   -0.0041    0.0020 C.ar      1 <0>        -0.0609
      7 C7          1.6011   -2.1017   -0.0248 C.2       1 <0>        -0.0943
      8 C8          2.9547   -2.1435   -0.0382 C.2       1 <0>         0.0693
      9 N1          3.4560   -0.8716   -0.0359 N.pl3     1 <0>        -0.5894
     10 H1          4.3994   -0.6463   -0.0435 H         1 <0>         0.4194
     11 C9          0.6794   -3.2643   -0.0224 C.2       1 <0>         0.0898
     12 C10         1.0484   -4.5915   -0.0280 C.2       1 <0>        -0.0184
     13 N2         -0.1006   -5.3184   -0.0231 N.pl3     1 <0>        -0.5244
     14 H2         -0.1688   -6.2860   -0.0249 H         1 <0>         0.4323
     15 C11        -1.1416   -4.4332   -0.0148 C.2       1 <0>         0.1365
     16 N3         -0.6577   -3.2094   -0.0087 N.2       1 <0>        -0.4334
     17 C12        -2.5709   -4.7903   -0.0079 C.2       1 <0>         0.5145
     18 O1         -2.9061   -5.9611   -0.0094 O.2       1 <0>        -0.4653
     19 C13        -3.5913   -3.7347    0.0008 C.2       1 <0>        -0.2558
     20 C14        -3.3731   -2.3865   -0.0026 C.2       1 <0>         0.1609
     21 N4         -4.5590   -1.7309    0.0072 N.pl3     1 <0>        -0.5760
     22 H3         -4.6577   -0.7660    0.0070 H         1 <0>         0.4236
     23 C15        -5.6065   -2.6295    0.0175 C.ar      1 <0>         0.0953
     24 C16        -5.0547   -3.9208    0.0084 C.ar      1 <0>        -0.0681
     25 C17        -5.8861   -5.0377    0.0104 C.ar      1 <0>        -0.0553
     26 C18        -7.2535   -4.8719    0.0182 C.ar      1 <0>        -0.1568
     27 C19        -7.8045   -3.5941    0.0236 C.ar      1 <0>         0.1222
     28 C20        -6.9884   -2.4776    0.0296 C.ar      1 <0>        -0.1498
     29 O2         -9.1553   -3.4421    0.0304 O.3       1 <0>        -0.4966
     30 H4         -0.9611    1.8857    0.0259 H         1 <0>         0.1216
     31 H5          1.1400    3.1626    0.0078 H         1 <0>         0.1250
     32 H6          3.3030    2.0037   -0.0190 H         1 <0>         0.1203
     33 H7         -0.9247   -0.5585    0.0079 H         1 <0>         0.1241
     34 H8          3.5486   -3.0455   -0.0483 H         1 <0>         0.1740
     35 H9          2.0561   -4.9798   -0.0351 H         1 <0>         0.1886
     36 H10        -2.4019   -1.9142   -0.0114 H         1 <0>         0.2035
     37 H11        -5.4605   -6.0303    0.0055 H         1 <0>         0.1368
     38 H12        -7.9004   -5.7367    0.0198 H         1 <0>         0.1330
     39 H13        -7.4238   -1.4893    0.0324 H         1 <0>         0.1300
     40 H14        -9.5419   -3.4000    0.9158 H         1 <0>         0.3913
@<TRIPOS>BOND
     1    1    6 ar
     2    1    2 ar
     3    1   30 1
     4    2    3 ar
     5    2   31 1
     6    3    4 ar
     7    3   32 1
     8    4    9 1
     9    4    5 ar
    10    5    6 ar
    11    5    7 1
    12    6   33 1
    13    7    8 2
    14    7   11 1
    15    8    9 1
    16    8   34 1
    17    9   10 1
    18   11   16 1
    19   11   12 2
    20   12   13 1
    21   12   35 1
    22   13   14 1
    23   13   15 1
    24   15   16 2
    25   15   17 1
    26   17   18 2
    27   17   19 1
    28   19   24 1
    29   19   20 2
    30   20   21 1
    31   20   36 1
    32   21   22 1
    33   21   23 1
    34   23   28 ar
    35   23   24 ar
    36   24   25 ar
    37   25   26 ar
    38   25   37 1
    39   26   27 ar
    40   26   38 1
    41   27   28 ar
    42   27   29 1
    43   28   39 1
    44   29   40 1
@<TRIPOS>MOLECULE
ZINC00007042
   55    57     0     0     0
SMALL
USER_CHARGES

@<TRIPOS>ATOM
      1 C1          0.9053   -2.1839   -0.5875 C.3       1 <0>        -0.1797
      2 C2          0.6167   -1.9912    0.9026 C.3       1 <0>        -0.1474
      3 H1          1.2762   -2.6333    1.4865 H         1 <0>         0.1056
      4 C3          0.8590   -0.5295    1.2842 C.3       1 <0>        -0.0041
      5 N1          2.2860   -0.2145    1.1345 N.4       1 <0>        -0.3834
      6 C4          2.4939    1.2221    1.3526 C.3       1 <0>        -0.0059
      7 C5          3.9655    1.5697    1.1183 C.3       1 <0>        -0.1431
      8 C6          4.8345    0.7725    2.0953 C.3       1 <0>        -0.0940
      9 C7          4.5544   -0.7216    1.9099 C.3       1 <0>        -0.1449
     10 C8          3.0610   -0.9844    2.1149 C.3       1 <0>        -0.0119
     11 C9          6.3116    1.0550    1.8139 C.3       1 <0>        -0.0745
     12 C10         7.1610    0.3678    2.8519 C.ar      1 <0>        -0.0948
     13 C11         7.4909    1.0265    4.0215 C.ar      1 <0>        -0.1160
     14 C12         8.2701    0.3962    4.9736 C.ar      1 <0>        -0.1135
     15 C13         8.7190   -0.8931    4.7562 C.ar      1 <0>        -0.1162
     16 C14         8.3883   -1.5521    3.5870 C.ar      1 <0>        -0.1161
     17 C15         7.6056   -0.9234    2.6368 C.ar      1 <0>        -0.1216
     18 C16        -0.8401   -2.3590    1.1916 C.3       1 <0>         0.1644
     19 H2         -1.0708   -2.1379    2.2337 H         1 <0>         0.1182
     20 C17        -1.0481   -3.8288    0.9320 C.ar      1 <0>        -0.1428
     21 C18        -1.2202   -4.2835   -0.3624 C.ar      1 <0>        -0.0943
     22 C19        -1.4115   -5.6303   -0.6029 C.ar      1 <0>        -0.1416
     23 C20        -1.4304   -6.5269    0.4555 C.ar      1 <0>         0.1220
     24 C21        -1.2571   -6.0683    1.7533 C.ar      1 <0>        -0.1412
     25 C22        -1.0610   -4.7211    1.9881 C.ar      1 <0>        -0.0884
     26 O1         -1.6189   -7.8523    0.2215 O.3       1 <0>        -0.4965
     27 O2         -1.7010   -1.5986    0.3415 O.3       1 <0>        -0.5471
     28 H3          1.9189   -1.8486   -0.8076 H         1 <0>         0.0573
     29 H4          0.8082   -3.2391   -0.8429 H         1 <0>         0.0917
     30 H5          0.1946   -1.6013   -1.1736 H         1 <0>         0.0762
     31 H6          0.2735    0.1182    0.6317 H         1 <0>         0.1379
     32 H7          0.5583   -0.3697    2.3196 H         1 <0>         0.1323
     33 H8          1.8724    1.7882    0.6587 H         1 <0>         0.1313
     34 H9          2.2192    1.4772    2.3761 H         1 <0>         0.1292
     35 H10         4.2412    1.3152    0.0949 H         1 <0>         0.0887
     36 H11         4.1181    2.6364    1.2825 H         1 <0>         0.1142
     37 H12         4.5947    1.0642    3.1178 H         1 <0>         0.0913
     38 H13         4.8423   -1.0237    0.9030 H         1 <0>         0.0874
     39 H14         5.1280   -1.2928    2.6399 H         1 <0>         0.1154
     40 H15         2.7742   -0.6822    3.1221 H         1 <0>         0.1294
     41 H16         2.8582   -2.0473    1.9838 H         1 <0>         0.1296
     42 H17         6.5715    0.6786    0.8245 H         1 <0>         0.0781
     43 H18         6.4897    2.1296    1.8521 H         1 <0>         0.0834
     44 H19         7.1402    2.0338    4.1914 H         1 <0>         0.1217
     45 H20         8.5284    0.9111    5.8871 H         1 <0>         0.1255
     46 H21         9.3283   -1.3853    5.4998 H         1 <0>         0.1254
     47 H22         8.7393   -2.5593    3.4170 H         1 <0>         0.1243
     48 H23         7.3441   -1.4396    1.7249 H         1 <0>         0.1191
     49 H24        -1.2053   -3.5850   -1.1860 H         1 <0>         0.1253
     50 H25        -1.5465   -5.9848   -1.6141 H         1 <0>         0.1348
     51 H26        -1.2715   -6.7643    2.5790 H         1 <0>         0.1353
     52 H27        -0.9216   -4.3641    2.9978 H         1 <0>         0.1295
     53 H28        -0.8005   -8.3463    0.0759 H         1 <0>         0.3975
     54 H29        -1.5515   -1.7456   -0.6025 H         1 <0>         0.3783
     55 H30         2.5872   -0.4582    0.2029 H         1 <0>         0.4190
@<TRIPOS>BOND
     1    1    2 1
     2    1   28 1
     3    1   29 1
     4    1   30 1
     5    2    3 1
     6    2    4 1
     7    2   18 1
     8    4    5 1
     9    4   31 1
    10    4   32 1
    11    5   10 1
    12    5    6 1
    13    5   55 1
    14    6    7 1
    15    6   33 1
    16    6   34 1
    17    7    8 1
    18    7   35 1
    19    7   36 1
    20    8    9 1
    21    8   11 1
    22    8   37 1
    23    9   10 1
    24    9   38 1
    25    9   39 1
    26   10   40 1
    27   10   41 1
    28   11   12 1
    29   11   42 1
    30   11   43 1
    31   12   17 ar
    32   12   13 ar
    33   13   14 ar
    34   13   44 1
    35   14   15 ar
    36   14   45 1
    37   15   16 ar
    38   15   46 1
    39   16   17 ar
    40   16   47 1
    41   17   48 1
    42   18   19 1
    43   18   20 1
    44   18   27 1
    45   20   25 ar
    46   20   21 ar
    47   21   22 ar
    48   21   49 1
    49   22   23 ar
    50   22   50 1
    51   23   24 ar
    52   23   26 1
    53   24   25 ar
    54   24   51 1
    55   25   52 1
    56   26   53 1
    57   27   54 1
@<TRIPOS>MOLECULE
ZINC03781952
   75    78     0     0     0
SMALL
USER_CHARGES

@<TRIPOS>ATOM
      1 C1         -0.0187    1.5258    0.0104 C.3       1 <0>        -0.1407
      2 C2          0.0021   -0.0041    0.0020 C.3       1 <0>        -0.0385
      3 C3          0.7421   -0.5109    1.2415 C.3       1 <0>        -0.1408
      4 C4         -1.4333   -0.5336    0.0129 C.3       1 <0>        -0.1494
      5 C5          0.7074   -0.4901   -1.2379 C.ar      1 <0>        -0.0242
      6 C6          0.0318   -1.2851   -2.1472 C.ar      1 <0>        -0.1330
      7 C7          0.6704   -1.7342   -3.2838 C.ar      1 <0>        -0.0521
      8 C8          2.0042   -1.3838   -3.5167 C.ar      1 <0>        -0.1900
      9 C9          2.6798   -0.5797   -2.5932 C.ar      1 <0>        -0.0705
     10 C10         2.0257   -0.1343   -1.4640 C.ar      1 <0>        -0.1293
     11 C11         2.6933   -1.8592   -4.7271 C.2       1 <0>         0.4019
     12 O1          2.1046   -2.5566   -5.5255 O.2       1 <0>        -0.4523
     13 C12         4.1305   -1.4793   -4.9741 C.3       1 <0>        -0.1645
     14 C13         4.6026   -2.0988   -6.2911 C.3       1 <0>        -0.1428
     15 C14         6.0618   -1.7131   -6.5419 C.3       1 <0>        -0.0098
     16 N1          6.5150   -2.3078   -7.8064 N.4       1 <0>        -0.3848
     17 C15         5.7542   -1.7268   -8.9191 C.3       1 <0>        -0.0081
     18 C16         6.1653   -2.4008  -10.2299 C.3       1 <0>        -0.1447
     19 C17         7.6627   -2.1804  -10.4632 C.3       1 <0>         0.0798
     20 C18         8.4419   -2.7237   -9.2620 C.3       1 <0>        -0.1729
     21 C19         7.9464   -2.0378   -7.9870 C.3       1 <0>        -0.0020
     22 O2          8.0684   -2.8698  -11.6473 O.3       1 <0>        -0.3517
     23 C20         9.1590   -2.2528  -12.3343 C.3       1 <0>         0.1820
     24 C21         9.9653   -3.3078  -13.0469 C.ar      1 <0>        -0.0932
     25 C22         9.3246   -4.3510  -13.6889 C.ar      1 <0>        -0.0892
     26 C23        10.0641   -5.3188  -14.3426 C.ar      1 <0>        -0.1204
     27 C24        11.4443   -5.2432  -14.3547 C.ar      1 <0>        -0.1095
     28 C25        12.0850   -4.1995  -13.7134 C.ar      1 <0>        -0.1178
     29 C26        11.3453   -3.2294  -13.0634 C.ar      1 <0>        -0.1086
     30 C27         8.6252   -1.2645  -13.3391 C.ar      1 <0>        -0.1192
     31 C28         7.4409   -1.5250  -14.0028 C.ar      1 <0>        -0.0948
     32 C29         6.9513   -0.6186  -14.9244 C.ar      1 <0>        -0.1204
     33 C30         7.6457    0.5486  -15.1820 C.ar      1 <0>        -0.1107
     34 C31         8.8295    0.8095  -14.5177 C.ar      1 <0>        -0.1173
     35 C32         9.3169   -0.0949  -13.5929 C.ar      1 <0>        -0.1097
     36 H1          1.0039    1.9031    0.0027 H         1 <0>         0.0582
     37 H2         -0.5459    1.8868   -0.8726 H         1 <0>         0.0580
     38 H3         -0.5289    1.8773    0.9072 H         1 <0>         0.0652
     39 H4          0.2319   -0.1594    2.1383 H         1 <0>         0.0652
     40 H5          0.7568   -1.6008    1.2356 H         1 <0>         0.0581
     41 H6          1.7647   -0.1336    1.2338 H         1 <0>         0.0583
     42 H7         -1.9605   -0.1726   -0.8702 H         1 <0>         0.0608
     43 H8         -1.4185   -1.6235    0.0069 H         1 <0>         0.0608
     44 H9         -1.9435   -0.1821    0.9097 H         1 <0>         0.0648
     45 H10        -0.9981   -1.5548   -1.9660 H         1 <0>         0.1374
     46 H11         0.1421   -2.3551   -3.9922 H         1 <0>         0.1339
     47 H12         3.7100   -0.3052   -2.7660 H         1 <0>         0.1290
     48 H13         2.5448    0.4903   -0.7521 H         1 <0>         0.1310
     49 H14         4.2147   -0.3941   -5.0323 H         1 <0>         0.1108
     50 H15         4.7496   -1.8484   -4.1565 H         1 <0>         0.1112
     51 H16         4.5185   -3.1840   -6.2329 H         1 <0>         0.0947
     52 H17         3.9835   -1.7296   -7.1087 H         1 <0>         0.0945
     53 H18         6.1459   -0.6279   -6.6001 H         1 <0>         0.1318
     54 H19         6.6809   -2.0822   -5.7243 H         1 <0>         0.1338
     55 H20         4.6886   -1.8817   -8.7500 H         1 <0>         0.1392
     56 H21         5.9600   -0.6582   -8.9805 H         1 <0>         0.1309
     57 H22         5.9598   -3.4696  -10.1697 H         1 <0>         0.0986
     58 H23         5.6006   -1.9668  -11.0551 H         1 <0>         0.1191
     59 H24         7.8612   -1.1144  -10.5745 H         1 <0>         0.0798
     60 H25         8.2836   -3.7992   -9.1817 H         1 <0>         0.0990
     61 H26         9.5044   -2.5205   -9.3953 H         1 <0>         0.1130
     62 H27         8.1054   -0.9625   -8.0683 H         1 <0>         0.1296
     63 H28         8.4993   -2.4221   -7.1299 H         1 <0>         0.1347
     64 H29         9.7938   -1.7338  -11.6162 H         1 <0>         0.0781
     65 H30         8.2462   -4.4101  -13.6795 H         1 <0>         0.1238
     66 H31         9.5636   -6.1342  -14.8436 H         1 <0>         0.1255
     67 H32        12.0222   -5.9997  -14.8648 H         1 <0>         0.1260
     68 H33        13.1634   -4.1406  -13.7226 H         1 <0>         0.1268
     69 H34        11.8457   -2.4119  -12.5656 H         1 <0>         0.1207
     70 H35         6.8984   -2.4369  -13.8015 H         1 <0>         0.1247
     71 H36         6.0264   -0.8224  -15.4435 H         1 <0>         0.1249
     72 H37         7.2635    1.2565  -15.9026 H         1 <0>         0.1255
     73 H38         9.3722    1.7213  -14.7192 H         1 <0>         0.1260
     74 H39        10.2399    0.1106  -13.0711 H         1 <0>         0.1206
     75 H40         6.3624   -3.3049   -7.7817 H         1 <0>         0.4252
@<TRIPOS>BOND
     1    1    2 1
     2    1   36 1
     3    1   37 1
     4    1   38 1
     5    2    3 1
     6    2    4 1
     7    2    5 1
     8    3   39 1
     9    3   40 1
    10    3   41 1
    11    4   42 1
    12    4   43 1
    13    4   44 1
    14    5   10 ar
    15    5    6 ar
    16    6    7 ar
    17    6   45 1
    18    7    8 ar
    19    7   46 1
    20    8    9 ar
    21    8   11 1
    22    9   10 ar
    23    9   47 1
    24   10   48 1
    25   11   12 2
    26   11   13 1
    27   13   14 1
    28   13   49 1
    29   13   50 1
    30   14   15 1
    31   14   51 1
    32   14   52 1
    33   15   16 1
    34   15   53 1
    35   15   54 1
    36   16   21 1
    37   16   17 1
    38   16   75 1
    39   17   18 1
    40   17   55 1
    41   17   56 1
    42   18   19 1
    43   18   57 1
    44   18   58 1
    45   19   20 1
    46   19   22 1
    47   19   59 1
    48   20   21 1
    49   20   60 1
    50   20   61 1
    51   21   62 1
    52   21   63 1
    53   22   23 1
    54   23   24 1
    55   23   30 1
    56   23   64 1
    57   24   29 ar
    58   24   25 ar
    59   25   26 ar
    60   25   65 1
    61   26   27 ar
    62   26   66 1
    63   27   28 ar
    64   27   67 1
    65   28   29 ar
    66   28   68 1
    67   29   69 1
    68   30   35 ar
    69   30   31 ar
    70   31   32 ar
    71   31   70 1
    72   32   33 ar
    73   32   71 1
    74   33   34 ar
    75   33   72 1
    76   34   35 ar
    77   34   73 1
    78   35   74 1
@<TRIPOS>MOLECULE
ZINC13779792
   37    38     0     0     0
SMALL
USER_CHARGES
2-[(4-tert-butylphenyl)methyl]-4,5-dihydro-1H-imidazole
@<TRIPOS>ATOM
      1 C1          5.5663   -3.2054    0.6563 C.3       1 <0>        -0.1430
      2 C2          5.4759   -1.8553   -0.0578 C.3       1 <0>        -0.0377
      3 C3          5.9456   -2.0117   -1.5055 C.3       1 <0>        -0.1496
      4 C4          6.3654   -0.8381    0.6599 C.3       1 <0>        -0.1415
      5 C5          4.0481   -1.3733   -0.0422 C.ar      1 <0>        -0.0373
      6 C6          3.4045   -1.1579    1.1620 C.ar      1 <0>        -0.1112
      7 C7          2.0951   -0.7149    1.1763 C.ar      1 <0>        -0.1001
      8 C8          1.4295   -0.4870   -0.0136 C.ar      1 <0>        -0.1536
      9 C9          2.0714   -0.7075   -1.2178 C.ar      1 <0>        -0.0996
     10 C10         3.3822   -1.1463   -1.2322 C.ar      1 <0>        -0.1172
     11 C11         0.0021   -0.0041    0.0020 C.3       1 <0>        -0.0593
     12 C12        -0.0184    1.5028    0.0103 C.cat     1 <0>         0.5156
     13 C13         0.7133    3.6406    0.0148 C.3       1 <0>         0.0489
     14 C14        -0.8288    3.6551    0.0296 C.3       1 <0>         0.0669
     15 N1         -1.1750    2.2235    0.0194 N.pl3     1 <0>        -0.6669
     16 H1          4.9326   -3.9300    0.1450 H         1 <0>         0.0591
     17 H2          6.5990   -3.5540    0.6450 H         1 <0>         0.0667
     18 H3          5.2317   -3.0940    1.6877 H         1 <0>         0.0588
     19 H4          5.8812   -1.0498   -2.0143 H         1 <0>         0.0594
     20 H5          6.9783   -2.3602   -1.5168 H         1 <0>         0.0663
     21 H6          5.3119   -2.7363   -2.0169 H         1 <0>         0.0611
     22 H7          6.0308   -0.7267    1.6912 H         1 <0>         0.0584
     23 H8          7.3981   -1.1867    0.6486 H         1 <0>         0.0669
     24 H9          6.3010    0.1237    0.1511 H         1 <0>         0.0565
     25 H10         3.9247   -1.3353    2.0917 H         1 <0>         0.1328
     26 H11         1.5923   -0.5466    2.1172 H         1 <0>         0.1293
     27 H12         1.5500   -0.5336   -2.1475 H         1 <0>         0.1293
     28 H13         3.8852   -1.3143   -2.1730 H         1 <0>         0.1383
     29 H14        -0.4986   -0.3791    0.8946 H         1 <0>         0.1405
     30 H15        -0.5149   -0.3696   -0.8853 H         1 <0>         0.1405
     31 H16         1.1091    4.1206    0.9099 H         1 <0>         0.1272
     32 H17         1.0942    4.1307   -0.8812 H         1 <0>         0.1274
     33 H18        -1.2009    4.1387    0.9328 H         1 <0>         0.1215
     34 H19        -1.2180    4.1510   -0.8596 H         1 <0>         0.1214
     35 H20        -2.0728    1.8563    0.0211 H         1 <0>         0.4580
     36 N2          1.0555    2.2084    0.0038 N.pl3     1 <0>        -0.6086
     37 H21         2.0099    1.8300   -0.0073 H         1 <0>         0.4750
@<TRIPOS>BOND
     1    1    2 1
     2    1   16 1
     3    1   17 1
     4    1   18 1
     5    2    3 1
     6    2    4 1
     7    2    5 1
     8    3   19 1
     9    3   20 1
    10    3   21 1
    11    4   22 1
    12    4   23 1
    13    4   24 1
    14    5   10 ar
    15    5    6 ar
    16    6    7 ar
    17    6   25 1
    18    7    8 ar
    19    7   26 1
    20    8    9 ar
    21    8   11 1
    22    9   10 ar
    23    9   27 1
    24   10   28 1
    25   11   12 1
    26   11   29 1
    27   11   30 1
    28   12   15 1
    29   12   36 2
    30   13   14 1
    31   13   31 1
    32   13   32 1
    33   13   36 1
    34   14   15 1
    35   14   33 1
    36   14   34 1
    37   15   35 1
    38   36   37 1
