@<TRIPOS>MOLECULE
ZINC03977785
   53    57     0     0     0
SMALL
USER_CHARGES

@<TRIPOS>ATOM
      1 C1         -0.0173    1.4248    0.0099 C.3       1 <0>         0.0297
      2 O1          0.0021   -0.0041    0.0020 O.3       1 <0>        -0.3232
      3 C2          0.5984   -0.5997   -1.0427 C.2       1 <0>         0.4702
      4 O2          1.0877    0.0699   -1.9214 O.2       1 <0>        -0.5141
      5 C3          0.6575   -2.1036   -1.1196 C.3       1 <0>        -0.0705
      6 H1         -0.3553   -2.5061   -1.1292 H         1 <0>         0.1302
      7 C4          1.4092   -2.6460    0.0974 C.3       1 <0>         0.1112
      8 H2          2.4212   -2.2414    0.1100 H         1 <0>         0.0602
      9 C5          1.4705   -4.1729    0.0153 C.3       1 <0>        -0.1515
     10 C6          2.2113   -4.5823   -1.2587 C.3       1 <0>        -0.1326
     11 C7          1.4664   -4.0438   -2.4826 C.3       1 <0>        -0.1081
     12 H3          0.4649   -4.4724   -2.5190 H         1 <0>         0.1315
     13 C8          1.3810   -2.5185   -2.3989 C.3       1 <0>        -0.0737
     14 H4          0.8319   -2.1415   -3.2617 H         1 <0>         0.1077
     15 C9          2.7928   -1.9262   -2.4160 C.3       1 <0>        -0.1589
     16 C10         3.5103   -2.3981   -3.6821 C.3       1 <0>         0.1155
     17 H5          2.9548   -2.0679   -4.5599 H         1 <0>         0.1495
     18 C11         4.9074   -1.8328   -3.7280 C.2       1 <0>         0.0218
     19 C12         5.9794   -2.5662   -4.1107 C.2       1 <0>        -0.1593
     20 C13         7.1369   -1.7045   -4.0313 C.ar      1 <0>        -0.1001
     21 C14         8.4945   -1.9085   -4.2980 C.ar      1 <0>        -0.0651
     22 C15         9.3323   -0.8371   -4.1111 C.ar      1 <0>        -0.1355
     23 C16         8.8675    0.3940   -3.6782 C.ar      1 <0>        -0.0814
     24 C17         7.5302    0.6240   -3.4055 C.ar      1 <0>        -0.1278
     25 C18         6.6557   -0.4455   -3.5858 C.ar      1 <0>         0.1112
     26 N1          5.3059   -0.5632   -3.4122 N.pl3     1 <0>        -0.5610
     27 H6          4.7183    0.1471   -3.1102 H         1 <0>         0.4235
     28 C19         5.8873   -4.0118   -4.5303 C.3       1 <0>        -0.0680
     29 C20         4.4103   -4.3357   -4.7986 C.3       1 <0>        -0.0070
     30 N2          3.5921   -3.8652   -3.6762 N.4       1 <0>        -0.3805
     31 C21         2.2397   -4.4350   -3.7475 C.3       1 <0>         0.0000
     32 O3          0.7259   -2.2590    1.2913 O.3       1 <0>        -0.5457
     33 H7          1.0053    1.8021    0.0021 H         1 <0>         0.0611
     34 H8         -0.5445    1.7859   -0.8732 H         1 <0>         0.0635
     35 H9         -0.5275    1.7763    0.9067 H         1 <0>         0.1087
     36 H10         1.9994   -4.5630    0.8849 H         1 <0>         0.0864
     37 H11         0.4583   -4.5769   -0.0067 H         1 <0>         0.0895
     38 H12         3.2209   -4.1721   -1.2390 H         1 <0>         0.0596
     39 H13         2.2629   -5.6696   -1.3148 H         1 <0>         0.0926
     40 H14         2.7325   -0.8379   -2.4143 H         1 <0>         0.1358
     41 H15         3.3417   -2.2650   -1.5373 H         1 <0>         0.0927
     42 H16         8.8666   -2.8645   -4.6357 H         1 <0>         0.1349
     43 H17        10.3874   -0.9579   -4.3074 H         1 <0>         0.1281
     44 H18         9.5726    1.2018   -3.5488 H         1 <0>         0.1313
     45 H19         7.1805    1.5885   -3.0678 H         1 <0>         0.1353
     46 H20         6.4698   -4.1697   -5.4380 H         1 <0>         0.1220
     47 H21         6.2658   -4.6516   -3.7331 H         1 <0>         0.0994
     48 H22         4.0893   -3.8376   -5.7134 H         1 <0>         0.1324
     49 H23         4.2888   -5.4132   -4.9094 H         1 <0>         0.1402
     50 H24         2.3054   -5.5210   -3.8133 H         1 <0>         0.1424
     51 H25         1.7237   -4.0459   -4.6252 H         1 <0>         0.1366
     52 H26         1.1478   -2.5695    2.1041 H         1 <0>         0.3887
     53 H27         4.0203   -4.1656   -2.8134 H         1 <0>         0.4208
@<TRIPOS>BOND
     1    1    2 1
     2    1   33 1
     3    1   34 1
     4    1   35 1
     5    2    3 1
     6    3    4 2
     7    3    5 1
     8    5    6 1
     9    5   13 1
    10    5    7 1
    11    7    8 1
    12    7    9 1
    13    7   32 1
    14    9   10 1
    15    9   36 1
    16    9   37 1
    17   10   11 1
    18   10   38 1
    19   10   39 1
    20   11   12 1
    21   11   31 1
    22   11   13 1
    23   13   14 1
    24   13   15 1
    25   15   16 1
    26   15   40 1
    27   15   41 1
    28   16   17 1
    29   16   30 1
    30   16   18 1
    31   18   26 1
    32   18   19 2
    33   19   20 1
    34   19   28 1
    35   20   25 ar
    36   20   21 ar
    37   21   22 ar
    38   21   42 1
    39   22   23 ar
    40   22   43 1
    41   23   24 ar
    42   23   44 1
    43   24   25 ar
    44   24   45 1
    45   25   26 1
    46   26   27 1
    47   28   29 1
    48   28   46 1
    49   28   47 1
    50   29   30 1
    51   29   48 1
    52   29   49 1
    53   30   31 1
    54   30   53 1
    55   31   50 1
    56   31   51 1
    57   32   52 1
@<TRIPOS>MOLECULE
ZINC05117657
   29    31     0     0     0
SMALL
USER_CHARGES
8-piperazin-1-ylimidazo[1,2-a]pyrazine
@<TRIPOS>ATOM
      1 C1         -0.0126    1.0758    0.0080 C.2       1 <0>         0.0362
      2 C2         -1.1228    1.8517    0.0168 C.2       1 <0>        -0.0561
      3 N1         -0.7065    3.1468    0.0257 N.pl3     1 <0>        -0.3436
      4 C3         -1.3609    4.3513    0.0380 C.2       1 <0>         0.0026
      5 C4         -0.6556    5.4994    0.0371 C.2       1 <0>         0.0618
      6 N2          0.6815    5.4944    0.0243 N.2       1 <0>        -0.5008
      7 C5          1.3611    4.3655    0.0121 C.2       1 <0>         0.3834
      8 C6          0.6649    3.1304    0.0125 C.2       1 <0>         0.1525
      9 N3          1.0593    1.8691    0.0020 N.2       1 <0>        -0.4591
     10 N4          2.7467    4.3854   -0.0015 N.pl3     1 <0>        -0.4617
     11 C7          3.2729    3.6358   -1.1507 C.3       1 <0>         0.0240
     12 C8          4.8019    3.6144   -1.0856 C.3       1 <0>         0.0048
     13 C9          4.7827    5.7434    0.0659 C.3       1 <0>        -0.0006
     14 C10         3.2537    5.7647    0.0008 C.3       1 <0>         0.0348
     15 H1          0.0021   -0.0041    0.0020 H         1 <0>         0.1945
     16 H2         -2.1463    1.5069    0.0187 H         1 <0>         0.1965
     17 H3         -2.4405    4.3800    0.0481 H         1 <0>         0.1809
     18 H4         -1.1810    6.4429    0.0472 H         1 <0>         0.1881
     19 H5          2.8935    2.6144   -1.1232 H         1 <0>         0.1475
     20 H6          2.9550    4.1174   -2.0754 H         1 <0>         0.0713
     21 H7          5.1954    3.0837   -1.9526 H         1 <0>         0.1454
     22 H8          5.1200    3.1086   -0.1740 H         1 <0>         0.1445
     23 H9          5.1621    6.7648    0.0384 H         1 <0>         0.1447
     24 H10         5.1006    5.2621    0.9907 H         1 <0>         0.1411
     25 H11         2.9356    6.2706   -0.9109 H         1 <0>         0.0805
     26 H12         2.8602    6.2954    0.8677 H         1 <0>         0.1347
     27 N5          5.3150    4.9975   -1.0902 N.4       1 <0>        -0.5204
     28 H13         5.0244    5.4640   -1.9575 H         1 <0>         0.4316
     29 H14         6.3403    4.9789   -1.0386 H         1 <0>         0.4408
@<TRIPOS>BOND
     1    1    9 1
     2    1    2 2
     3    1   15 1
     4    2    3 1
     5    2   16 1
     6    3    8 1
     7    3    4 1
     8    4    5 2
     9    4   17 1
    10    5    6 1
    11    5   18 1
    12    6    7 2
    13    7    8 1
    14    7   10 1
    15    8    9 2
    16   10   14 1
    17   10   11 1
    18   11   12 1
    19   11   19 1
    20   11   20 1
    21   12   21 1
    22   12   22 1
    23   12   27 1
    24   13   14 1
    25   13   23 1
    26   13   24 1
    27   13   27 1
    28   14   25 1
    29   14   26 1
    30   27   28 1
    31   27   29 1
@<TRIPOS>MOLECULE
ZINC05117657
   30    32     0     0     0
SMALL
USER_CHARGES
8-piperazin-1-ylimidazo[1,2-a]pyrazine
@<TRIPOS>ATOM
      1 C1         -0.0126    1.0758    0.0080 C.2       1 <0>         0.0897
      2 C2         -1.1228    1.8517    0.0168 C.2       1 <0>         0.0019
      3 N1         -0.7065    3.1468    0.0257 N.pl3     1 <0>        -0.2882
      4 C3         -1.3609    4.3513    0.0380 C.2       1 <0>         0.0288
      5 C4         -0.6556    5.4994    0.0371 C.2       1 <0>         0.1118
      6 N2          0.6815    5.4944    0.0243 N.2       1 <0>        -0.4399
      7 C5          1.3611    4.3655    0.0121 C.2       1 <0>         0.3599
      8 C6          0.6649    3.1304    0.0125 C.cat     1 <0>         0.2194
      9 N3          2.7467    4.3854   -0.0015 N.pl3     1 <0>        -0.4741
     10 C7          3.2729    3.6358   -1.1507 C.3       1 <0>         0.0180
     11 C8          4.8019    3.6144   -1.0856 C.3       1 <0>         0.0023
     12 C9          4.7827    5.7434    0.0659 C.3       1 <0>        -0.0029
     13 C10         3.2537    5.7647    0.0008 C.3       1 <0>         0.0346
     14 H1          0.0021   -0.0041    0.0020 H         1 <0>         0.2440
     15 H2         -2.1463    1.5069    0.0187 H         1 <0>         0.2411
     16 H3         -2.4405    4.3800    0.0481 H         1 <0>         0.2200
     17 H4         -1.1810    6.4429    0.0472 H         1 <0>         0.2203
     18 H5          2.8935    2.6144   -1.1232 H         1 <0>         0.1109
     19 H6          2.9550    4.1174   -2.0754 H         1 <0>         0.0949
     20 H7          5.1954    3.0837   -1.9526 H         1 <0>         0.1557
     21 H8          5.1200    3.1086   -0.1740 H         1 <0>         0.1486
     22 H9          5.1621    6.7648    0.0384 H         1 <0>         0.1564
     23 H10         5.1006    5.2621    0.9907 H         1 <0>         0.1466
     24 H11         2.9356    6.2706   -0.9109 H         1 <0>         0.0943
     25 H12         2.8602    6.2954    0.8677 H         1 <0>         0.1454
     26 N4          5.3150    4.9975   -1.0902 N.4       1 <0>        -0.5213
     27 H13         5.0244    5.4640   -1.9575 H         1 <0>         0.4369
     28 H14         6.3403    4.9789   -1.0386 H         1 <0>         0.4514
     29 N5          1.0573    1.8697    0.0020 N.pl3     1 <0>        -0.4842
     30 H15         2.0334    1.5514   -0.0090 H         1 <0>         0.4776
@<TRIPOS>BOND
     1    1    2 2
     2    1   14 1
     3    1   29 1
     4    2    3 1
     5    2   15 1
     6    3    8 1
     7    3    4 1
     8    4    5 2
     9    4   16 1
    10    5    6 1
    11    5   17 1
    12    6    7 2
    13    7    8 1
    14    7    9 1
    15    8   29 2
    16    9   13 1
    17    9   10 1
    18   10   11 1
    19   10   18 1
    20   10   19 1
    21   11   20 1
    22   11   21 1
    23   11   26 1
    24   12   13 1
    25   12   22 1
    26   12   23 1
    27   12   26 1
    28   13   24 1
    29   13   25 1
    30   26   27 1
    31   26   28 1
    32   29   30 1
@<TRIPOS>MOLECULE
ZINC03860825
   53    57     0     0     0
SMALL
USER_CHARGES

@<TRIPOS>ATOM
      1 C1         -0.0173    1.4248    0.0099 C.3       1 <0>         0.0327
      2 O1          0.0021   -0.0041    0.0020 O.3       1 <0>        -0.3479
      3 C2          0.5984   -0.5997   -1.0427 C.2       1 <0>         0.4737
      4 O2          1.0877    0.0699   -1.9214 O.2       1 <0>        -0.5039
      5 C3          0.6575   -2.1036   -1.1196 C.3       1 <0>        -0.0650
      6 H1          1.1947   -2.4917   -0.2542 H         1 <0>         0.1260
      7 C4         -0.7643   -2.6714   -1.1364 C.3       1 <0>         0.1104
      8 H2         -1.2823   -2.3789   -0.2230 H         1 <0>         0.0803
      9 C5         -0.7098   -4.1973   -1.2238 C.3       1 <0>        -0.1531
     10 C6          0.0283   -4.6160   -2.4980 C.3       1 <0>        -0.1090
     11 C7          1.4478   -4.0496   -2.4652 C.3       1 <0>        -0.1066
     12 H3          1.9678   -4.4265   -1.5844 H         1 <0>         0.0984
     13 C8          1.3811   -2.5214   -2.3995 C.3       1 <0>        -0.0762
     14 H4          0.8340   -2.1460   -3.2643 H         1 <0>         0.1112
     15 C9          2.8021   -1.9525   -2.4146 C.3       1 <0>        -0.1520
     16 C10         3.5142   -2.4494   -3.6743 C.3       1 <0>         0.1158
     17 H5          2.9655   -2.1183   -4.5560 H         1 <0>         0.1480
     18 C11         4.9207   -1.9091   -3.7260 C.2       1 <0>         0.0226
     19 C12         5.9775   -2.6629   -4.1115 C.2       1 <0>        -0.1599
     20 C13         7.1508   -1.8219   -4.0411 C.ar      1 <0>        -0.1001
     21 C14         8.5026   -2.0504   -4.3178 C.ar      1 <0>        -0.0652
     22 C15         9.3608   -0.9941   -4.1376 C.ar      1 <0>        -0.1357
     23 C16         8.9212    0.2451   -3.7015 C.ar      1 <0>        -0.0818
     24 C17         7.5903    0.4991   -3.4190 C.ar      1 <0>        -0.1277
     25 C18         6.6952   -0.5542   -3.5938 C.ar      1 <0>         0.1109
     26 N1          5.3444   -0.6471   -3.4127 N.pl3     1 <0>        -0.5612
     27 H6          4.7717    0.0739   -3.1078 H         1 <0>         0.4234
     28 C19         5.8580   -4.1083   -4.5249 C.3       1 <0>        -0.0677
     29 C20         4.3745   -4.4075   -4.7852 C.3       1 <0>        -0.0061
     30 N2          3.5745   -3.9171   -3.6582 N.4       1 <0>        -0.3774
     31 C21         2.2119   -4.4657   -3.7230 C.3       1 <0>         0.0006
     32 O3         -1.4686   -2.1563   -2.2680 O.3       1 <0>        -0.5638
     33 H7          1.0053    1.8021    0.0021 H         1 <0>         0.0628
     34 H8         -0.5445    1.7859   -0.8732 H         1 <0>         0.0656
     35 H9         -0.5275    1.7763    0.9067 H         1 <0>         0.1087
     36 H10        -0.1842   -4.5917   -0.3542 H         1 <0>         0.0829
     37 H11        -1.7242   -4.5957   -1.2448 H         1 <0>         0.0871
     38 H12         0.0713   -5.7038   -2.5532 H         1 <0>         0.0818
     39 H13        -0.4991   -4.2269   -3.3690 H         1 <0>         0.0847
     40 H14         2.7600   -0.8634   -2.4237 H         1 <0>         0.1318
     41 H15         3.3419   -2.2929   -1.5309 H         1 <0>         0.0903
     42 H16         8.8550   -3.0132   -4.6571 H         1 <0>         0.1348
     43 H17        10.4120   -1.1338   -4.3420 H         1 <0>         0.1279
     44 H18         9.6417    1.0401   -3.5774 H         1 <0>         0.1311
     45 H19         7.2605    1.4697   -3.0791 H         1 <0>         0.1352
     46 H20         6.4334   -4.2800   -5.4346 H         1 <0>         0.1209
     47 H21         6.2289   -4.7515   -3.7269 H         1 <0>         0.0998
     48 H22         4.0584   -3.9085   -5.7013 H         1 <0>         0.1319
     49 H23         4.2337   -5.4833   -4.8902 H         1 <0>         0.1399
     50 H24         2.2638   -5.5532   -3.7749 H         1 <0>         0.1399
     51 H25         1.6991   -4.0815   -4.6048 H         1 <0>         0.1347
     52 H26        -2.3787   -2.4743   -2.3430 H         1 <0>         0.3915
     53 H27         4.0031   -4.2176   -2.7956 H         1 <0>         0.4231
@<TRIPOS>BOND
     1    1    2 1
     2    1   33 1
     3    1   34 1
     4    1   35 1
     5    2    3 1
     6    3    4 2
     7    3    5 1
     8    5    6 1
     9    5   13 1
    10    5    7 1
    11    7    8 1
    12    7    9 1
    13    7   32 1
    14    9   10 1
    15    9   36 1
    16    9   37 1
    17   10   11 1
    18   10   38 1
    19   10   39 1
    20   11   12 1
    21   11   31 1
    22   11   13 1
    23   13   14 1
    24   13   15 1
    25   15   16 1
    26   15   40 1
    27   15   41 1
    28   16   17 1
    29   16   30 1
    30   16   18 1
    31   18   26 1
    32   18   19 2
    33   19   20 1
    34   19   28 1
    35   20   25 ar
    36   20   21 ar
    37   21   22 ar
    38   21   42 1
    39   22   23 ar
    40   22   43 1
    41   23   24 ar
    42   23   44 1
    43   24   25 ar
    44   24   45 1
    45   25   26 1
    46   26   27 1
    47   28   29 1
    48   28   46 1
    49   28   47 1
    50   29   30 1
    51   29   48 1
    52   29   49 1
    53   30   31 1
    54   30   53 1
    55   31   50 1
    56   31   51 1
    57   32   52 1
@<TRIPOS>MOLECULE
ZINC13470092
   30    31     0     0     0
SMALL
USER_CHARGES
2-(1-methyl-4-piperidyl)pyridine
@<TRIPOS>ATOM
      1 C1         -4.0523    5.2601    0.7555 C.3       1 <0>        -0.0424
      2 C2         -3.0253    3.1840    1.4595 C.3       1 <0>         0.0003
      3 C3         -1.7151    2.3932    1.4606 C.3       1 <0>        -0.1386
      4 C4         -1.3359    2.0412    0.0195 C.3       1 <0>        -0.0457
      5 C5         -1.2169    3.3297   -0.7993 C.3       1 <0>        -0.1453
      6 C6         -2.5411    4.0941   -0.7336 C.3       1 <0>         0.0000
      7 C7         -0.0158    1.3143    0.0093 C.ar      1 <0>         0.1171
      8 C8          1.1622    2.0375    0.0019 C.ar      1 <0>        -0.1732
      9 C9          2.3711    1.3591   -0.0129 C.ar      1 <0>        -0.0684
     10 C10         2.3499   -0.0274   -0.0202 C.ar      1 <0>        -0.1630
     11 C11         1.1331   -0.6822   -0.0125 C.ar      1 <0>         0.1096
     12 N1          0.0021   -0.0041    0.0020 N.ar      1 <0>        -0.4790
     13 H1         -4.2220    5.5387    1.7955 H         1 <0>         0.1221
     14 H2         -3.9024    6.1595    0.1582 H         1 <0>         0.1222
     15 H3         -4.9177    4.7144    0.3796 H         1 <0>         0.1233
     16 H4         -3.8173    2.5740    1.0252 H         1 <0>         0.1327
     17 H5         -3.2907    3.4485    2.4831 H         1 <0>         0.1317
     18 H6         -1.8434    1.4771    2.0372 H         1 <0>         0.1157
     19 H7         -0.9253    2.9969    1.9076 H         1 <0>         0.0893
     20 H8         -2.1061    1.4037   -0.4146 H         1 <0>         0.1075
     21 H9         -0.4193    3.9492   -0.3890 H         1 <0>         0.0927
     22 H10        -0.9895    3.0822   -1.8362 H         1 <0>         0.1157
     23 H11        -3.3354    3.4798   -1.1576 H         1 <0>         0.1323
     24 H12        -2.4548    5.0196   -1.3028 H         1 <0>         0.1321
     25 H13         1.1411    3.1172    0.0076 H         1 <0>         0.1331
     26 H14         3.3072    1.8978   -0.0190 H         1 <0>         0.1402
     27 H15         3.2727   -0.5884   -0.0313 H         1 <0>         0.1428
     28 H16         1.1080   -1.7619   -0.0180 H         1 <0>         0.1635
     29 N2         -2.8366    4.4240    0.6770 N.4       1 <0>        -0.3970
     30 H17        -2.0456    4.9481    1.0692 H         1 <0>         0.4286
@<TRIPOS>BOND
     1    1   13 1
     2    1   14 1
     3    1   15 1
     4    1   29 1
     5    2    3 1
     6    2   16 1
     7    2   17 1
     8    2   29 1
     9    3    4 1
    10    3   18 1
    11    3   19 1
    12    4    5 1
    13    4    7 1
    14    4   20 1
    15    5    6 1
    16    5   21 1
    17    5   22 1
    18    6   23 1
    19    6   24 1
    20    6   29 1
    21    7   12 ar
    22    7    8 ar
    23    8    9 ar
    24    8   25 1
    25    9   10 ar
    26    9   26 1
    27   10   11 ar
    28   10   27 1
    29   11   12 ar
    30   11   28 1
    31   29   30 1
@<TRIPOS>MOLECULE
ZINC19014810
   26    27     0     0     0
SMALL
USER_CHARGES
1-(2-pyridyl)piperazine
@<TRIPOS>ATOM
      1 C1         -1.2206    1.7609    0.0173 C.ar      1 <0>        -0.0494
      2 C2         -0.0126    1.0758    0.0080 C.ar      1 <0>        -0.1779
      3 C3          1.1691    1.7890    0.0005 C.ar      1 <0>         0.1284
      4 N1          1.1632    3.1087    0.0072 N.ar      1 <0>        -0.5179
      5 C4          0.0327    3.7978    0.0212 C.ar      1 <0>         0.2868
      6 C5         -1.1952    3.1436    0.0294 C.ar      1 <0>        -0.1759
      7 N2          0.0730    5.1872    0.0283 N.pl3     1 <0>        -0.4782
      8 C6         -0.6641    5.7296    1.1781 C.3       1 <0>         0.0260
      9 C7         -0.6634    7.2584    1.1059 C.3       1 <0>         0.0028
     10 C8          1.4603    7.2028   -0.0539 C.3       1 <0>        -0.0018
     11 C9          1.4596    5.6739    0.0182 C.3       1 <0>         0.0366
     12 H1         -2.1588    1.2259    0.0192 H         1 <0>         0.1448
     13 H2          0.0021   -0.0041    0.0020 H         1 <0>         0.1444
     14 H3          2.1107    1.2603   -0.0113 H         1 <0>         0.1652
     15 H4         -2.1160    3.7079    0.0405 H         1 <0>         0.1388
     16 H5         -1.6911    5.3650    1.1564 H         1 <0>         0.1294
     17 H6         -0.1834    5.4090    2.1023 H         1 <0>         0.0713
     18 H7         -1.1848    7.6636    1.9732 H         1 <0>         0.1432
     19 H8         -1.1682    7.5797    0.1949 H         1 <0>         0.1418
     20 H9          2.4873    7.5674   -0.0323 H         1 <0>         0.1422
     21 H10         0.9800    7.5234   -0.9783 H         1 <0>         0.1393
     22 H11         1.9644    5.3526    0.9293 H         1 <0>         0.0755
     23 H12         1.9810    5.2687   -0.8490 H         1 <0>         0.1317
     24 N3          0.7270    7.7512    1.1026 N.4       1 <0>        -0.5194
     25 H13         1.1927    7.4577    1.9694 H         1 <0>         0.4318
     26 H14         0.7232    8.7764    1.0464 H         1 <0>         0.4402
@<TRIPOS>BOND
     1    1    6 ar
     2    1    2 ar
     3    1   12 1
     4    2    3 ar
     5    2   13 1
     6    3    4 ar
     7    3   14 1
     8    4    5 ar
     9    5    6 ar
    10    5    7 1
    11    6   15 1
    12    7   11 1
    13    7    8 1
    14    8    9 1
    15    8   16 1
    16    8   17 1
    17    9   18 1
    18    9   19 1
    19    9   24 1
    20   10   11 1
    21   10   20 1
    22   10   21 1
    23   10   24 1
    24   11   22 1
    25   11   23 1
    26   24   25 1
    27   24   26 1
@<TRIPOS>MOLECULE
ZINC01571800
   25    26     0     0     0
SMALL
USER_CHARGES

@<TRIPOS>ATOM
      1 C1          0.0058    1.3143    0.2255 C.ar      1 <0>         0.0078
      2 C2          1.1819    2.0265    0.0017 C.ar      1 <0>         0.3632
      3 N1          2.3163    1.3747   -0.2188 N.ar      1 <0>        -0.4918
      4 C3          2.3262    0.0514   -0.2252 C.ar      1 <0>         0.1743
      5 C4          1.1557   -0.6517   -0.0029 C.ar      1 <0>         0.0305
      6 N2          0.0235   -0.0049    0.2176 N.ar      1 <0>        -0.3796
      7 Cl1         3.8095   -0.8031   -0.5135 Cl        1 <0>         0.0093
      8 N3          1.1669    3.4164    0.0088 N.pl3     1 <0>        -0.6210
      9 C5          2.4203    4.1864   -0.0052 C.3       1 <0>         0.0984
     10 C6          2.3337    5.2349   -1.1192 C.3       1 <0>        -0.0220
     11 N4          1.1252    6.0476   -0.9323 N.4       1 <0>        -0.5049
     12 C7         -0.0702    5.2088   -1.0856 C.3       1 <0>        -0.0220
     13 C8         -0.1028    4.1591    0.0244 C.3       1 <0>         0.0983
     14 H1         -0.9187    1.8414    0.4097 H         1 <0>         0.1747
     15 H2          1.1666   -1.7316   -0.0090 H         1 <0>         0.1864
     16 H3          2.5558    4.6831    0.9555 H         1 <0>         0.0939
     17 H4          3.2592    3.5172   -0.1965 H         1 <0>         0.1382
     18 H5          3.2133    5.8776   -1.0825 H         1 <0>         0.1477
     19 H6          2.2892    4.7345   -2.0866 H         1 <0>         0.1351
     20 H7          1.1337    6.4533   -0.0085 H         1 <0>         0.4297
     21 H8         -0.9621    5.8324   -1.0240 H         1 <0>         0.1506
     22 H9         -0.0420    4.7092   -2.0539 H         1 <0>         0.1358
     23 H10        -0.9313    3.4718   -0.1472 H         1 <0>         0.1300
     24 H11        -0.2264    4.6529    0.9882 H         1 <0>         0.1013
     25 H12         1.1076    6.7851   -1.6207 H         1 <0>         0.4359
@<TRIPOS>BOND
     1    1    6 ar
     2    1    2 ar
     3    1   14 1
     4    2    3 ar
     5    2    8 1
     6    3    4 ar
     7    4    5 ar
     8    4    7 1
     9    5    6 ar
    10    5   15 1
    11    8   13 1
    12    8    9 1
    13    9   10 1
    14    9   16 1
    15    9   17 1
    16   10   11 1
    17   10   18 1
    18   10   19 1
    19   11   12 1
    20   11   20 1
    21   11   25 1
    22   12   13 1
    23   12   21 1
    24   12   22 1
    25   13   23 1
    26   13   24 1
@<TRIPOS>MOLECULE
ZINC19811349
   25    26     0     0     0
SMALL
USER_CHARGES
2-(1,2,3,6-tetrahydropyridin-4-yl)pyridine
@<TRIPOS>ATOM
      1 C1          1.1833    2.0794    0.0019 C.ar      1 <0>        -0.0697
      2 C2          2.3650    1.3512   -0.0128 C.ar      1 <0>        -0.1534
      3 C3          2.3110   -0.0304   -0.0202 C.ar      1 <0>         0.1083
      4 N1          1.1552   -0.6626   -0.0125 N.ar      1 <0>        -0.4731
      5 C4          0.0021   -0.0041    0.0020 C.ar      1 <0>         0.1282
      6 C5         -0.0168    1.3912    0.0097 C.ar      1 <0>        -0.1560
      7 C6         -1.2706   -0.7546    0.0106 C.2       1 <0>        -0.0319
      8 C7         -2.4001   -0.0809    0.0255 C.2       1 <0>        -0.1967
      9 C8         -3.7481   -0.7425    0.0423 C.3       1 <0>         0.0439
     10 N2         -3.6295   -2.1483   -0.3647 N.4       1 <0>        -0.5404
     11 C9         -2.5819   -2.8201    0.4217 C.3       1 <0>        -0.0011
     12 C10        -1.2219   -2.2570   -0.0041 C.3       1 <0>        -0.1086
     13 H1          1.2004    3.1592    0.0072 H         1 <0>         0.1442
     14 H2          3.3180    1.8593   -0.0192 H         1 <0>         0.1455
     15 H3          3.2290   -0.5991   -0.0320 H         1 <0>         0.1664
     16 H4         -0.9550    1.9262    0.0171 H         1 <0>         0.1386
     17 H5         -2.3845    1.0190    0.0260 H         1 <0>         0.1550
     18 H6         -4.1665   -0.6965    1.0586 H         1 <0>         0.1384
     19 H7         -4.4208   -0.2218   -0.6551 H         1 <0>         0.1432
     20 H8         -4.5885   -2.6605   -0.1977 H         1 <0>         0.4579
     21 H9         -2.7491   -2.6310    1.4923 H         1 <0>         0.1295
     22 H10        -2.6175   -3.9028    0.2307 H         1 <0>         0.1397
     23 H11        -0.9837   -2.6062   -1.0196 H         1 <0>         0.1084
     24 H12        -0.4472   -2.6056    0.6947 H         1 <0>         0.1299
     25 H13        -3.3670   -2.2003   -1.4317 H         1 <0>         0.4536
@<TRIPOS>BOND
     1    1    6 ar
     2    1    2 ar
     3    1   13 1
     4    2    3 ar
     5    2   14 1
     6    3    4 ar
     7    3   15 1
     8    4    5 ar
     9    5    6 ar
    10    5    7 1
    11    6   16 1
    12    7   12 1
    13    7    8 2
    14    8    9 1
    15    8   17 1
    16    9   10 1
    17    9   18 1
    18    9   19 1
    19   10   11 1
    20   10   20 1
    21   10   25 1
    22   11   12 1
    23   11   21 1
    24   11   22 1
    25   12   23 1
    26   12   24 1
@<TRIPOS>MOLECULE
ZINC36237989
   29    30     0     0     0
SMALL
USER_CHARGES

@<TRIPOS>ATOM
      1 C1         -0.0257    1.4604   -0.1631 C.3       1 <0>        -0.0461
      2 N1         -0.0017   -0.0062   -0.0822 N.4       1 <0>        -0.3824
      3 C2          0.5995   -0.5523   -1.3055 C.3       1 <0>        -0.0223
      4 C3          0.5210   -2.0822   -1.2730 C.3       1 <0>         0.1221
      5 N2          1.1441   -2.5548   -0.0269 N.pl3     1 <0>        -0.6616
      6 C4          0.7149   -1.9405    1.2390 C.3       1 <0>         0.1222
      7 C5          0.7842   -0.4173    1.0879 C.3       1 <0>        -0.0222
      8 C6          2.1122   -3.5540   -0.0453 C.ar      1 <0>         0.3224
      9 C7          1.7284   -4.8896    0.0580 C.ar      1 <0>         0.0604
     10 C8          2.7030   -5.8727    0.0378 C.ar      1 <0>        -0.1022
     11 C9          4.0315   -5.4861   -0.0853 C.ar      1 <0>        -0.1288
     12 C10         4.3391   -4.1445   -0.1831 C.ar      1 <0>         0.1040
     13 N3          3.3891   -3.2281   -0.1662 N.ar      1 <0>        -0.4672
     14 F1          0.4240   -5.2204    0.1767 F         1 <0>        -0.1221
     15 H1          0.9932    1.8357   -0.2589 H         1 <0>         0.1213
     16 H2         -0.6089    1.7669   -1.0315 H         1 <0>         0.1244
     17 H3         -0.4791    1.8667    0.7410 H         1 <0>         0.1244
     18 H4          0.0579   -0.1790   -2.1746 H         1 <0>         0.1389
     19 H5          1.6429   -0.2432   -1.3669 H         1 <0>         0.1334
     20 H6         -0.5224   -2.3961   -1.3027 H         1 <0>         0.0862
     21 H7          1.0552   -2.4947   -2.1289 H         1 <0>         0.1146
     22 H8         -0.3089   -2.2402    1.4629 H         1 <0>         0.0862
     23 H9          1.3772   -2.2593    2.0439 H         1 <0>         0.1147
     24 H10         1.8221   -0.1123    0.9541 H         1 <0>         0.1334
     25 H11         0.3788    0.0555    1.9824 H         1 <0>         0.1389
     26 H12         2.4365   -6.9163    0.1163 H         1 <0>         0.1560
     27 H13         4.8159   -6.2282   -0.1040 H         1 <0>         0.1555
     28 H14         5.3710   -3.8403   -0.2790 H         1 <0>         0.1719
     29 H15        -0.9451   -0.3522    0.0093 H         1 <0>         0.4241
@<TRIPOS>BOND
     1    1    2 1
     2    1   15 1
     3    1   16 1
     4    1   17 1
     5    2    7 1
     6    2    3 1
     7    2   29 1
     8    3    4 1
     9    3   18 1
    10    3   19 1
    11    4    5 1
    12    4   20 1
    13    4   21 1
    14    5    6 1
    15    5    8 1
    16    6    7 1
    17    6   22 1
    18    6   23 1
    19    7   24 1
    20    7   25 1
    21    8   13 ar
    22    8    9 ar
    23    9   10 ar
    24    9   14 1
    25   10   11 ar
    26   10   26 1
    27   11   12 ar
    28   11   27 1
    29   12   13 ar
    30   12   28 1
@<TRIPOS>MOLECULE
ZINC36237989
   28    29     0     0     0
SMALL
USER_CHARGES

@<TRIPOS>ATOM
      1 C1         -0.0317    1.4605   -0.1628 C.3       1 <0>         0.0250
      2 N1         -0.0050   -0.0062   -0.0857 N.3       1 <0>        -0.5415
      3 C2          0.5039   -0.5898   -1.3341 C.3       1 <0>         0.0396
      4 C3          0.3470   -2.1132   -1.2832 C.3       1 <0>         0.1530
      5 N2          0.9912   -2.6085   -0.0572 N.pl3     1 <0>        -0.6633
      6 C4          0.6325   -1.9765    1.2215 C.3       1 <0>         0.1531
      7 C5          0.7782   -0.4584    1.0719 C.3       1 <0>         0.0397
      8 C6          1.9152   -3.6478   -0.1058 C.ar      1 <0>         0.3507
      9 C7          1.4792   -4.9658    0.0141 C.ar      1 <0>         0.0512
     10 C8          2.4103   -5.9892   -0.0366 C.ar      1 <0>        -0.1073
     11 C9          3.7489   -5.6592   -0.2059 C.ar      1 <0>        -0.1476
     12 C10         4.1093   -4.3319   -0.3178 C.ar      1 <0>         0.0986
     13 N3          3.1998   -3.3763   -0.2711 N.ar      1 <0>        -0.4699
     14 F1          0.1668   -5.2411    0.1780 F         1 <0>        -0.1231
     15 H1          0.9862    1.8378   -0.2605 H         1 <0>         0.0250
     16 H2         -0.6180    1.7682   -1.0286 H         1 <0>         0.0692
     17 H3         -0.4833    1.8637    0.7437 H         1 <0>         0.0695
     18 H4         -0.0616   -0.1939   -2.1777 H         1 <0>         0.0825
     19 H5          1.5576   -0.3364   -1.4510 H         1 <0>         0.0393
     20 H6         -0.7118   -2.3720   -1.2707 H         1 <0>         0.0665
     21 H7          0.8258   -2.5600   -2.1546 H         1 <0>         0.0708
     22 H8         -0.3989   -2.2222    1.4747 H         1 <0>         0.0666
     23 H9          1.3000   -2.3329    2.0060 H         1 <0>         0.0708
     24 H10         1.8280   -0.2069    0.9215 H         1 <0>         0.0394
     25 H11         0.4116    0.0327    1.9733 H         1 <0>         0.0825
     26 H12         2.1028   -7.0205    0.0538 H         1 <0>         0.1487
     27 H13         4.5002   -6.4338   -0.2492 H         1 <0>         0.1472
     28 H14         5.1491   -4.0717   -0.4496 H         1 <0>         0.1638
@<TRIPOS>BOND
     1    1    2 1
     2    1   15 1
     3    1   16 1
     4    1   17 1
     5    2    7 1
     6    2    3 1
     7    3    4 1
     8    3   18 1
     9    3   19 1
    10    4    5 1
    11    4   20 1
    12    4   21 1
    13    5    6 1
    14    5    8 1
    15    6    7 1
    16    6   22 1
    17    6   23 1
    18    7   24 1
    19    7   25 1
    20    8   13 ar
    21    8    9 ar
    22    9   10 ar
    23    9   14 1
    24   10   11 ar
    25   10   26 1
    26   11   12 ar
    27   11   27 1
    28   12   13 ar
    29   12   28 1
@<TRIPOS>MOLECULE
ZINC13728053
   29    31     0     0     0
SMALL
USER_CHARGES
6-chloro-8-piperazin-1-yl-imidazo[1,2-a]pyrazine
@<TRIPOS>ATOM
      1 C1          1.3018   -0.3855   -0.0124 C.2       1 <0>         0.0391
      2 C2          0.0021   -0.0041    0.0020 C.2       1 <0>        -0.0441
      3 N1         -0.0164    1.3561    0.0095 N.pl3     1 <0>        -0.3400
      4 C3         -1.0212    2.2889    0.0291 C.2       1 <0>         0.0209
      5 C4         -0.7183    3.6033    0.0291 C.2       1 <0>         0.1324
      6 N2          0.5512    4.0243    0.0192 N.2       1 <0>        -0.4995
      7 C5          1.5547    3.1703    0.0046 C.2       1 <0>         0.4085
      8 C6          1.2884    1.7780   -0.0007 C.2       1 <0>         0.1472
      9 N3          2.0648    0.7081   -0.0138 N.2       1 <0>        -0.4489
     10 N4          2.8619    3.6304   -0.0059 N.pl3     1 <0>        -0.4586
     11 C7          3.6006    3.0918   -1.1565 C.3       1 <0>         0.0231
     12 C8          5.0567    3.5581   -1.0882 C.3       1 <0>         0.0050
     13 C9          4.3595    5.5656    0.0705 C.3       1 <0>        -0.0001
     14 C10         2.9033    5.0993    0.0022 C.3       1 <0>         0.0321
     15 Cl1        -2.0019    4.7720    0.0487 Cl        1 <0>         0.0188
     16 H1          1.6600   -1.4043   -0.0216 H         1 <0>         0.1985
     17 H2         -0.8580   -0.6572    0.0072 H         1 <0>         0.2007
     18 H3         -2.0535    1.9718    0.0421 H         1 <0>         0.1894
     19 H4          3.5660    2.0026   -1.1334 H         1 <0>         0.1489
     20 H5          3.1468    3.4508   -2.0803 H         1 <0>         0.0739
     21 H6          5.5996    3.1838   -1.9561 H         1 <0>         0.1468
     22 H7          5.5184    3.1764   -0.1776 H         1 <0>         0.1454
     23 H8          4.3940    6.6548    0.0474 H         1 <0>         0.1460
     24 H9          4.8132    5.2070    0.9945 H         1 <0>         0.1421
     25 H10         2.4416    5.4811   -0.9084 H         1 <0>         0.0830
     26 H11         2.3605    5.4737    0.8701 H         1 <0>         0.1363
     27 N5          5.1027    5.0326   -1.0869 N.4       1 <0>        -0.5208
     28 H12         4.6796    5.3857   -1.9532 H         1 <0>         0.4320
     29 H13         6.0806    5.3412   -1.0331 H         1 <0>         0.4417
@<TRIPOS>BOND
     1    1    9 1
     2    1    2 2
     3    1   16 1
     4    2    3 1
     5    2   17 1
     6    3    8 1
     7    3    4 1
     8    4    5 2
     9    4   18 1
    10    5    6 1
    11    5   15 1
    12    6    7 2
    13    7    8 1
    14    7   10 1
    15    8    9 2
    16   10   14 1
    17   10   11 1
    18   11   12 1
    19   11   19 1
    20   11   20 1
    21   12   21 1
    22   12   22 1
    23   12   27 1
    24   13   14 1
    25   13   23 1
    26   13   24 1
    27   13   27 1
    28   14   25 1
    29   14   26 1
    30   27   28 1
    31   27   29 1
@<TRIPOS>MOLECULE
ZINC13728053
   30    32     0     0     0
SMALL
USER_CHARGES
6-chloro-8-piperazin-1-yl-imidazo[1,2-a]pyrazine
@<TRIPOS>ATOM
      1 C1          1.3018   -0.3855   -0.0124 C.2       1 <0>         0.0948
      2 C2          0.0021   -0.0041    0.0020 C.2       1 <0>         0.0110
      3 N1         -0.0164    1.3561    0.0095 N.pl3     1 <0>        -0.2814
      4 C3         -1.0212    2.2889    0.0291 C.2       1 <0>         0.0372
      5 C4         -0.7183    3.6033    0.0291 C.2       1 <0>         0.1657
      6 N2          0.5512    4.0243    0.0192 N.2       1 <0>        -0.4400
      7 C5          1.5547    3.1703    0.0046 C.2       1 <0>         0.3847
      8 C6          1.2884    1.7780   -0.0007 C.cat     1 <0>         0.2139
      9 N3          2.8619    3.6304   -0.0059 N.pl3     1 <0>        -0.4702
     10 C7          3.6006    3.0918   -1.1565 C.3       1 <0>         0.0168
     11 C8          5.0567    3.5581   -1.0882 C.3       1 <0>         0.0026
     12 C9          4.3595    5.5656    0.0705 C.3       1 <0>        -0.0023
     13 C10         2.9033    5.0993    0.0022 C.3       1 <0>         0.0315
     14 Cl1        -2.0019    4.7720    0.0487 Cl        1 <0>         0.0798
     15 H1          1.6600   -1.4043   -0.0216 H         1 <0>         0.2479
     16 H2         -0.8580   -0.6572    0.0072 H         1 <0>         0.2449
     17 H3         -2.0535    1.9718    0.0421 H         1 <0>         0.2269
     18 H4          3.5660    2.0026   -1.1334 H         1 <0>         0.1124
     19 H5          3.1468    3.4508   -2.0803 H         1 <0>         0.0976
     20 H6          5.5996    3.1838   -1.9561 H         1 <0>         0.1572
     21 H7          5.5184    3.1764   -0.1776 H         1 <0>         0.1495
     22 H8          4.3940    6.6548    0.0474 H         1 <0>         0.1577
     23 H9          4.8132    5.2070    0.9945 H         1 <0>         0.1477
     24 H10         2.4416    5.4811   -0.9084 H         1 <0>         0.0966
     25 H11         2.3605    5.4737    0.8701 H         1 <0>         0.1469
     26 N4          5.1027    5.0326   -1.0869 N.4       1 <0>        -0.5216
     27 H12         4.6796    5.3857   -1.9532 H         1 <0>         0.4373
     28 H13         6.0806    5.3412   -1.0331 H         1 <0>         0.4522
     29 N5          2.0626    0.7081   -0.0138 N.pl3     1 <0>        -0.4770
     30 H14         3.0893    0.7176   -0.0235 H         1 <0>         0.4797
@<TRIPOS>BOND
     1    1    2 2
     2    1   15 1
     3    1   29 1
     4    2    3 1
     5    2   16 1
     6    3    8 1
     7    3    4 1
     8    4    5 2
     9    4   17 1
    10    5    6 1
    11    5   14 1
    12    6    7 2
    13    7    8 1
    14    7    9 1
    15    8   29 2
    16    9   13 1
    17    9   10 1
    18   10   11 1
    19   10   18 1
    20   10   19 1
    21   11   20 1
    22   11   21 1
    23   11   26 1
    24   12   13 1
    25   12   22 1
    26   12   23 1
    27   12   26 1
    28   13   24 1
    29   13   25 1
    30   26   27 1
    31   26   28 1
    32   29   30 1
@<TRIPOS>MOLECULE
ZINC00000504
   41    44     0     0     0
SMALL
USER_CHARGES

@<TRIPOS>ATOM
      1 C1         -0.0178    1.4648    0.0101 C.3       1 <0>        -0.0457
      2 N1          0.0021   -0.0041    0.0020 N.4       1 <0>        -0.3851
      3 C2         -1.3782   -0.5248    0.0610 C.3       1 <0>        -0.0107
      4 C3         -1.3147   -2.0017   -0.3247 C.3       1 <0>         0.1097
      5 N2         -0.2536   -2.6823    0.4304 N.pl3     1 <0>        -0.6570
      6 C4         -0.1632   -4.0681    0.2474 C.ar      1 <0>         0.1515
      7 C5          0.1651   -4.5655   -1.0110 C.ar      1 <0>        -0.1283
      8 C6          0.3219   -5.9257   -1.1894 C.ar      1 <0>        -0.1053
      9 C7          0.1595   -6.7897   -0.1216 C.ar      1 <0>        -0.1122
     10 C8         -0.1903   -6.2968    1.1226 C.ar      1 <0>        -0.0978
     11 C9         -0.3794   -4.9379    1.2936 C.ar      1 <0>        -0.0863
     12 C10        -0.9055   -4.4020    2.5876 C.3       1 <0>        -0.0401
     13 C11         0.0255   -3.4607    3.2849 C.ar      1 <0>        -0.0434
     14 C12         0.2033   -3.7275    4.6483 C.ar      1 <0>        -0.1164
     15 C13         1.0009   -2.9352    5.4386 C.ar      1 <0>        -0.1037
     16 C14         1.6407   -1.8450    4.8776 C.ar      1 <0>        -0.1092
     17 C15         1.4792   -1.5873    3.5373 C.ar      1 <0>        -0.1345
     18 C16         0.6836   -2.4040    2.7249 C.ar      1 <0>        -0.1120
     19 C17         0.6957   -2.0166    1.2712 C.3       1 <0>         0.2145
     20 H1          1.6762   -2.3177    0.9022 H         1 <0>         0.0814
     21 C18         0.7079   -0.4980    1.1840 C.3       1 <0>        -0.0096
     22 H2          1.0047    1.8421    0.0024 H         1 <0>         0.1256
     23 H3         -0.5450    1.8259   -0.8730 H         1 <0>         0.1278
     24 H4         -0.5280    1.8163    0.9069 H         1 <0>         0.1233
     25 H5         -1.7720   -0.4210    1.0720 H         1 <0>         0.1359
     26 H6         -2.0104    0.0166   -0.6429 H         1 <0>         0.1459
     27 H7         -2.2727   -2.4732   -0.1054 H         1 <0>         0.1007
     28 H8         -1.1096   -2.0872   -1.3918 H         1 <0>         0.0828
     29 H9          0.2970   -3.8905   -1.8436 H         1 <0>         0.1222
     30 H10         0.5722   -6.3158   -2.1649 H         1 <0>         0.1292
     31 H11         0.3058   -7.8509   -0.2596 H         1 <0>         0.1304
     32 H12        -0.3156   -6.9709    1.9570 H         1 <0>         0.1304
     33 H13        -1.8427   -3.8810    2.3915 H         1 <0>         0.0851
     34 H14        -1.1118   -5.2412    3.2519 H         1 <0>         0.0847
     35 H15        -0.2988   -4.5760    5.0892 H         1 <0>         0.1275
     36 H16         1.1270   -3.1618    6.4870 H         1 <0>         0.1317
     37 H17         2.2602   -1.2030    5.4861 H         1 <0>         0.1308
     38 H18         1.9776   -0.7345    3.1006 H         1 <0>         0.1191
     39 H19         1.7417   -0.1544    1.1475 H         1 <0>         0.1407
     40 H20         0.2329   -0.0891    2.0758 H         1 <0>         0.1370
     41 H21         0.4593   -0.3360   -0.8339 H         1 <0>         0.4294
@<TRIPOS>BOND
     1    1    2 1
     2    1   22 1
     3    1   23 1
     4    1   24 1
     5    2   21 1
     6    2    3 1
     7    2   41 1
     8    3    4 1
     9    3   25 1
    10    3   26 1
    11    4    5 1
    12    4   27 1
    13    4   28 1
    14    5   19 1
    15    5    6 1
    16    6   11 ar
    17    6    7 ar
    18    7    8 ar
    19    7   29 1
    20    8    9 ar
    21    8   30 1
    22    9   10 ar
    23    9   31 1
    24   10   11 ar
    25   10   32 1
    26   11   12 1
    27   12   13 1
    28   12   33 1
    29   12   34 1
    30   13   18 ar
    31   13   14 ar
    32   14   15 ar
    33   14   35 1
    34   15   16 ar
    35   15   36 1
    36   16   17 ar
    37   16   37 1
    38   17   18 ar
    39   17   38 1
    40   18   19 1
    41   19   20 1
    42   19   21 1
    43   21   39 1
    44   21   40 1
