@<TRIPOS>MOLECULE
ZINC53166256
   43    46     0     0     0
SMALL
USER_CHARGES

@<TRIPOS>ATOM
      1 C1         -0.0645    1.4412   -0.3732 C.3       1 <0>         0.0245
      2 N1         -0.0216   -0.0161   -0.1927 N.3       1 <0>        -0.5427
      3 C2          0.3881   -0.6883   -1.4329 C.3       1 <0>         0.0399
      4 C3          0.2462   -2.2042   -1.2592 C.3       1 <0>         0.1270
      5 N2          0.9912   -2.6085   -0.0572 N.pl3     1 <0>        -0.5934
      6 C4          0.7333   -1.8856    1.1973 C.3       1 <0>         0.1156
      7 C5          0.8560   -0.3822    0.9269 C.3       1 <0>         0.0395
      8 C6          1.9059   -3.6360   -0.1053 C.2       1 <0>         0.5356
      9 N3          2.1874   -4.1476   -1.2567 N.2       1 <0>        -0.6206
     10 C7          2.9530   -5.2310   -1.5577 C.ar      1 <0>         0.1701
     11 C8          2.4830   -6.1190   -2.5335 C.ar      1 <0>        -0.1161
     12 C9          3.2327   -7.2189   -2.8990 C.ar      1 <0>        -0.1046
     13 C10         4.4585   -7.4578   -2.3086 C.ar      1 <0>        -0.1308
     14 C11         4.9338   -6.5952   -1.3330 C.ar      1 <0>        -0.1099
     15 C12         4.1849   -5.4996   -0.9492 C.ar      1 <0>         0.0928
     16 N4          4.6603   -4.6750    0.0974 N.pl3     1 <0>        -0.6675
     17 C13         3.8314   -4.5378    1.1992 C.2       1 <0>         0.0941
     18 C14         2.5165   -4.0886    1.1665 C.2       1 <0>        -0.2204
     19 C15         1.8382   -4.1107    2.4492 C.2       1 <0>        -0.0854
     20 C16         2.5687   -4.5058    3.5084 C.2       1 <0>        -0.1956
     21 S1          4.1544   -4.8614    2.8004 S.3       1 <0>         0.1912
     22 C17         2.1405   -4.6249    4.9484 C.3       1 <0>         0.1641
     23 O1          1.6299   -5.9381    5.1865 O.3       1 <0>        -0.5666
     24 H1          0.9395    1.8113   -0.5807 H         1 <0>         0.0253
     25 H2         -0.7212    1.6847   -1.2084 H         1 <0>         0.0709
     26 H3         -0.4436    1.9089    0.5355 H         1 <0>         0.0707
     27 H4         -0.2467   -0.3553   -2.2540 H         1 <0>         0.0875
     28 H5          1.4271   -0.4432   -1.6533 H         1 <0>         0.0376
     29 H6         -0.8063   -2.4623   -1.1417 H         1 <0>         0.0713
     30 H7          0.6556   -2.7127   -2.1321 H         1 <0>         0.1047
     31 H8         -0.2724   -2.1131    1.5509 H         1 <0>         0.0773
     32 H9          1.4647   -2.1834    1.9486 H         1 <0>         0.0976
     33 H10         1.8885   -0.1414    0.6736 H         1 <0>         0.0377
     34 H11         0.5606    0.1728    1.8173 H         1 <0>         0.0886
     35 H12         1.5267   -5.9420   -3.0033 H         1 <0>         0.1272
     36 H13         2.8583   -7.8974   -3.6513 H         1 <0>         0.1261
     37 H14         5.0449   -8.3146   -2.6060 H         1 <0>         0.1266
     38 H15         5.8924   -6.7804   -0.8713 H         1 <0>         0.1236
     39 H16         5.5203   -4.2292    0.0463 H         1 <0>         0.4183
     40 H17         0.8015   -3.8247    2.5488 H         1 <0>         0.1460
     41 H18         2.9969   -4.4447    5.5982 H         1 <0>         0.0639
     42 H19         1.3639   -3.8895    5.1585 H         1 <0>         0.0718
     43 H20         1.3347   -6.0866    6.0953 H         1 <0>         0.3866
@<TRIPOS>BOND
     1    1    2 1
     2    1   24 1
     3    1   25 1
     4    1   26 1
     5    2    7 1
     6    2    3 1
     7    3    4 1
     8    3   27 1
     9    3   28 1
    10    4    5 1
    11    4   29 1
    12    4   30 1
    13    5    6 1
    14    5    8 1
    15    6    7 1
    16    6   31 1
    17    6   32 1
    18    7   33 1
    19    7   34 1
    20    8   18 1
    21    8    9 2
    22    9   10 1
    23   10   15 ar
    24   10   11 ar
    25   11   12 ar
    26   11   35 1
    27   12   13 ar
    28   12   36 1
    29   13   14 ar
    30   13   37 1
    31   14   15 ar
    32   14   38 1
    33   15   16 1
    34   16   17 1
    35   16   39 1
    36   17   21 1
    37   17   18 2
    38   18   19 1
    39   19   20 2
    40   19   40 1
    41   20   21 1
    42   20   22 1
    43   22   23 1
    44   22   41 1
    45   22   42 1
    46   23   43 1
@<TRIPOS>MOLECULE
ZINC53166256
   44    47     0     0     0
SMALL
USER_CHARGES

@<TRIPOS>ATOM
      1 C1         -0.0503    1.4404   -0.3738 C.3       1 <0>        -0.0468
      2 N1         -0.0137   -0.0159   -0.1846 N.4       1 <0>        -0.3851
      3 C2          0.4926   -0.6538   -1.4064 C.3       1 <0>        -0.0215
      4 C3          0.4236   -2.1768   -1.2526 C.3       1 <0>         0.1009
      5 N2          1.1441   -2.5548   -0.0269 N.pl3     1 <0>        -0.6150
      6 C4          0.8123   -1.8460    1.2187 C.3       1 <0>         0.0891
      7 C5          0.8630   -0.3387    0.9482 C.3       1 <0>        -0.0221
      8 C6          2.1011   -3.5439   -0.0451 C.2       1 <0>         0.5271
      9 N3          2.4417   -4.0411   -1.1867 N.2       1 <0>        -0.5934
     10 C7          3.2607   -5.0916   -1.4627 C.ar      1 <0>         0.1438
     11 C8          2.8603   -5.9960   -2.4544 C.ar      1 <0>        -0.1034
     12 C9          3.6662   -7.0636   -2.7954 C.ar      1 <0>        -0.1053
     13 C10         4.8803   -7.2535   -2.1643 C.ar      1 <0>        -0.1121
     14 C11         5.2869   -6.3742   -1.1727 C.ar      1 <0>        -0.1118
     15 C12         4.4814   -5.3110   -0.8134 C.ar      1 <0>         0.1053
     16 N4          4.8874   -4.4699    0.2491 N.pl3     1 <0>        -0.6685
     17 C13         4.0171   -4.3690    1.3226 C.2       1 <0>         0.0970
     18 C14         2.6868   -3.9739    1.2462 C.2       1 <0>        -0.2330
     19 C15         1.9674   -4.0264    2.5054 C.2       1 <0>        -0.1010
     20 C16         2.6776   -4.3936    3.5882 C.2       1 <0>        -0.1858
     21 S1          4.2994   -4.6826    2.9336 S.3       1 <0>         0.2189
     22 C17         2.2067   -4.5331    5.0129 C.3       1 <0>         0.1600
     23 O1          1.7425   -5.8666    5.2328 O.3       1 <0>        -0.5661
     24 H1          0.9563    1.8058   -0.5769 H         1 <0>         0.1210
     25 H2         -0.7009    1.6813   -1.2145 H         1 <0>         0.1255
     26 H3         -0.4336    1.9146    0.5297 H         1 <0>         0.1251
     27 H4         -0.1168   -0.3464   -2.2563 H         1 <0>         0.1423
     28 H5          1.5267   -0.3518   -1.5724 H         1 <0>         0.1313
     29 H6         -0.6176   -2.4904   -1.1769 H         1 <0>         0.0891
     30 H7          0.8911   -2.6535   -2.1141 H         1 <0>         0.1420
     31 H8         -0.1896   -2.1263    1.5440 H         1 <0>         0.0942
     32 H9          1.5369   -2.1040    1.9911 H         1 <0>         0.1380
     33 H10         1.8859   -0.0462    0.7110 H         1 <0>         0.1319
     34 H11         0.5265    0.2010    1.8334 H         1 <0>         0.1434
     35 H12         1.9139   -5.8573   -2.9558 H         1 <0>         0.1292
     36 H13         3.3452   -7.7553   -3.5603 H         1 <0>         0.1323
     37 H14         5.5108   -8.0849   -2.4425 H         1 <0>         0.1334
     38 H15         6.2363   -6.5211   -0.6793 H         1 <0>         0.1295
     39 H16         5.7296   -3.9892    0.2272 H         1 <0>         0.4219
     40 H17         0.9172   -3.7832    2.5704 H         1 <0>         0.1434
     41 H18         3.0327   -4.3194    5.6912 H         1 <0>         0.0672
     42 H19         1.3940   -3.8304    5.1974 H         1 <0>         0.0714
     43 H20         1.4234   -6.0289    6.1311 H         1 <0>         0.3916
     44 H21        -0.9456   -0.3526    0.0063 H         1 <0>         0.4248
@<TRIPOS>BOND
     1    1    2 1
     2    1   24 1
     3    1   25 1
     4    1   26 1
     5    2    7 1
     6    2    3 1
     7    2   44 1
     8    3    4 1
     9    3   27 1
    10    3   28 1
    11    4    5 1
    12    4   29 1
    13    4   30 1
    14    5    6 1
    15    5    8 1
    16    6    7 1
    17    6   31 1
    18    6   32 1
    19    7   33 1
    20    7   34 1
    21    8   18 1
    22    8    9 2
    23    9   10 1
    24   10   15 ar
    25   10   11 ar
    26   11   12 ar
    27   11   35 1
    28   12   13 ar
    29   12   36 1
    30   13   14 ar
    31   13   37 1
    32   14   15 ar
    33   14   38 1
    34   15   16 1
    35   16   17 1
    36   16   39 1
    37   17   21 1
    38   17   18 2
    39   18   19 1
    40   19   20 2
    41   19   40 1
    42   20   21 1
    43   20   22 1
    44   22   23 1
    45   22   41 1
    46   22   42 1
    47   23   43 1
@<TRIPOS>MOLECULE
ZINC53165707
   26    27     0     0     0
SMALL
USER_CHARGES

@<TRIPOS>ATOM
      1 C1         -0.0167    1.3790    0.0096 C.ar      1 <0>        -0.1016
      2 C2          1.1685    2.0936    0.0021 C.ar      1 <0>        -0.0829
      3 C3          2.3781    1.4292   -0.0130 C.ar      1 <0>        -0.0280
      4 C4          2.4037    0.0322   -0.0208 C.ar      1 <0>         0.1829
      5 C5          1.2044   -0.6813   -0.0131 C.ar      1 <0>        -0.1594
      6 C6          0.0021   -0.0041    0.0020 C.ar      1 <0>        -0.1478
      7 C7         -1.2938   -0.7733    0.0108 C.3       1 <0>         0.5076
      8 F1         -2.3680    0.1228    0.0263 F         1 <0>        -0.1739
      9 F2         -1.3695   -1.5724   -1.1351 F         1 <0>        -0.1780
     10 F3         -1.3468   -1.5846    1.1493 F         1 <0>        -0.1747
     11 N1          3.6009   -0.6341   -0.0362 N.2       1 <0>        -0.6190
     12 C8          3.7436   -1.7105   -0.7743 C.2       1 <0>         0.6510
     13 N2          2.7510   -2.2257   -1.5577 N.pl3     1 <0>        -0.7579
     14 C9          3.2536   -3.4250   -2.2420 C.3       1 <0>         0.0873
     15 C10         4.7077   -3.5649   -1.7568 C.3       1 <0>         0.0978
     16 N3          4.9021   -2.4297   -0.8443 N.pl3     1 <0>        -0.7072
     17 Cl1         3.8639    2.3269   -0.0229 Cl        1 <0>        -0.0448
     18 H1         -0.9605    1.9037    0.0260 H         1 <0>         0.1453
     19 H2          1.1467    3.1733    0.0078 H         1 <0>         0.1460
     20 H3          1.2172   -1.7612   -0.0194 H         1 <0>         0.1380
     21 H4          2.6705   -4.2997   -1.9540 H         1 <0>         0.0866
     22 H5          3.2248   -3.2864   -3.3228 H         1 <0>         0.0851
     23 H6          4.8434   -4.5089   -1.2290 H         1 <0>         0.0883
     24 H7          5.3977   -3.4956   -2.5977 H         1 <0>         0.0877
     25 H8          5.7213   -2.2252   -0.3668 H         1 <0>         0.4393
     26 H9          1.8575   -1.8590   -1.6477 H         1 <0>         0.4321
@<TRIPOS>BOND
     1    1    6 ar
     2    1    2 ar
     3    1   18 1
     4    2    3 ar
     5    2   19 1
     6    3    4 ar
     7    3   17 1
     8    4    5 ar
     9    4   11 1
    10    5    6 ar
    11    5   20 1
    12    6    7 1
    13    7    8 1
    14    7    9 1
    15    7   10 1
    16   11   12 2
    17   12   16 1
    18   12   13 1
    19   13   14 1
    20   13   26 1
    21   14   15 1
    22   14   21 1
    23   14   22 1
    24   15   16 1
    25   15   23 1
    26   15   24 1
    27   16   25 1
@<TRIPOS>MOLECULE
ZINC13760745
   25    27     0     0     0
SMALL
USER_CHARGES
5-bromo-N-(1H-imidazol-2-yl)quinoxalin-6-amine
@<TRIPOS>ATOM
      1 C1          0.0071    5.1466    0.3002 C.ar      1 <0>        -0.0372
      2 C2         -1.1801    5.8080    0.3051 C.ar      1 <0>        -0.1418
      3 C3         -2.3810    5.1324    0.0549 C.ar      1 <0>         0.2599
      4 C4         -2.3849    3.7778   -0.2022 C.ar      1 <0>        -0.1485
      5 C5         -1.1712    3.0716   -0.2134 C.ar      1 <0>         0.1312
      6 C6          0.0404    3.7647    0.0413 C.ar      1 <0>         0.0578
      7 N1          1.1974    3.0944    0.0312 N.ar      1 <0>        -0.4118
      8 C7          1.2011    1.8038   -0.2139 C.ar      1 <0>         0.0608
      9 C8          0.0092    1.1217   -0.4646 C.ar      1 <0>         0.0905
     10 N2         -1.1402    1.7579   -0.4658 N.ar      1 <0>        -0.4260
     11 Br1        -4.0134    2.8771   -0.5373 Br        1 <0>        -0.0237
     12 N3         -3.5862    5.8373    0.0663 N.pl3     1 <0>        -0.6323
     13 C9         -3.5799    7.2186    0.1778 C.2       1 <0>         0.4541
     14 N4         -4.6784    8.0121    0.3001 N.pl3     1 <0>        -0.5868
     15 H1         -5.6310    7.7091    0.3260 H         1 <0>         0.4279
     16 C10        -4.2301    9.3105    0.3814 C.2       1 <0>        -0.0515
     17 C11        -2.8887    9.2673    0.3070 C.2       1 <0>        -0.0055
     18 N5         -2.5134    7.9828    0.1889 N.2       1 <0>        -0.5122
     19 H2          0.9246    5.6820    0.4946 H         1 <0>         0.1510
     20 H3         -1.1977    6.8692    0.5051 H         1 <0>         0.2046
     21 H4          2.1368    1.2646   -0.2219 H         1 <0>         0.1764
     22 H5          0.0327    0.0605   -0.6641 H         1 <0>         0.1773
     23 H6         -4.4278    5.3602   -0.0038 H         1 <0>         0.4219
     24 H7         -4.8400   10.1958    0.4850 H         1 <0>         0.1848
     25 H8         -2.2258   10.1192    0.3408 H         1 <0>         0.1791
@<TRIPOS>BOND
     1    1    6 ar
     2    1    2 ar
     3    1   19 1
     4    2    3 ar
     5    2   20 1
     6    3    4 ar
     7    3   12 1
     8    4    5 ar
     9    4   11 1
    10    5   10 ar
    11    5    6 ar
    12    6    7 ar
    13    7    8 ar
    14    8    9 ar
    15    8   21 1
    16    9   10 ar
    17    9   22 1
    18   12   13 1
    19   12   23 1
    20   13   18 2
    21   13   14 1
    22   14   15 1
    23   14   16 1
    24   16   17 2
    25   16   24 1
    26   17   18 1
    27   17   25 1
@<TRIPOS>MOLECULE
ZINC00013748
   28    30     0     0     0
SMALL
USER_CHARGES

@<TRIPOS>ATOM
      1 C1         -0.0167    1.3777    0.0096 C.ar      1 <0>        -0.0954
      2 C2          1.1697    2.0876    0.0021 C.ar      1 <0>        -0.1049
      3 C3          2.3784    1.4177   -0.0116 C.ar      1 <0>        -0.0981
      4 C4          2.4042    0.0310   -0.0192 C.ar      1 <0>         0.0329
      5 C5          1.2117   -0.6826   -0.0141 C.ar      1 <0>         0.0460
      6 C6          0.0021   -0.0041    0.0020 C.ar      1 <0>        -0.1042
      7 O1          1.2143   -2.0435   -0.0292 O.3       1 <0>        -0.2831
      8 C7          2.4407   -2.6888    0.3305 C.3       1 <0>         0.0319
      9 C8          3.5869   -1.9932   -0.4162 C.3       1 <0>         0.0648
     10 H1          3.4262   -2.0716   -1.4914 H         1 <0>         0.1391
     11 O2          3.6023   -0.6148   -0.0295 O.3       1 <0>        -0.2941
     12 C9          4.8981   -2.6394   -0.0500 C.cat     1 <0>         0.5242
     13 N1          5.2975   -2.7671    1.1936 N.pl3     1 <0>        -0.6146
     14 C10         6.6089   -3.4350    1.2165 C.3       1 <0>         0.0552
     15 C11         6.9063   -3.6783   -0.2777 C.3       1 <0>         0.0574
     16 N2          5.7221   -3.1209   -0.9509 N.pl3     1 <0>        -0.6160
     17 H2         -0.9596    1.9040    0.0259 H         1 <0>         0.1440
     18 H3          1.1518    3.1674    0.0066 H         1 <0>         0.1437
     19 H4          3.3037    1.9746   -0.0169 H         1 <0>         0.1411
     20 H5         -0.9261   -0.5562    0.0086 H         1 <0>         0.1448
     21 H6          2.5984   -2.6053    1.4058 H         1 <0>         0.0891
     22 H7          2.4005   -3.7400    0.0450 H         1 <0>         0.1382
     23 H8          7.3641   -2.7849    1.6584 H         1 <0>         0.1328
     24 H9          6.5499   -4.3802    1.7561 H         1 <0>         0.1335
     25 H10         7.8099   -3.1496   -0.5812 H         1 <0>         0.1334
     26 H11         6.9957   -4.7449   -0.4835 H         1 <0>         0.1330
     27 H12         5.5747   -3.1096   -1.9095 H         1 <0>         0.4633
     28 H13         4.8062   -2.4679    1.9745 H         1 <0>         0.4621
@<TRIPOS>BOND
     1    1    6 ar
     2    1    2 ar
     3    1   17 1
     4    2    3 ar
     5    2   18 1
     6    3    4 ar
     7    3   19 1
     8    4   11 1
     9    4    5 ar
    10    5    6 ar
    11    5    7 1
    12    6   20 1
    13    7    8 1
    14    8    9 1
    15    8   21 1
    16    8   22 1
    17    9   10 1
    18    9   11 1
    19    9   12 1
    20   12   16 1
    21   12   13 2
    22   13   14 1
    23   13   28 1
    24   14   15 1
    25   14   23 1
    26   14   24 1
    27   15   16 1
    28   15   25 1
    29   15   26 1
    30   16   27 1
@<TRIPOS>MOLECULE
ZINC00900630
   28    30     0     0     0
SMALL
USER_CHARGES

@<TRIPOS>ATOM
      1 C1         -0.0167    1.3777    0.0096 C.ar      1 <0>        -0.0954
      2 C2          1.1697    2.0876    0.0021 C.ar      1 <0>        -0.1049
      3 C3          2.3783    1.4178   -0.0143 C.ar      1 <0>        -0.0981
      4 C4          2.4042    0.0310   -0.0230 C.ar      1 <0>         0.0329
      5 C5          1.2117   -0.6826   -0.0129 C.ar      1 <0>         0.0461
      6 C6          0.0021   -0.0041    0.0020 C.ar      1 <0>        -0.1042
      7 O1          1.2145   -2.0436   -0.0133 O.3       1 <0>        -0.2832
      8 C7          2.4336   -2.6847   -0.4041 C.3       1 <0>         0.0320
      9 C8          3.5941   -1.9974    0.3280 C.3       1 <0>         0.0648
     10 H1          3.4543   -2.0880    1.4052 H         1 <0>         0.1391
     11 O2          3.6022   -0.6147   -0.0433 O.3       1 <0>        -0.2941
     12 C9          4.8979   -2.6393   -0.0710 C.cat     1 <0>         0.5240
     13 N1          5.2782   -2.7429   -1.3227 N.pl3     1 <0>        -0.6144
     14 C10         6.5877   -3.4123   -1.3789 C.3       1 <0>         0.0552
     15 C11         6.9072   -3.6858    0.1054 C.3       1 <0>         0.0573
     16 N2          5.7392   -3.1309    0.8082 N.pl3     1 <0>        -0.6159
     17 H2         -0.9596    1.9040    0.0259 H         1 <0>         0.1440
     18 H3          1.1518    3.1674    0.0087 H         1 <0>         0.1437
     19 H4          3.3037    1.9746   -0.0208 H         1 <0>         0.1411
     20 H5         -0.9261   -0.5562    0.0079 H         1 <0>         0.1448
     21 H6          2.3988   -3.7390   -0.1298 H         1 <0>         0.1382
     22 H7          2.5703   -2.5889   -1.4813 H         1 <0>         0.0891
     23 H8          6.5187   -4.3466   -1.9362 H         1 <0>         0.1335
     24 H9          7.3374   -2.7549   -1.8192 H         1 <0>         0.1328
     25 H10         6.9977   -4.7565    0.2887 H         1 <0>         0.1335
     26 H11         7.8164   -3.1648    0.4057 H         1 <0>         0.1329
     27 H12         5.6106   -3.1302    1.7696 H         1 <0>         0.4633
     28 H13         4.7751   -2.4283   -2.0901 H         1 <0>         0.4621
@<TRIPOS>BOND
     1    1    6 ar
     2    1    2 ar
     3    1   17 1
     4    2    3 ar
     5    2   18 1
     6    3    4 ar
     7    3   19 1
     8    4   11 1
     9    4    5 ar
    10    5    6 ar
    11    5    7 1
    12    6   20 1
    13    7    8 1
    14    8    9 1
    15    8   21 1
    16    8   22 1
    17    9   10 1
    18    9   11 1
    19    9   12 1
    20   12   16 1
    21   12   13 2
    22   13   14 1
    23   13   28 1
    24   14   15 1
    25   14   23 1
    26   14   24 1
    27   15   16 1
    28   15   25 1
    29   15   26 1
    30   16   27 1
@<TRIPOS>MOLECULE
ZINC02539830
   32    34     0     0     0
SMALL
USER_CHARGES

@<TRIPOS>ATOM
      1 C1         -1.4323   -0.0901   -0.0833 C.3       1 <0>         0.0000
      2 O1         -0.0082   -0.0029   -0.0051 O.3       1 <0>        -0.3360
      3 C2          0.6740   -0.6619   -1.0740 C.3       1 <0>         0.2539
      4 C3          2.1767   -0.3614   -0.9920 C.3       1 <0>         0.0430
      5 O2          2.3569    1.0551   -1.0962 O.3       1 <0>        -0.2720
      6 C4          1.6640    1.6888   -2.0815 C.ar      1 <0>         0.0580
      7 C5          2.0506    2.9614   -2.4753 C.ar      1 <0>        -0.1050
      8 C6          1.3549    3.6189   -3.4720 C.ar      1 <0>        -0.0921
      9 C7          0.2717    3.0108   -4.0788 C.ar      1 <0>        -0.1071
     10 C8         -0.1178    1.7424   -3.6923 C.ar      1 <0>        -0.0971
     11 C9          0.5774    1.0761   -2.6940 C.ar      1 <0>         0.0324
     12 O3          0.1873   -0.1760   -2.3297 O.3       1 <0>        -0.3090
     13 C10         0.4465   -2.1488   -0.9818 C.cat     1 <0>         0.5088
     14 N1          1.4201   -2.9973   -0.7491 N.pl3     1 <0>        -0.6138
     15 C11         0.8761   -4.3645   -0.7184 C.3       1 <0>         0.0581
     16 C12        -0.6288   -4.1506   -0.9823 C.3       1 <0>         0.0516
     17 N2         -0.7408   -2.6898   -1.1228 N.pl3     1 <0>        -0.6102
     18 H1         -1.7627    0.2352   -1.0697 H         1 <0>         0.0744
     19 H2         -1.7428   -1.1219    0.0819 H         1 <0>         0.0466
     20 H3         -1.8779    0.5497    0.6785 H         1 <0>         0.1248
     21 H4          2.5704   -0.7129   -0.0383 H         1 <0>         0.1402
     22 H5          2.6964   -0.8593   -1.8107 H         1 <0>         0.1086
     23 H6          2.8958    3.4390   -2.0022 H         1 <0>         0.1461
     24 H7          1.6577    4.6097   -3.7772 H         1 <0>         0.1447
     25 H8         -0.2713    3.5280   -4.8560 H         1 <0>         0.1440
     26 H9         -0.9643    1.2696   -4.1679 H         1 <0>         0.1404
     27 H10         1.3219   -4.9738   -1.5046 H         1 <0>         0.1364
     28 H11         1.0345   -4.8199    0.2592 H         1 <0>         0.1360
     29 H12        -0.9338   -4.6532   -1.9001 H         1 <0>         0.1360
     30 H13        -1.2212   -4.4992   -0.1363 H         1 <0>         0.1349
     31 H14        -1.5625   -2.2037   -1.2944 H         1 <0>         0.4617
     32 H15         2.3517   -2.7608   -0.6185 H         1 <0>         0.4616
@<TRIPOS>BOND
     1    1    2 1
     2    1   18 1
     3    1   19 1
     4    1   20 1
     5    2    3 1
     6    3   12 1
     7    3    4 1
     8    3   13 1
     9    4    5 1
    10    4   21 1
    11    4   22 1
    12    5    6 1
    13    6   11 ar
    14    6    7 ar
    15    7    8 ar
    16    7   23 1
    17    8    9 ar
    18    8   24 1
    19    9   10 ar
    20    9   25 1
    21   10   11 ar
    22   10   26 1
    23   11   12 1
    24   13   17 1
    25   13   14 2
    26   14   15 1
    27   14   32 1
    28   15   16 1
    29   15   27 1
    30   15   28 1
    31   16   17 1
    32   16   29 1
    33   16   30 1
    34   17   31 1
@<TRIPOS>MOLECULE
ZINC03995905
   32    34     0     0     0
SMALL
USER_CHARGES

@<TRIPOS>ATOM
      1 C1          0.1172   -0.4235    1.1743 C.3       1 <0>        -0.0030
      2 O1         -0.1971    0.0056   -0.1521 O.3       1 <0>        -0.3348
      3 C2          0.7095   -0.4726   -1.1478 C.3       1 <0>         0.2538
      4 C3          0.3188    0.0952   -2.5189 C.3       1 <0>         0.0432
      5 O2          0.3805    1.5238   -2.4466 O.3       1 <0>        -0.2721
      6 C4          1.4862    2.0592   -1.8605 C.ar      1 <0>         0.0578
      7 C5          1.7890    3.3961   -2.0722 C.ar      1 <0>        -0.1049
      8 C6          2.9064    3.9548   -1.4813 C.ar      1 <0>        -0.0924
      9 C7          3.7254    3.1831   -0.6781 C.ar      1 <0>        -0.1070
     10 C8          3.4302    1.8501   -0.4643 C.ar      1 <0>        -0.0973
     11 C9          2.3109    1.2828   -1.0553 C.ar      1 <0>         0.0337
     12 O3          2.0376   -0.0334   -0.8424 O.3       1 <0>        -0.3093
     13 C10         0.6694   -1.9785   -1.1903 C.cat     1 <0>         0.5078
     14 N1          0.2302   -2.6423   -2.2337 N.pl3     1 <0>        -0.6134
     15 C11         0.3201   -4.0863   -1.9638 C.3       1 <0>         0.0579
     16 C12         0.9063   -4.1422   -0.5378 C.3       1 <0>         0.0518
     17 N2          1.0763   -2.7225   -0.1888 N.pl3     1 <0>        -0.6101
     18 H1         -0.0725   -1.4931    1.2646 H         1 <0>         0.0496
     19 H2          1.1681   -0.2220    1.3819 H         1 <0>         0.0727
     20 H3         -0.5044    0.1173    1.8879 H         1 <0>         0.1248
     21 H4          1.0138   -0.2648   -3.2775 H         1 <0>         0.1087
     22 H5         -0.6949   -0.2166   -2.7706 H         1 <0>         0.1399
     23 H6          1.1512    4.0009   -2.6996 H         1 <0>         0.1460
     24 H7          3.1405    4.9959   -1.6475 H         1 <0>         0.1446
     25 H8          4.5975    3.6227   -0.2171 H         1 <0>         0.1439
     26 H9          4.0715    1.2494    0.1636 H         1 <0>         0.1402
     27 H10        -0.6682   -4.5453   -1.9919 H         1 <0>         0.1361
     28 H11         0.9903   -4.5697   -2.6747 H         1 <0>         0.1366
     29 H12         0.2105   -4.6291    0.1455 H         1 <0>         0.1356
     30 H13         1.8690   -4.6534   -0.5373 H         1 <0>         0.1358
     31 H14         1.4316   -2.3893    0.6501 H         1 <0>         0.4622
     32 H15        -0.1020   -2.2440   -3.0534 H         1 <0>         0.4618
@<TRIPOS>BOND
     1    1    2 1
     2    1   18 1
     3    1   19 1
     4    1   20 1
     5    2    3 1
     6    3   12 1
     7    3    4 1
     8    3   13 1
     9    4    5 1
    10    4   21 1
    11    4   22 1
    12    5    6 1
    13    6   11 ar
    14    6    7 ar
    15    7    8 ar
    16    7   23 1
    17    8    9 ar
    18    8   24 1
    19    9   10 ar
    20    9   25 1
    21   10   11 ar
    22   10   26 1
    23   11   12 1
    24   13   17 1
    25   13   14 2
    26   14   15 1
    27   14   32 1
    28   15   16 1
    29   15   27 1
    30   15   28 1
    31   16   17 1
    32   16   29 1
    33   16   30 1
    34   17   31 1
@<TRIPOS>MOLECULE
ZINC03977785
   53    57     0     0     0
SMALL
USER_CHARGES

@<TRIPOS>ATOM
      1 C1         -0.0173    1.4248    0.0099 C.3       1 <0>         0.0297
      2 O1          0.0021   -0.0041    0.0020 O.3       1 <0>        -0.3232
      3 C2          0.5984   -0.5997   -1.0427 C.2       1 <0>         0.4702
      4 O2          1.0877    0.0699   -1.9214 O.2       1 <0>        -0.5141
      5 C3          0.6575   -2.1036   -1.1196 C.3       1 <0>        -0.0705
      6 H1         -0.3553   -2.5061   -1.1292 H         1 <0>         0.1302
      7 C4          1.4092   -2.6460    0.0974 C.3       1 <0>         0.1112
      8 H2          2.4212   -2.2414    0.1100 H         1 <0>         0.0602
      9 C5          1.4705   -4.1729    0.0153 C.3       1 <0>        -0.1515
     10 C6          2.2113   -4.5823   -1.2587 C.3       1 <0>        -0.1326
     11 C7          1.4664   -4.0438   -2.4826 C.3       1 <0>        -0.1081
     12 H3          0.4649   -4.4724   -2.5190 H         1 <0>         0.1315
     13 C8          1.3810   -2.5185   -2.3989 C.3       1 <0>        -0.0737
     14 H4          0.8319   -2.1415   -3.2617 H         1 <0>         0.1077
     15 C9          2.7928   -1.9262   -2.4160 C.3       1 <0>        -0.1589
     16 C10         3.5103   -2.3981   -3.6821 C.3       1 <0>         0.1155
     17 H5          2.9548   -2.0679   -4.5599 H         1 <0>         0.1495
     18 C11         4.9074   -1.8328   -3.7280 C.2       1 <0>         0.0218
     19 C12         5.9794   -2.5662   -4.1107 C.2       1 <0>        -0.1593
     20 C13         7.1369   -1.7045   -4.0313 C.ar      1 <0>        -0.1001
     21 C14         8.4945   -1.9085   -4.2980 C.ar      1 <0>        -0.0651
     22 C15         9.3323   -0.8371   -4.1111 C.ar      1 <0>        -0.1355
     23 C16         8.8675    0.3940   -3.6782 C.ar      1 <0>        -0.0814
     24 C17         7.5302    0.6240   -3.4055 C.ar      1 <0>        -0.1278
     25 C18         6.6557   -0.4455   -3.5858 C.ar      1 <0>         0.1112
     26 N1          5.3059   -0.5632   -3.4122 N.pl3     1 <0>        -0.5610
     27 H6          4.7183    0.1471   -3.1102 H         1 <0>         0.4235
     28 C19         5.8873   -4.0118   -4.5303 C.3       1 <0>        -0.0680
     29 C20         4.4103   -4.3357   -4.7986 C.3       1 <0>        -0.0070
     30 N2          3.5921   -3.8652   -3.6762 N.4       1 <0>        -0.3805
     31 C21         2.2397   -4.4350   -3.7475 C.3       1 <0>         0.0000
     32 O3          0.7259   -2.2590    1.2913 O.3       1 <0>        -0.5457
     33 H7          1.0053    1.8021    0.0021 H         1 <0>         0.0611
     34 H8         -0.5445    1.7859   -0.8732 H         1 <0>         0.0635
     35 H9         -0.5275    1.7763    0.9067 H         1 <0>         0.1087
     36 H10         1.9994   -4.5630    0.8849 H         1 <0>         0.0864
     37 H11         0.4583   -4.5769   -0.0067 H         1 <0>         0.0895
     38 H12         3.2209   -4.1721   -1.2390 H         1 <0>         0.0596
     39 H13         2.2629   -5.6696   -1.3148 H         1 <0>         0.0926
     40 H14         2.7325   -0.8379   -2.4143 H         1 <0>         0.1358
     41 H15         3.3417   -2.2650   -1.5373 H         1 <0>         0.0927
     42 H16         8.8666   -2.8645   -4.6357 H         1 <0>         0.1349
     43 H17        10.3874   -0.9579   -4.3074 H         1 <0>         0.1281
     44 H18         9.5726    1.2018   -3.5488 H         1 <0>         0.1313
     45 H19         7.1805    1.5885   -3.0678 H         1 <0>         0.1353
     46 H20         6.4698   -4.1697   -5.4380 H         1 <0>         0.1220
     47 H21         6.2658   -4.6516   -3.7331 H         1 <0>         0.0994
     48 H22         4.0893   -3.8376   -5.7134 H         1 <0>         0.1324
     49 H23         4.2888   -5.4132   -4.9094 H         1 <0>         0.1402
     50 H24         2.3054   -5.5210   -3.8133 H         1 <0>         0.1424
     51 H25         1.7237   -4.0459   -4.6252 H         1 <0>         0.1366
     52 H26         1.1478   -2.5695    2.1041 H         1 <0>         0.3887
     53 H27         4.0203   -4.1656   -2.8134 H         1 <0>         0.4208
@<TRIPOS>BOND
     1    1    2 1
     2    1   33 1
     3    1   34 1
     4    1   35 1
     5    2    3 1
     6    3    4 2
     7    3    5 1
     8    5    6 1
     9    5   13 1
    10    5    7 1
    11    7    8 1
    12    7    9 1
    13    7   32 1
    14    9   10 1
    15    9   36 1
    16    9   37 1
    17   10   11 1
    18   10   38 1
    19   10   39 1
    20   11   12 1
    21   11   31 1
    22   11   13 1
    23   13   14 1
    24   13   15 1
    25   15   16 1
    26   15   40 1
    27   15   41 1
    28   16   17 1
    29   16   30 1
    30   16   18 1
    31   18   26 1
    32   18   19 2
    33   19   20 1
    34   19   28 1
    35   20   25 ar
    36   20   21 ar
    37   21   22 ar
    38   21   42 1
    39   22   23 ar
    40   22   43 1
    41   23   24 ar
    42   23   44 1
    43   24   25 ar
    44   24   45 1
    45   25   26 1
    46   26   27 1
    47   28   29 1
    48   28   46 1
    49   28   47 1
    50   29   30 1
    51   29   48 1
    52   29   49 1
    53   30   31 1
    54   30   53 1
    55   31   50 1
    56   31   51 1
    57   32   52 1
@<TRIPOS>MOLECULE
ZINC53151259
   54    58     0     0     0
SMALL
USER_CHARGES

@<TRIPOS>ATOM
      1 C1         -1.3916  -10.5478   -4.3427 C.3       1 <0>        -0.0479
      2 N1         -1.1730   -9.3997   -3.4527 N.4       1 <0>        -0.3843
      3 C2         -0.3362   -9.8136   -2.3193 C.3       1 <0>        -0.0232
      4 C3         -0.0125   -8.5926   -1.4519 C.3       1 <0>         0.0989
      5 N2         -1.2764   -7.9446   -1.0688 N.pl3     1 <0>        -0.6447
      6 C4         -2.2494   -7.6414   -2.1296 C.3       1 <0>         0.0989
      7 C5         -2.4675   -8.9072   -2.9650 C.3       1 <0>        -0.0230
      8 C6         -1.5456   -7.6262    0.2668 C.ar      1 <0>         0.1769
      9 C7         -2.6926   -6.9144    0.5934 C.ar      1 <0>        -0.1392
     10 C8         -2.9583   -6.6001    1.9111 C.ar      1 <0>        -0.1106
     11 C9         -2.0786   -6.9962    2.9105 C.ar      1 <0>         0.1468
     12 C10        -0.9317   -7.7084    2.5839 C.ar      1 <0>        -0.1287
     13 C11        -0.6686   -8.0268    1.2666 C.ar      1 <0>        -0.1423
     14 N3         -2.3476   -6.6772    4.2463 N.pl3     1 <0>        -0.7177
     15 C12        -1.5399   -7.1697    5.2484 C.ar      1 <0>         0.3836
     16 C13        -0.4549   -6.4193    5.7444 C.ar      1 <0>        -0.1317
     17 C14        -0.1643   -5.1442    5.2304 C.ar      1 <0>        -0.0435
     18 C15         0.8892   -4.4412    5.7279 C.ar      1 <0>        -0.1174
     19 C16         1.6866   -4.9700    6.7428 C.ar      1 <0>         0.0001
     20 C17         1.4363   -6.2001    7.2642 C.ar      1 <0>        -0.1720
     21 C18         0.3537   -6.9613    6.7778 C.ar      1 <0>         0.2197
     22 N4          0.0971   -8.1675    7.2814 N.ar      1 <0>        -0.4943
     23 C19        -0.9170   -8.9121    6.8434 C.ar      1 <0>         0.2194
     24 C20        -1.7745   -8.4381    5.8160 C.ar      1 <0>        -0.1313
     25 C21        -2.8407   -9.2401    5.3750 C.ar      1 <0>        -0.0426
     26 C22        -3.0441  -10.4611    5.9403 C.ar      1 <0>        -0.1189
     27 C23        -2.2072  -10.9286    6.9534 C.ar      1 <0>        -0.0015
     28 C24        -1.1599  -10.1851    7.3987 C.ar      1 <0>        -0.1714
     29 H1         -2.0061  -10.2398   -5.1887 H         1 <0>         0.1275
     30 H2         -0.4313  -10.9143   -4.7054 H         1 <0>         0.1268
     31 H3         -1.8996  -11.3410   -3.7943 H         1 <0>         0.1221
     32 H4         -0.8719  -10.5517   -1.7225 H         1 <0>         0.1318
     33 H5          0.5903  -10.2505   -2.6920 H         1 <0>         0.1425
     34 H6          0.5221   -8.9106   -0.5569 H         1 <0>         0.1239
     35 H7          0.6008   -7.8925   -2.0192 H         1 <0>         0.0907
     36 H8         -3.1937   -7.3304   -1.6825 H         1 <0>         0.1262
     37 H9         -1.8620   -6.8452   -2.7653 H         1 <0>         0.0909
     38 H10        -3.1115   -8.6763   -3.8135 H         1 <0>         0.1435
     39 H11        -2.9387   -9.6728   -2.3486 H         1 <0>         0.1323
     40 H12        -3.3766   -6.6064   -0.1837 H         1 <0>         0.1340
     41 H13        -3.8499   -6.0460    2.1650 H         1 <0>         0.1376
     42 H14        -0.2476   -8.0164    3.3608 H         1 <0>         0.1168
     43 H15         0.2212   -8.5839    1.0130 H         1 <0>         0.1290
     44 H16        -3.1026   -6.1095    4.4668 H         1 <0>         0.4328
     45 H17        -0.7740   -4.7243    4.4440 H         1 <0>         0.1555
     46 H18         1.1110   -3.4613    5.3316 H         1 <0>         0.1554
     47 H19         2.5173   -4.3924    7.1205 H         1 <0>         0.1603
     48 H20         2.0651   -6.5934    8.0493 H         1 <0>         0.1614
     49 H21        -3.4959   -8.8890    4.5915 H         1 <0>         0.1545
     50 H22        -3.8644  -11.0760    5.6003 H         1 <0>         0.1542
     51 H23        -2.3895  -11.9012    7.3860 H         1 <0>         0.1597
     52 H24        -0.5224  -10.5638    8.1839 H         1 <0>         0.1612
     53 H25         0.6652   -8.5138    7.9872 H         1 <0>         0.4452
     54 H26        -0.7053   -8.6650   -3.9622 H         1 <0>         0.4262
@<TRIPOS>BOND
     1    1    2 1
     2    1   29 1
     3    1   30 1
     4    1   31 1
     5    2    7 1
     6    2    3 1
     7    2   54 1
     8    3    4 1
     9    3   32 1
    10    3   33 1
    11    4    5 1
    12    4   34 1
    13    4   35 1
    14    5    6 1
    15    5    8 1
    16    6    7 1
    17    6   36 1
    18    6   37 1
    19    7   38 1
    20    7   39 1
    21    8   13 ar
    22    8    9 ar
    23    9   10 ar
    24    9   40 1
    25   10   11 ar
    26   10   41 1
    27   11   12 ar
    28   11   14 1
    29   12   13 ar
    30   12   42 1
    31   13   43 1
    32   14   15 1
    33   14   44 1
    34   15   24 ar
    35   15   16 ar
    36   16   21 ar
    37   16   17 ar
    38   17   18 ar
    39   17   45 1
    40   18   19 ar
    41   18   46 1
    42   19   20 ar
    43   19   47 1
    44   20   21 ar
    45   20   48 1
    46   21   22 ar
    47   22   23 ar
    48   22   53 1
    49   23   28 ar
    50   23   24 ar
    51   24   25 ar
    52   25   26 ar
    53   25   49 1
    54   26   27 ar
    55   26   50 1
    56   27   28 ar
    57   27   51 1
    58   28   52 1
@<TRIPOS>MOLECULE
ZINC53151259
   53    57     0     0     0
SMALL
USER_CHARGES

@<TRIPOS>ATOM
      1 C1          0.5835   -6.8644   -5.1470 C.3       1 <0>         0.0233
      2 N1         -0.0574   -7.5301   -4.0051 N.3       1 <0>        -0.5424
      3 C2         -1.2617   -6.8039   -3.5804 C.3       1 <0>         0.0374
      4 C3         -1.9974   -7.6215   -2.5134 C.3       1 <0>         0.1239
      5 N2         -1.0506   -7.9405   -1.4340 N.pl3     1 <0>        -0.6277
      6 C4          0.2398   -8.5459   -1.7967 C.3       1 <0>         0.1251
      7 C5          0.8874   -7.6920   -2.8920 C.3       1 <0>         0.0382
      8 C6         -1.3688   -7.6747   -0.0978 C.ar      1 <0>         0.2072
      9 C7         -2.5418   -7.0003    0.2158 C.ar      1 <0>        -0.1588
     10 C8         -2.8559   -6.7380    1.5343 C.ar      1 <0>        -0.1028
     11 C9         -1.9989   -7.1489    2.5474 C.ar      1 <0>         0.1116
     12 C10        -0.8260   -7.8237    2.2337 C.ar      1 <0>        -0.1210
     13 C11        -0.5144   -8.0902    0.9154 C.ar      1 <0>        -0.1610
     14 N3         -2.3169   -6.8826    3.8839 N.pl3     1 <0>        -0.7214
     15 C12        -1.5321   -7.3949    4.8942 C.ar      1 <0>         0.4005
     16 C13        -0.4805   -6.6412    5.4530 C.ar      1 <0>        -0.1376
     17 C14        -0.2009   -5.3424    4.9954 C.ar      1 <0>        -0.0348
     18 C15         0.8202   -4.6366    5.5530 C.ar      1 <0>        -0.1248
     19 C16         1.5951   -5.1859    6.5744 C.ar      1 <0>        -0.0013
     20 C17         1.3546   -6.4392    7.0425 C.ar      1 <0>        -0.1754
     21 C18         0.3054   -7.2040    6.4928 C.ar      1 <0>         0.2201
     22 N4          0.0585   -8.4329    6.9438 N.ar      1 <0>        -0.4994
     23 C19        -0.9242   -9.1815    6.4455 C.ar      1 <0>         0.2199
     24 C20        -1.7576   -8.6878    5.4075 C.ar      1 <0>        -0.1364
     25 C21        -2.7911   -9.4948    4.9024 C.ar      1 <0>        -0.0336
     26 C22        -2.9865  -10.7396    5.4162 C.ar      1 <0>        -0.1246
     27 C23        -2.1733  -11.2267    6.4394 C.ar      1 <0>        -0.0007
     28 C24        -1.1576  -10.4788    6.9461 C.ar      1 <0>        -0.1758
     29 H1          1.4277   -7.4628   -5.4895 H         1 <0>         0.0727
     30 H2         -0.1382   -6.7571   -5.9569 H         1 <0>         0.0729
     31 H3          0.9364   -5.8792   -4.8421 H         1 <0>         0.0271
     32 H4         -0.9762   -5.8373   -3.1654 H         1 <0>         0.0387
     33 H5         -1.9167   -6.6526   -4.4385 H         1 <0>         0.0892
     34 H6         -2.8266   -7.0385   -2.1126 H         1 <0>         0.0873
     35 H7         -2.3743   -8.5442   -2.9544 H         1 <0>         0.0746
     36 H8          0.8898   -8.5741   -0.9222 H         1 <0>         0.0841
     37 H9          0.0779   -9.5576   -2.1689 H         1 <0>         0.0738
     38 H10         1.7911   -8.1847   -3.2508 H         1 <0>         0.0882
     39 H11         1.1430   -6.7130   -2.4865 H         1 <0>         0.0382
     40 H12        -3.2081   -6.6809   -0.5718 H         1 <0>         0.1330
     41 H13        -3.7676   -6.2130    1.7781 H         1 <0>         0.1301
     42 H14        -0.1596   -8.1432    3.0213 H         1 <0>         0.1088
     43 H15         0.3956   -8.6182    0.6717 H         1 <0>         0.1282
     44 H16        -3.0898   -6.3375    4.0992 H         1 <0>         0.4294
     45 H17        -0.7934   -4.9065    4.2046 H         1 <0>         0.1568
     46 H18         1.0336   -3.6385    5.1999 H         1 <0>         0.1535
     47 H19         2.4003   -4.6057    7.0004 H         1 <0>         0.1573
     48 H20         1.9656   -6.8481    7.8336 H         1 <0>         0.1586
     49 H21        -3.4277   -9.1287    4.1105 H         1 <0>         0.1570
     50 H22        -3.7816  -11.3582    5.0269 H         1 <0>         0.1537
     51 H23        -2.3486  -12.2181    6.8303 H         1 <0>         0.1575
     52 H24        -0.5381  -10.8729    7.7381 H         1 <0>         0.1585
     53 H25         0.6105   -8.7932    7.6554 H         1 <0>         0.4427
@<TRIPOS>BOND
     1    1    2 1
     2    1   29 1
     3    1   30 1
     4    1   31 1
     5    2    7 1
     6    2    3 1
     7    3    4 1
     8    3   32 1
     9    3   33 1
    10    4    5 1
    11    4   34 1
    12    4   35 1
    13    5    6 1
    14    5    8 1
    15    6    7 1
    16    6   36 1
    17    6   37 1
    18    7   38 1
    19    7   39 1
    20    8   13 ar
    21    8    9 ar
    22    9   10 ar
    23    9   40 1
    24   10   11 ar
    25   10   41 1
    26   11   12 ar
    27   11   14 1
    28   12   13 ar
    29   12   42 1
    30   13   43 1
    31   14   15 1
    32   14   44 1
    33   15   24 ar
    34   15   16 ar
    35   16   21 ar
    36   16   17 ar
    37   17   18 ar
    38   17   45 1
    39   18   19 ar
    40   18   46 1
    41   19   20 ar
    42   19   47 1
    43   20   21 ar
    44   20   48 1
    45   21   22 ar
    46   22   23 ar
    47   22   53 1
    48   23   28 ar
    49   23   24 ar
    50   24   25 ar
    51   25   26 ar
    52   25   49 1
    53   26   27 ar
    54   26   50 1
    55   27   28 ar
    56   27   51 1
    57   28   52 1
@<TRIPOS>MOLECULE
ZINC22055590
   40    43     0     0     0
SMALL
USER_CHARGES
2-methyl-4-piperazin-1-yl-10H-thieno[2,3-b][1,5]benzodiazepine
@<TRIPOS>ATOM
      1 C1          2.9000    6.4909    5.1733 C.3       1 <0>        -0.0794
      2 C2          2.5815    5.9866    3.7894 C.2       1 <0>        -0.1487
      3 C3          1.6183    6.4056    2.9486 C.2       1 <0>        -0.1359
      4 C4          1.5178    5.7559    1.6564 C.2       1 <0>        -0.2219
      5 C5          2.4395    4.7328    1.4394 C.2       1 <0>         0.1326
      6 S1          3.3891    4.6898    2.8707 S.3       1 <0>         0.1175
      7 N1          2.5084    3.9288    0.3158 N.pl3     1 <0>        -0.6794
      8 C6          1.3322    3.2144   -0.0160 C.ar      1 <0>         0.1140
      9 C7          1.3818    1.8365   -0.0931 C.ar      1 <0>        -0.1132
     10 C8          0.2296    1.1109   -0.3542 C.ar      1 <0>        -0.1125
     11 C9         -0.9694    1.7704   -0.5428 C.ar      1 <0>        -0.1069
     12 C10        -1.0287    3.1477   -0.4744 C.ar      1 <0>        -0.1040
     13 C11         0.1275    3.8975   -0.2233 C.ar      1 <0>         0.1419
     14 N2          0.0194    5.2532   -0.2098 N.2       1 <0>        -0.5947
     15 C12         0.5397    6.1123    0.6013 C.2       1 <0>         0.5251
     16 N3          0.1661    7.4315    0.4793 N.pl3     1 <0>        -0.6143
     17 C13        -0.9003    7.8310   -0.4516 C.3       1 <0>         0.0945
     18 C14        -0.3858    8.9721   -1.3278 C.3       1 <0>        -0.0147
     19 N4          0.1296   10.0500   -0.4732 N.4       1 <0>        -0.5347
     20 C15         1.2772    9.5959    0.3235 C.3       1 <0>        -0.0188
     21 C16         0.8267    8.4796    1.2719 C.3       1 <0>         0.0827
     22 H1          2.2045    7.3011    5.4374 H         1 <0>         0.0840
     23 H2          3.9319    6.8713    5.1964 H         1 <0>         0.0821
     24 H3          2.7962    5.6683    5.8962 H         1 <0>         0.0829
     25 H4          0.9422    7.2004    3.2271 H         1 <0>         0.1391
     26 H5          3.4417    3.8721   -0.2636 H         1 <0>         0.4455
     27 H6          2.3208    1.3226    0.0501 H         1 <0>         0.1291
     28 H7          0.2702    0.0334   -0.4145 H         1 <0>         0.1328
     29 H8         -1.8675    1.2043   -0.7411 H         1 <0>         0.1317
     30 H9         -1.9729    3.6514   -0.6202 H         1 <0>         0.1285
     31 H10        -1.1776    6.9729   -1.0815 H         1 <0>         0.1410
     32 H11        -1.7789    8.1660    0.1193 H         1 <0>         0.0882
     33 H12         0.4208    8.6008   -1.9770 H         1 <0>         0.1293
     34 H13        -1.2082    9.3572   -1.9486 H         1 <0>         0.1436
     35 H14         0.4513   10.8938   -1.1013 H         1 <0>         0.4556
     36 H15         2.0613    9.2147   -0.3472 H         1 <0>         0.1293
     37 H16         1.6735   10.4385    0.9091 H         1 <0>         0.1449
     38 H17         0.1191    8.8797    2.0130 H         1 <0>         0.0936
     39 H18         1.6982    8.0530    1.7901 H         1 <0>         0.1398
     40 H19        -0.6625   10.3846    0.2128 H         1 <0>         0.4497
@<TRIPOS>BOND
     1    1    2 1
     2    1   22 1
     3    1   23 1
     4    1   24 1
     5    2    6 1
     6    2    3 2
     7    3    4 1
     8    3   25 1
     9    4   15 1
    10    4    5 2
    11    5    6 1
    12    5    7 1
    13    7    8 1
    14    7   26 1
    15    8   13 ar
    16    8    9 ar
    17    9   10 ar
    18    9   27 1
    19   10   11 ar
    20   10   28 1
    21   11   12 ar
    22   11   29 1
    23   12   13 ar
    24   12   30 1
    25   13   14 1
    26   14   15 2
    27   15   16 1
    28   16   21 1
    29   16   17 1
    30   17   18 1
    31   17   31 1
    32   17   32 1
    33   18   19 1
    34   18   33 1
    35   18   34 1
    36   19   20 1
    37   19   35 1
    38   19   40 1
    39   20   21 1
    40   20   36 1
    41   20   37 1
    42   21   38 1
    43   21   39 1
@<TRIPOS>MOLECULE
ZINC22055590
   39    42     0     0     0
SMALL
USER_CHARGES
2-methyl-4-piperazin-1-yl-10H-thieno[2,3-b][1,5]benzodiazepine
@<TRIPOS>ATOM
      1 C1          2.9000    6.4909    5.1733 C.3       1 <0>        -0.0731
      2 C2          2.5815    5.9866    3.7894 C.2       1 <0>        -0.1595
      3 C3          1.6183    6.4056    2.9486 C.2       1 <0>        -0.1197
      4 C4          1.5178    5.7559    1.6564 C.2       1 <0>        -0.2090
      5 C5          2.4395    4.7328    1.4394 C.2       1 <0>         0.1289
      6 S1          3.3891    4.6898    2.8707 S.3       1 <0>         0.0909
      7 N1          2.5084    3.9288    0.3158 N.pl3     1 <0>        -0.6777
      8 C6          1.3322    3.2144   -0.0160 C.ar      1 <0>         0.1017
      9 C7          1.3818    1.8365   -0.0931 C.ar      1 <0>        -0.1111
     10 C8          0.2296    1.1109   -0.3542 C.ar      1 <0>        -0.1312
     11 C9         -0.9694    1.7704   -0.5428 C.ar      1 <0>        -0.1060
     12 C10        -1.0287    3.1477   -0.4744 C.ar      1 <0>        -0.1167
     13 C11         0.1275    3.8975   -0.2233 C.ar      1 <0>         0.1681
     14 N2          0.0194    5.2532   -0.2098 N.2       1 <0>        -0.6216
     15 C12         0.5397    6.1123    0.6013 C.2       1 <0>         0.5340
     16 N3          0.1661    7.4315    0.4793 N.pl3     1 <0>        -0.5933
     17 C13        -0.9003    7.8310   -0.4516 C.3       1 <0>         0.1226
     18 C14        -0.3858    8.9721   -1.3278 C.3       1 <0>         0.0334
     19 N4          0.1296   10.0500   -0.4732 N.3       1 <0>        -0.6705
     20 C15         1.2772    9.5959    0.3235 C.3       1 <0>         0.0314
     21 C16         0.8267    8.4796    1.2719 C.3       1 <0>         0.1111
     22 H1          2.2045    7.3011    5.4374 H         1 <0>         0.0832
     23 H2          3.9319    6.8713    5.1964 H         1 <0>         0.0780
     24 H3          2.7962    5.6683    5.8962 H         1 <0>         0.0776
     25 H4          0.9422    7.2004    3.2271 H         1 <0>         0.1418
     26 H5          3.4417    3.8721   -0.2636 H         1 <0>         0.4407
     27 H6          2.3208    1.3226    0.0501 H         1 <0>         0.1233
     28 H7          0.2702    0.0334   -0.4145 H         1 <0>         0.1260
     29 H8         -1.8675    1.2043   -0.7411 H         1 <0>         0.1256
     30 H9         -1.9729    3.6514   -0.6202 H         1 <0>         0.1265
     31 H10        -1.1776    6.9729   -1.0815 H         1 <0>         0.1044
     32 H11        -1.7789    8.1660    0.1193 H         1 <0>         0.0695
     33 H12         0.4208    8.6008   -1.9770 H         1 <0>         0.0349
     34 H13        -1.2082    9.3572   -1.9486 H         1 <0>         0.0894
     35 H14         2.0613    9.2147   -0.3472 H         1 <0>         0.0352
     36 H15         1.6735   10.4385    0.9091 H         1 <0>         0.0904
     37 H16         0.1191    8.8797    2.0130 H         1 <0>         0.0755
     38 H17         1.6982    8.0530    1.7901 H         1 <0>         0.0999
     39 H18         0.4513   10.8938   -1.1013 H         1 <0>         0.3455
@<TRIPOS>BOND
     1    1    2 1
     2    1   22 1
     3    1   23 1
     4    1   24 1
     5    2    6 1
     6    2    3 2
     7    3    4 1
     8    3   25 1
     9    4   15 1
    10    4    5 2
    11    5    6 1
    12    5    7 1
    13    7    8 1
    14    7   26 1
    15    8   13 ar
    16    8    9 ar
    17    9   10 ar
    18    9   27 1
    19   10   11 ar
    20   10   28 1
    21   11   12 ar
    22   11   29 1
    23   12   13 ar
    24   12   30 1
    25   13   14 1
    26   14   15 2
    27   15   16 1
    28   16   21 1
    29   16   17 1
    30   17   18 1
    31   17   31 1
    32   17   32 1
    33   18   19 1
    34   18   33 1
    35   18   34 1
    36   19   20 1
    37   19   39 1
    38   20   21 1
    39   20   35 1
    40   20   36 1
    41   21   37 1
    42   21   38 1
@<TRIPOS>MOLECULE
ZINC13517759
   24    25     0     0     0
SMALL
USER_CHARGES
(3R)-7-bromo-3-(trifluoromethyl)-1,2,3,4-tetrahydroisoquinoline
@<TRIPOS>ATOM
      1 C1          1.2109   -0.6760   -0.0136 C.ar      1 <0>        -0.0872
      2 C2          2.3929    0.0374   -0.0195 C.ar      1 <0>        -0.1088
      3 C3          2.3747    1.4237   -0.0099 C.ar      1 <0>        -0.0523
      4 C4          1.1701    2.0945    0.0021 C.ar      1 <0>        -0.0779
      5 C5         -0.0167    1.3773    0.0096 C.ar      1 <0>        -0.0830
      6 C6          0.0021   -0.0041    0.0020 C.ar      1 <0>        -0.0896
      7 Br1        -1.6212   -0.9739    0.0136 Br        1 <0>        -0.0450
      8 C7          1.0985    3.5990    0.0019 C.3       1 <0>         0.0911
      9 N1          2.3845    4.1740    0.4091 N.3       1 <0>        -0.6595
     10 C8          3.4733    3.6181   -0.4100 C.3       1 <0>         0.0313
     11 H1          3.1767    3.6924   -1.4667 H         1 <0>         0.0916
     12 C9          3.6899    2.1598   -0.0063 C.3       1 <0>        -0.0783
     13 C10         4.7557    4.4178   -0.1714 C.3       1 <0>         0.4603
     14 F1          5.1070    4.3432    1.1807 F         1 <0>        -0.1691
     15 F2          5.7884    3.8867   -0.9515 F         1 <0>        -0.1778
     16 F3          4.5442    5.7547   -0.5253 F         1 <0>        -0.1818
     17 H2          1.2301   -1.7558   -0.0208 H         1 <0>         0.1363
     18 H3          3.3368   -0.4873   -0.0320 H         1 <0>         0.1356
     19 H4         -0.9609    1.9015    0.0169 H         1 <0>         0.1354
     20 H5          0.8524    3.9542   -1.0097 H         1 <0>         0.0589
     21 H6          0.3204    3.9292    0.7058 H         1 <0>         0.1062
     22 H7          2.3564    5.2656    0.2768 H         1 <0>         0.3616
     23 H8          4.1271    2.1245    1.0025 H         1 <0>         0.1043
     24 H9          4.3780    1.6846   -0.7210 H         1 <0>         0.0976
@<TRIPOS>BOND
     1    1    6 ar
     2    1    2 ar
     3    1   17 1
     4    2    3 ar
     5    2   18 1
     6    3   12 1
     7    3    4 ar
     8    4    5 ar
     9    4    8 1
    10    5    6 ar
    11    5   19 1
    12    6    7 1
    13    8    9 1
    14    8   20 1
    15    8   21 1
    16    9   10 1
    17    9   22 1
    18   10   11 1
    19   10   12 1
    20   10   13 1
    21   12   23 1
    22   12   24 1
    23   13   14 1
    24   13   15 1
    25   13   16 1
@<TRIPOS>MOLECULE
ZINC26985028
   24    25     0     0     0
SMALL
USER_CHARGES
(3S)-7-bromo-3-(trifluoromethyl)-1,2,3,4-tetrahydroisoquinoline
@<TRIPOS>ATOM
      1 C1         -2.0810    5.7258    3.9462 C.ar      1 <0>        -0.0872
      2 C2         -1.6393    5.2301    2.7358 C.ar      1 <0>        -0.1054
      3 C3         -1.2256    3.9112    2.6275 C.ar      1 <0>        -0.0640
      4 C4         -1.2578    3.0885    3.7336 C.ar      1 <0>        -0.1143
      5 C5         -1.7001    3.5876    4.9494 C.ar      1 <0>        -0.0799
      6 C6         -2.1108    4.9022    5.0570 C.ar      1 <0>        -0.0885
      7 Br1        -2.7117    5.5744    6.7192 Br        1 <0>        -0.0437
      8 C7         -0.8243    1.6476    3.6651 C.3       1 <0>         0.0910
      9 N1         -0.0187    1.4104    2.4631 N.3       1 <0>        -0.6526
     10 C8         -0.7330    1.8882    1.2685 C.3       1 <0>         0.0317
     11 H1         -1.7560    1.4854    1.3026 H         1 <0>         0.1290
     12 C9         -0.7473    3.4170    1.2855 C.3       1 <0>        -0.1181
     13 C10        -0.0169    1.3948    0.0097 C.3       1 <0>         0.4649
     14 F1          0.0021   -0.0041    0.0020 F         1 <0>        -0.1710
     15 F2          1.2956    1.8790   -0.0002 F         1 <0>        -0.1810
     16 F3         -0.6935    1.8582   -1.1237 F         1 <0>        -0.1808
     17 H2         -2.4027    6.7537    4.0255 H         1 <0>         0.1365
     18 H3         -1.6166    5.8729    1.8682 H         1 <0>         0.1352
     19 H4         -1.7240    2.9449    5.8170 H         1 <0>         0.1367
     20 H5         -0.2223    1.4032    4.5527 H         1 <0>         0.1047
     21 H6         -1.7120    0.9987    3.6341 H         1 <0>         0.0983
     22 H7          0.9367    1.9486    2.5500 H         1 <0>         0.3575
     23 H8         -1.4231    3.7822    0.4982 H         1 <0>         0.1015
     24 H9          0.2699    3.7913    1.0982 H         1 <0>         0.0996
@<TRIPOS>BOND
     1    1    6 ar
     2    1    2 ar
     3    1   17 1
     4    2    3 ar
     5    2   18 1
     6    3   12 1
     7    3    4 ar
     8    4    5 ar
     9    4    8 1
    10    5    6 ar
    11    5   19 1
    12    6    7 1
    13    8    9 1
    14    8   20 1
    15    8   21 1
    16    9   10 1
    17    9   22 1
    18   10   11 1
    19   10   12 1
    20   10   13 1
    21   12   23 1
    22   12   24 1
    23   13   14 1
    24   13   15 1
    25   13   16 1
@<TRIPOS>MOLECULE
ZINC00113355
   26    26     0     0     0
SMALL
USER_CHARGES

@<TRIPOS>ATOM
      1 C1         -0.0178    1.4648    0.0101 C.3       1 <0>        -0.0479
      2 N1          0.0021   -0.0041    0.0020 N.4       1 <0>        -0.5056
      3 C2         -1.3761   -0.5125    0.0124 C.3       1 <0>        -0.0441
      4 C3         -1.3553   -2.0424    0.0040 C.3       1 <0>         0.1349
      5 H1         -0.8281   -2.4035    0.8871 H         1 <0>         0.1326
      6 C4         -2.7691   -2.5640    0.0147 C.ar      1 <0>        -0.1267
      7 C5         -3.4628   -2.7041   -1.1733 C.ar      1 <0>        -0.1176
      8 C6         -4.7599   -3.1823   -1.1669 C.ar      1 <0>        -0.0922
      9 C7         -5.3666   -3.5211    0.0273 C.ar      1 <0>        -0.1270
     10 C8         -4.6729   -3.3815    1.2204 C.ar      1 <0>         0.1181
     11 C9         -3.3690   -2.9071    1.2106 C.ar      1 <0>        -0.1312
     12 O1         -5.2674   -3.7142    2.3963 O.3       1 <0>        -0.4966
     13 O2         -0.6865   -2.5032   -1.1717 O.3       1 <0>        -0.5474
     14 H2          1.0047    1.8421    0.0024 H         1 <0>         0.1288
     15 H3         -0.5450    1.8259   -0.8730 H         1 <0>         0.1235
     16 H4         -0.5280    1.8163    0.9069 H         1 <0>         0.1242
     17 H5          0.4744   -0.3295   -0.8281 H         1 <0>         0.4339
     18 H6         -1.8863   -0.1610    0.9092 H         1 <0>         0.1449
     19 H7         -1.9033   -0.1515   -0.8706 H         1 <0>         0.1373
     20 H8         -2.9906   -2.4391   -2.1078 H         1 <0>         0.1260
     21 H9         -5.2996   -3.2908   -2.0961 H         1 <0>         0.1375
     22 H10        -6.3801   -3.8940    0.0319 H         1 <0>         0.1388
     23 H11        -2.8252   -2.8020    2.1378 H         1 <0>         0.1339
     24 H12        -5.1357   -4.6361    2.6566 H         1 <0>         0.4010
     25 H13        -1.1017   -2.2189   -1.9974 H         1 <0>         0.3891
     26 H14         0.4901   -0.3383    0.8195 H         1 <0>         0.4317
@<TRIPOS>BOND
     1    1    2 1
     2    1   14 1
     3    1   15 1
     4    1   16 1
     5    2    3 1
     6    2   17 1
     7    2   26 1
     8    3    4 1
     9    3   18 1
    10    3   19 1
    11    4    5 1
    12    4    6 1
    13    4   13 1
    14    6   11 ar
    15    6    7 ar
    16    7    8 ar
    17    7   20 1
    18    8    9 ar
    19    8   21 1
    20    9   10 ar
    21    9   22 1
    22   10   11 ar
    23   10   12 1
    24   11   23 1
    25   12   24 1
    26   13   25 1
@<TRIPOS>MOLECULE
ZINC56965850
   56    59     0     0     0
SMALL
USER_CHARGES

@<TRIPOS>ATOM
      1 C1         -0.0173    1.4248    0.0099 C.3       1 <0>         0.0251
      2 O1          0.0021   -0.0041    0.0020 O.3       1 <0>        -0.3038
      3 C2         -1.2013   -0.6380    0.0101 C.ar      1 <0>         0.1201
      4 C3         -2.3740    0.0989    0.0195 C.ar      1 <0>        -0.2065
      5 C4         -3.5967   -0.5469    0.0283 C.ar      1 <0>        -0.0833
      6 C5         -3.6532   -1.9283    0.0271 C.ar      1 <0>        -0.1524
      7 C6         -2.4875   -2.6710    0.0173 C.ar      1 <0>        -0.0880
      8 C7         -1.2572   -2.0300    0.0032 C.ar      1 <0>         0.1385
      9 N1         -0.0754   -2.7797   -0.0127 N.pl3     1 <0>        -0.6683
     10 C8          0.5713   -3.1961    1.2410 C.3       1 <0>         0.1532
     11 C9          0.8354   -4.7041    1.1750 C.3       1 <0>         0.0428
     12 N2          1.5913   -5.0126   -0.0462 N.3       1 <0>        -0.5298
     13 C10         0.8175   -4.6811   -1.2500 C.3       1 <0>         0.0354
     14 C11         0.5494   -3.1773   -1.2834 C.3       1 <0>         0.1531
     15 C12         2.0135   -6.4196   -0.0626 C.3       1 <0>         0.0450
     16 C13         2.9994   -6.6428   -1.2111 C.3       1 <0>         0.1217
     17 N3          3.4204   -8.0459   -1.2276 N.am      1 <0>        -0.7270
     18 C14         4.2932   -8.4767   -2.1598 C.2       1 <0>         0.5607
     19 O2          4.7311   -7.7010   -2.9870 O.2       1 <0>        -0.5331
     20 C15         4.7179   -9.8920   -2.1764 C.ar      1 <0>        -0.1389
     21 C16         4.2035  -10.7862   -1.2203 C.ar      1 <0>        -0.0930
     22 C17         4.5782  -12.0907   -1.2150 C.ar      1 <0>        -0.1082
     23 C18         5.4927  -12.5644   -2.1737 C.ar      1 <0>        -0.0338
     24 C19         5.8953  -13.9102   -2.1881 C.ar      1 <0>        -0.1133
     25 C20         6.7814  -14.3396   -3.1282 C.ar      1 <0>        -0.1033
     26 C21         7.2988  -13.4634   -4.0805 C.ar      1 <0>        -0.1183
     27 C22         6.9324  -12.1529   -4.0981 C.ar      1 <0>        -0.0954
     28 C23         6.0185  -11.6727   -3.1428 C.ar      1 <0>        -0.0640
     29 C24         5.6150  -10.3291   -3.1366 C.ar      1 <0>        -0.0299
     30 H1          1.0053    1.8021    0.0021 H         1 <0>         0.0994
     31 H2         -0.5445    1.7859   -0.8732 H         1 <0>         0.0538
     32 H3         -0.5275    1.7763    0.9067 H         1 <0>         0.0537
     33 H4         -2.3335    1.1781    0.0204 H         1 <0>         0.1277
     34 H5         -4.5101    0.0293    0.0363 H         1 <0>         0.1245
     35 H6         -4.6104   -2.4284    0.0343 H         1 <0>         0.1238
     36 H7         -2.5344   -3.7500    0.0168 H         1 <0>         0.1250
     37 H8          1.5150   -2.6639    1.3604 H         1 <0>         0.0593
     38 H9         -0.0855   -2.9758    2.0825 H         1 <0>         0.0705
     39 H10         1.4125   -5.0108    2.0473 H         1 <0>         0.0812
     40 H11        -0.1140   -5.2393    1.1600 H         1 <0>         0.0363
     41 H12         1.3817   -4.9710   -2.1364 H         1 <0>         0.0843
     42 H13        -0.1317   -5.2166   -1.2312 H         1 <0>         0.0364
     43 H14        -0.1219   -2.9447   -2.1101 H         1 <0>         0.0703
     44 H15         1.4910   -2.6433   -1.4113 H         1 <0>         0.0593
     45 H16         2.4960   -6.6652    0.8834 H         1 <0>         0.0821
     46 H17         1.1418   -7.0588   -0.2026 H         1 <0>         0.0399
     47 H18         2.5169   -6.3971   -2.1571 H         1 <0>         0.0703
     48 H19         3.8711   -6.0035   -1.0711 H         1 <0>         0.0802
     49 H20         3.0710   -8.6649   -0.5675 H         1 <0>         0.3994
     50 H21         3.5016  -10.4302   -0.4807 H         1 <0>         0.1250
     51 H22         4.1745  -12.7653   -0.4744 H         1 <0>         0.1335
     52 H23         5.5038  -14.6013   -1.4563 H         1 <0>         0.1303
     53 H24         7.0884  -15.3750   -3.1360 H         1 <0>         0.1265
     54 H25         8.0009  -13.8296   -4.8149 H         1 <0>         0.1272
     55 H26         7.3415  -11.4849   -4.8416 H         1 <0>         0.1319
     56 H27         6.0043   -9.6402   -3.8717 H         1 <0>         0.1431
@<TRIPOS>BOND
     1    1    2 1
     2    1   30 1
     3    1   31 1
     4    1   32 1
     5    2    3 1
     6    3    8 ar
     7    3    4 ar
     8    4    5 ar
     9    4   33 1
    10    5    6 ar
    11    5   34 1
    12    6    7 ar
    13    6   35 1
    14    7    8 ar
    15    7   36 1
    16    8    9 1
    17    9   14 1
    18    9   10 1
    19   10   11 1
    20   10   37 1
    21   10   38 1
    22   11   12 1
    23   11   39 1
    24   11   40 1
    25   12   13 1
    26   12   15 1
    27   13   14 1
    28   13   41 1
    29   13   42 1
    30   14   43 1
    31   14   44 1
    32   15   16 1
    33   15   45 1
    34   15   46 1
    35   16   17 1
    36   16   47 1
    37   16   48 1
    38   17   18 am
    39   17   49 1
    40   18   19 2
    41   18   20 1
    42   20   29 ar
    43   20   21 ar
    44   21   22 ar
    45   21   50 1
    46   22   23 ar
    47   22   51 1
    48   23   28 ar
    49   23   24 ar
    50   24   25 ar
    51   24   52 1
    52   25   26 ar
    53   25   53 1
    54   26   27 ar
    55   26   54 1
    56   27   28 ar
    57   27   55 1
    58   28   29 ar
    59   29   56 1
@<TRIPOS>MOLECULE
ZINC56966182
   57    60     0     0     0
SMALL
USER_CHARGES

@<TRIPOS>ATOM
      1 C1         -0.0173    1.4248    0.0099 C.3       1 <0>         0.0252
      2 O1          0.0021   -0.0041    0.0020 O.3       1 <0>        -0.3041
      3 C2          0.6263   -0.6189    1.0423 C.ar      1 <0>         0.1199
      4 C3          1.2020    0.1362    2.0507 C.ar      1 <0>        -0.2066
      5 C4          1.8368   -0.4902    3.1075 C.ar      1 <0>        -0.0833
      6 C5          1.8987   -1.8703    3.1618 C.ar      1 <0>        -0.1520
      7 C6          1.3263   -2.6311    2.1598 C.ar      1 <0>        -0.0877
      8 C7          0.6832   -2.0097    1.0992 C.ar      1 <0>         0.1384
      9 N1          0.0978   -2.7779    0.0862 N.pl3     1 <0>        -0.6683
     10 C8          0.8705   -3.1791   -1.0992 C.3       1 <0>         0.1535
     11 C9          0.7192   -4.6921   -1.2897 C.3       1 <0>         0.0422
     12 N2         -0.7081   -5.0367   -1.3328 N.3       1 <0>        -0.5318
     13 C10        -1.3720   -4.7173   -0.0619 C.3       1 <0>         0.0326
     14 C11        -1.3047   -3.2105    0.1818 C.3       1 <0>         0.1531
     15 C12        -0.8980   -6.4501   -1.6852 C.3       1 <0>         0.0493
     16 C13        -2.3795   -6.7116   -1.9641 C.3       1 <0>         0.1171
     17 N3         -2.5689   -8.1211   -2.3156 N.pl3     1 <0>        -1.1169
     18 S1         -4.0882   -8.7799   -2.3064 S.o2      1 <0>         2.6961
     19 O2         -3.9460  -10.1344   -2.7117 O.2       1 <0>        -0.9569
     20 O3         -4.6823   -8.4133   -1.0687 O.2       1 <0>        -0.9519
     21 C14        -5.0143   -7.9711   -3.5686 C.ar      1 <0>        -0.6726
     22 C15        -5.7290   -6.8147   -3.2615 C.ar      1 <0>        -0.0454
     23 C16        -6.4547   -6.1660   -4.2127 C.ar      1 <0>        -0.1156
     24 C17        -6.4855   -6.6668   -5.5255 C.ar      1 <0>        -0.0115
     25 C18        -7.2230   -6.0243   -6.5346 C.ar      1 <0>        -0.1193
     26 C19        -7.2292   -6.5379   -7.7949 C.ar      1 <0>        -0.0930
     27 C20        -6.5142   -7.6942   -8.1020 C.ar      1 <0>        -0.1217
     28 C21        -5.7889   -8.3431   -7.1507 C.ar      1 <0>        -0.0902
     29 C22        -5.7584   -7.8425   -5.8378 C.ar      1 <0>        -0.0800
     30 C23        -5.0164   -8.4819   -4.8300 C.ar      1 <0>         0.0203
     31 H1          1.0053    1.8021    0.0021 H         1 <0>         0.0536
     32 H2         -0.5445    1.7859   -0.8732 H         1 <0>         0.0991
     33 H3         -0.5275    1.7763    0.9067 H         1 <0>         0.0538
     34 H4          1.1555    1.2145    2.0114 H         1 <0>         0.1275
     35 H5          2.2858    0.1003    3.8925 H         1 <0>         0.1244
     36 H6          2.3959   -2.3551    3.9890 H         1 <0>         0.1239
     37 H7          1.3765   -3.7090    2.2044 H         1 <0>         0.1254
     38 H8          0.4889   -2.6595   -1.9781 H         1 <0>         0.0587
     39 H9          1.9218   -2.9319   -0.9519 H         1 <0>         0.0701
     40 H10         1.1938   -4.9902   -2.2246 H         1 <0>         0.0811
     41 H11         1.1942   -5.2127   -0.4581 H         1 <0>         0.0371
     42 H12        -2.4141   -5.0337   -0.1064 H         1 <0>         0.0849
     43 H13        -0.8680   -5.2375    0.7526 H         1 <0>         0.0384
     44 H14        -1.6908   -2.9840    1.1756 H         1 <0>         0.0706
     45 H15        -1.8994   -2.6939   -0.5716 H         1 <0>         0.0586
     46 H16        -0.3139   -6.6843   -2.5752 H         1 <0>         0.0835
     47 H17        -0.5676   -7.0784   -0.8581 H         1 <0>         0.0441
     48 H18        -2.9636   -6.4774   -1.0741 H         1 <0>         0.0816
     49 H19        -2.7099   -6.0833   -2.7912 H         1 <0>         0.0774
     50 H20        -1.8043   -8.6686   -2.5536 H         1 <0>         0.4193
     51 H21        -5.7070   -6.4278   -2.2534 H         1 <0>         0.1396
     52 H22        -7.0043   -5.2713   -3.9599 H         1 <0>         0.1370
     53 H23        -7.7821   -5.1277   -6.3111 H         1 <0>         0.1331
     54 H24        -7.7970   -6.0424   -8.5684 H         1 <0>         0.1289
     55 H25        -6.5362   -8.0812   -9.1101 H         1 <0>         0.1292
     56 H26        -5.2400   -9.2382   -7.4032 H         1 <0>         0.1338
     57 H27        -4.4540   -9.3762   -5.0545 H         1 <0>         0.1460
@<TRIPOS>BOND
     1    1    2 1
     2    1   31 1
     3    1   32 1
     4    1   33 1
     5    2    3 1
     6    3    8 ar
     7    3    4 ar
     8    4    5 ar
     9    4   34 1
    10    5    6 ar
    11    5   35 1
    12    6    7 ar
    13    6   36 1
    14    7    8 ar
    15    7   37 1
    16    8    9 1
    17    9   14 1
    18    9   10 1
    19   10   11 1
    20   10   38 1
    21   10   39 1
    22   11   12 1
    23   11   40 1
    24   11   41 1
    25   12   13 1
    26   12   15 1
    27   13   14 1
    28   13   42 1
    29   13   43 1
    30   14   44 1
    31   14   45 1
    32   15   16 1
    33   15   46 1
    34   15   47 1
    35   16   17 1
    36   16   48 1
    37   16   49 1
    38   17   18 1
    39   17   50 1
    40   18   19 2
    41   18   20 2
    42   18   21 1
    43   21   30 ar
    44   21   22 ar
    45   22   23 ar
    46   22   51 1
    47   23   24 ar
    48   23   52 1
    49   24   29 ar
    50   24   25 ar
    51   25   26 ar
    52   25   53 1
    53   26   27 ar
    54   26   54 1
    55   27   28 ar
    56   27   55 1
    57   28   29 ar
    58   28   56 1
    59   29   30 ar
    60   30   57 1
@<TRIPOS>MOLECULE
ZINC11909404
   60    63     0     0     0
SMALL
USER_CHARGES

@<TRIPOS>ATOM
      1 C1         -0.0173    1.4248    0.0099 C.3       1 <0>         0.0228
      2 O1          0.0021   -0.0041    0.0020 O.3       1 <0>        -0.3113
      3 C2         -1.2013   -0.6380    0.0101 C.ar      1 <0>         0.1289
      4 C3         -2.3740    0.0989    0.0195 C.ar      1 <0>        -0.2022
      5 C4         -3.5967   -0.5469    0.0283 C.ar      1 <0>        -0.0668
      6 C5         -3.6532   -1.9283    0.0271 C.ar      1 <0>        -0.1489
      7 C6         -2.4875   -2.6710    0.0173 C.ar      1 <0>        -0.0820
      8 C7         -1.2572   -2.0300    0.0032 C.ar      1 <0>         0.1085
      9 N1         -0.0754   -2.7797   -0.0127 N.pl3     1 <0>        -0.6634
     10 C8          0.5725   -3.1969    1.2404 C.3       1 <0>         0.1218
     11 C9          0.8530   -4.7014    1.1647 C.3       1 <0>        -0.0224
     12 N2          1.6309   -4.9929   -0.0461 N.4       1 <0>        -0.3796
     13 C10         0.8351   -4.6789   -1.2395 C.3       1 <0>        -0.0281
     14 C11         0.5506   -3.1781   -1.2829 C.3       1 <0>         0.1223
     15 C12         1.9935   -6.4164   -0.0621 C.3       1 <0>        -0.0057
     16 C13         2.9078   -6.6964   -1.2565 C.3       1 <0>        -0.1633
     17 C14         3.2853   -8.1790   -1.2732 C.3       1 <0>         0.1246
     18 N3          4.1608   -8.4471   -2.4169 N.am      1 <0>        -0.7346
     19 C15         4.6224   -9.6945   -2.6343 C.2       1 <0>         0.5667
     20 O2          4.3124  -10.5972   -1.8814 O.2       1 <0>        -0.5275
     21 C16         5.5055   -9.9650   -3.7879 C.ar      1 <0>        -0.1507
     22 C17         5.8655   -8.9154   -4.6523 C.ar      1 <0>        -0.0976
     23 C18         6.6753   -9.1386   -5.7184 C.ar      1 <0>        -0.1042
     24 C19         7.1657  -10.4330   -5.9711 C.ar      1 <0>        -0.0313
     25 C20         8.0053  -10.6884   -7.0682 C.ar      1 <0>        -0.1152
     26 C21         8.4646  -11.9512   -7.2870 C.ar      1 <0>        -0.0969
     27 C22         8.1147  -12.9997   -6.4382 C.ar      1 <0>        -0.1134
     28 C23         7.3037  -12.7910   -5.3655 C.ar      1 <0>        -0.0961
     29 C24         6.8099  -11.4995   -5.1070 C.ar      1 <0>        -0.0654
     30 C25         5.9768  -11.2487   -4.0064 C.ar      1 <0>        -0.0222
     31 H1          1.0053    1.8021    0.0021 H         1 <0>         0.1035
     32 H2         -0.5445    1.7859   -0.8732 H         1 <0>         0.0589
     33 H3         -0.5275    1.7763    0.9067 H         1 <0>         0.0590
     34 H4         -2.3335    1.1781    0.0204 H         1 <0>         0.1341
     35 H5         -4.5101    0.0293    0.0363 H         1 <0>         0.1320
     36 H6         -4.6104   -2.4284    0.0343 H         1 <0>         0.1307
     37 H7         -2.5344   -3.7500    0.0168 H         1 <0>         0.1267
     38 H8          1.5101   -2.6554    1.3659 H         1 <0>         0.0780
     39 H9         -0.0891   -2.9896    2.0815 H         1 <0>         0.1145
     40 H10         1.4191   -5.0102    2.0435 H         1 <0>         0.1370
     41 H11        -0.0906   -5.2458    1.1302 H         1 <0>         0.1307
     42 H12         1.3880   -4.9711   -2.1323 H         1 <0>         0.1363
     43 H13        -0.1080   -5.2240   -1.2012 H         1 <0>         0.1309
     44 H14        -0.1254   -2.9583   -2.1092 H         1 <0>         0.1138
     45 H15         1.4860   -2.6346   -1.4165 H         1 <0>         0.0770
     46 H16         2.5145   -6.6690    0.8613 H         1 <0>         0.1361
     47 H17         1.0901   -7.0204   -0.1466 H         1 <0>         0.1337
     48 H18         2.3868   -6.4437   -2.1800 H         1 <0>         0.0948
     49 H19         3.8111   -6.0923   -1.1721 H         1 <0>         0.0955
     50 H20         3.8063   -8.4316   -0.3497 H         1 <0>         0.0798
     51 H21         2.3820   -8.7830   -1.3577 H         1 <0>         0.0794
     52 H22         4.4082   -7.7268   -3.0176 H         1 <0>         0.4028
     53 H23         5.4926   -7.9192   -4.4655 H         1 <0>         0.1212
     54 H24         6.9429   -8.3226   -6.3733 H         1 <0>         0.1345
     55 H25         8.2848   -9.8865   -7.7354 H         1 <0>         0.1324
     56 H26         9.1098  -12.1434   -8.1315 H         1 <0>         0.1299
     57 H27         8.4923  -13.9922   -6.6348 H         1 <0>         0.1305
     58 H28         7.0403  -13.6128   -4.7162 H         1 <0>         0.1336
     59 H29         5.7016  -12.0509   -3.3377 H         1 <0>         0.1434
     60 H30         2.4712   -4.4343   -0.0471 H         1 <0>         0.4224
@<TRIPOS>BOND
     1    1    2 1
     2    1   31 1
     3    1   32 1
     4    1   33 1
     5    2    3 1
     6    3    8 ar
     7    3    4 ar
     8    4    5 ar
     9    4   34 1
    10    5    6 ar
    11    5   35 1
    12    6    7 ar
    13    6   36 1
    14    7    8 ar
    15    7   37 1
    16    8    9 1
    17    9   14 1
    18    9   10 1
    19   10   11 1
    20   10   38 1
    21   10   39 1
    22   11   12 1
    23   11   40 1
    24   11   41 1
    25   12   13 1
    26   12   15 1
    27   12   60 1
    28   13   14 1
    29   13   42 1
    30   13   43 1
    31   14   44 1
    32   14   45 1
    33   15   16 1
    34   15   46 1
    35   15   47 1
    36   16   17 1
    37   16   48 1
    38   16   49 1
    39   17   18 1
    40   17   50 1
    41   17   51 1
    42   18   19 am
    43   18   52 1
    44   19   20 2
    45   19   21 1
    46   21   30 ar
    47   21   22 ar
    48   22   23 ar
    49   22   53 1
    50   23   24 ar
    51   23   54 1
    52   24   29 ar
    53   24   25 ar
    54   25   26 ar
    55   25   55 1
    56   26   27 ar
    57   26   56 1
    58   27   28 ar
    59   27   57 1
    60   28   29 ar
    61   28   58 1
    62   29   30 ar
    63   30   59 1
@<TRIPOS>MOLECULE
ZINC11909404
   59    62     0     0     0
SMALL
USER_CHARGES

@<TRIPOS>ATOM
      1 C1         -0.0173    1.4248    0.0099 C.3       1 <0>         0.0251
      2 O1          0.0021   -0.0041    0.0020 O.3       1 <0>        -0.3041
      3 C2         -1.2013   -0.6380    0.0101 C.ar      1 <0>         0.1196
      4 C3         -2.3740    0.0989    0.0195 C.ar      1 <0>        -0.2065
      5 C4         -3.5967   -0.5469    0.0283 C.ar      1 <0>        -0.0835
      6 C5         -3.6532   -1.9283    0.0271 C.ar      1 <0>        -0.1520
      7 C6         -2.4875   -2.6710    0.0173 C.ar      1 <0>        -0.0881
      8 C7         -1.2572   -2.0300    0.0032 C.ar      1 <0>         0.1386
      9 N1         -0.0754   -2.7797   -0.0127 N.pl3     1 <0>        -0.6682
     10 C8          0.5713   -3.1961    1.2410 C.3       1 <0>         0.1533
     11 C9          0.8354   -4.7041    1.1750 C.3       1 <0>         0.0412
     12 N2          1.5913   -5.0126   -0.0462 N.3       1 <0>        -0.5339
     13 C10         0.8175   -4.6811   -1.2500 C.3       1 <0>         0.0372
     14 C11         0.5494   -3.1773   -1.2834 C.3       1 <0>         0.1535
     15 C12         2.0135   -6.4196   -0.0626 C.3       1 <0>         0.0591
     16 C13         2.9994   -6.6428   -1.2111 C.3       1 <0>        -0.1286
     17 C14         3.4391   -8.1081   -1.2283 C.3       1 <0>         0.1202
     18 N3          4.3831   -8.3219   -2.3280 N.am      1 <0>        -0.7261
     19 C15         4.9072   -9.5457   -2.5380 C.2       1 <0>         0.5593
     20 O2          4.5966  -10.4722   -1.8148 O.2       1 <0>        -0.5359
     21 C16         5.8594   -9.7613   -3.6473 C.ar      1 <0>        -0.1393
     22 C17         6.2196   -8.6843   -4.4772 C.ar      1 <0>        -0.0928
     23 C18         7.0921   -8.8571   -5.5023 C.ar      1 <0>        -0.1081
     24 C19         7.6488  -10.1261   -5.7466 C.ar      1 <0>        -0.0338
     25 C20         8.5540  -10.3293   -6.8015 C.ar      1 <0>        -0.1131
     26 C21         9.0765  -11.5685   -7.0132 C.ar      1 <0>        -0.1035
     27 C22         8.7273  -12.6438   -6.1984 C.ar      1 <0>        -0.1183
     28 C23         7.8537  -12.4857   -5.1669 C.ar      1 <0>        -0.0956
     29 C24         7.2936  -11.2199   -4.9170 C.ar      1 <0>        -0.0641
     30 C25         6.3948  -11.0209   -3.8583 C.ar      1 <0>        -0.0304
     31 H1          1.0053    1.8021    0.0021 H         1 <0>         0.0992
     32 H2         -0.5445    1.7859   -0.8732 H         1 <0>         0.0537
     33 H3         -0.5275    1.7763    0.9067 H         1 <0>         0.0538
     34 H4         -2.3335    1.1781    0.0204 H         1 <0>         0.1277
     35 H5         -4.5101    0.0293    0.0363 H         1 <0>         0.1245
     36 H6         -4.6104   -2.4284    0.0343 H         1 <0>         0.1239
     37 H7         -2.5344   -3.7500    0.0168 H         1 <0>         0.1252
     38 H8          1.5150   -2.6639    1.3604 H         1 <0>         0.0583
     39 H9         -0.0855   -2.9758    2.0825 H         1 <0>         0.0696
     40 H10         1.4125   -5.0108    2.0473 H         1 <0>         0.0806
     41 H11        -0.1140   -5.2393    1.1600 H         1 <0>         0.0354
     42 H12         1.3817   -4.9710   -2.1364 H         1 <0>         0.0818
     43 H13        -0.1317   -5.2166   -1.2312 H         1 <0>         0.0346
     44 H14        -0.1219   -2.9447   -2.1101 H         1 <0>         0.0686
     45 H15         1.4910   -2.6433   -1.4113 H         1 <0>         0.0573
     46 H16         2.4960   -6.6652    0.8834 H         1 <0>         0.0791
     47 H17         1.1418   -7.0588   -0.2026 H         1 <0>         0.0367
     48 H18         2.5169   -6.3971   -2.1571 H         1 <0>         0.0704
     49 H19         3.8711   -6.0035   -1.0711 H         1 <0>         0.0803
     50 H20         3.9216   -8.3538   -0.2823 H         1 <0>         0.0711
     51 H21         2.5674   -8.7474   -1.3683 H         1 <0>         0.0685
     52 H22         4.6310   -7.5826   -2.9050 H         1 <0>         0.4009
     53 H23         5.7960   -7.7074   -4.2966 H         1 <0>         0.1256
     54 H24         7.3589   -8.0204   -6.1309 H         1 <0>         0.1337
     55 H25         8.8339   -9.5061   -7.4421 H         1 <0>         0.1304
     56 H26         9.7721  -11.7206   -7.8252 H         1 <0>         0.1265
     57 H27         9.1558  -13.6168   -6.3885 H         1 <0>         0.1271
     58 H28         7.5917  -13.3278   -4.5436 H         1 <0>         0.1317
     59 H29         6.1191  -11.8443   -3.2160 H         1 <0>         0.1427
@<TRIPOS>BOND
     1    1    2 1
     2    1   31 1
     3    1   32 1
     4    1   33 1
     5    2    3 1
     6    3    8 ar
     7    3    4 ar
     8    4    5 ar
     9    4   34 1
    10    5    6 ar
    11    5   35 1
    12    6    7 ar
    13    6   36 1
    14    7    8 ar
    15    7   37 1
    16    8    9 1
    17    9   14 1
    18    9   10 1
    19   10   11 1
    20   10   38 1
    21   10   39 1
    22   11   12 1
    23   11   40 1
    24   11   41 1
    25   12   13 1
    26   12   15 1
    27   13   14 1
    28   13   42 1
    29   13   43 1
    30   14   44 1
    31   14   45 1
    32   15   16 1
    33   15   46 1
    34   15   47 1
    35   16   17 1
    36   16   48 1
    37   16   49 1
    38   17   18 1
    39   17   50 1
    40   17   51 1
    41   18   19 am
    42   18   52 1
    43   19   20 2
    44   19   21 1
    45   21   30 ar
    46   21   22 ar
    47   22   23 ar
    48   22   53 1
    49   23   24 ar
    50   23   54 1
    51   24   29 ar
    52   24   25 ar
    53   25   26 ar
    54   25   55 1
    55   26   27 ar
    56   26   56 1
    57   27   28 ar
    58   27   57 1
    59   28   29 ar
    60   28   58 1
    61   29   30 ar
    62   30   59 1
@<TRIPOS>MOLECULE
ZINC53174616
   50    54     0     0     0
SMALL
USER_CHARGES

@<TRIPOS>ATOM
      1 C1          0.0165    1.5189   -0.3781 C.3       1 <0>        -0.1837
      2 C2          0.0058    0.0207   -0.0679 C.3       1 <0>         0.0810
      3 H1         -1.0228   -0.3343   -0.0041 H         1 <0>         0.1262
      4 C3          0.7509   -0.7439   -1.1753 C.3       1 <0>        -0.1121
      5 H2          0.2299   -0.6286   -2.1257 H         1 <0>         0.1077
      6 C4          0.8066   -2.2231   -0.7822 C.3       1 <0>         0.0646
      7 N1          1.6308   -2.9620   -1.7441 N.3       1 <0>        -0.5279
      8 C5          1.5557   -4.4104   -1.5232 C.3       1 <0>         0.0568
      9 C6          2.1052   -5.1453   -2.7539 C.3       1 <0>        -0.0386
     10 C7          3.4297   -4.5233   -3.1181 C.2       1 <0>        -0.1570
     11 C8          4.4719   -5.0290   -3.9834 C.ar      1 <0>        -0.0993
     12 C9          4.5974   -6.2007   -4.7364 C.ar      1 <0>        -0.0669
     13 C10         5.7550   -6.3540   -5.4584 C.ar      1 <0>        -0.1502
     14 C11         6.7597   -5.4003   -5.4503 C.ar      1 <0>        -0.1006
     15 C12         6.6621   -4.2314   -4.7157 C.ar      1 <0>        -0.1318
     16 C13         5.4979   -4.0483   -3.9724 C.ar      1 <0>         0.0990
     17 N2          5.0837   -3.0345   -3.1564 N.pl3     1 <0>        -0.5784
     18 H3          5.5905   -2.2299   -2.9651 H         1 <0>         0.4132
     19 C14         3.8460   -3.3240   -2.6499 C.2       1 <0>         0.0739
     20 C15         3.0202   -2.4778   -1.7126 C.3       1 <0>         0.1596
     21 H4          3.4149   -2.5589   -0.6999 H         1 <0>         0.0544
     22 C16         3.0416   -1.0208   -2.1790 C.3       1 <0>        -0.1157
     23 C17         2.1608   -0.1606   -1.2752 C.3       1 <0>        -0.0238
     24 H5          2.0924    0.8454   -1.6892 H         1 <0>         0.0877
     25 C18         2.7658   -0.0514    0.0943 C.2       1 <0>        -0.3056
     26 C19         2.0134   -0.0822    1.2009 C.2       1 <0>         0.1819
     27 O1          0.6773   -0.2202    1.1714 O.3       1 <0>        -0.2903
     28 C20         4.1691    0.0872    0.2187 C.2       1 <0>         0.5225
     29 O2          4.6893    0.0466    1.3178 O.2       1 <0>        -0.5234
     30 O3          4.9297    0.2644   -0.8816 O.3       1 <0>        -0.3463
     31 C21         6.3384    0.3971   -0.6819 C.3       1 <0>         0.0254
     32 H6          1.0466    1.8696   -0.4411 H         1 <0>         0.0680
     33 H7         -0.4866    1.6967   -1.3286 H         1 <0>         0.0807
     34 H8         -0.5030    2.0577    0.4143 H         1 <0>         0.0712
     35 H9          1.2395   -2.3173    0.2137 H         1 <0>         0.0404
     36 H10        -0.2026   -2.6351   -0.7780 H         1 <0>         0.0848
     37 H11         2.1480   -4.6755   -0.6474 H         1 <0>         0.0373
     38 H12         0.5175   -4.6998   -1.3607 H         1 <0>         0.0829
     39 H13         2.2459   -6.2006   -2.5200 H         1 <0>         0.0758
     40 H14         1.4086   -5.0417   -3.5859 H         1 <0>         0.0792
     41 H15         3.8201   -6.9503   -4.7490 H         1 <0>         0.1280
     42 H16         5.8867   -7.2470   -6.0515 H         1 <0>         0.1176
     43 H17         7.6492   -5.5746   -6.0375 H         1 <0>         0.1203
     44 H18         7.4524   -3.4954   -4.7178 H         1 <0>         0.1261
     45 H19         4.0649   -0.6464   -2.1515 H         1 <0>         0.1010
     46 H20         2.6620   -0.9611   -3.1990 H         1 <0>         0.0794
     47 H21         2.5017    0.0081    2.1600 H         1 <0>         0.1818
     48 H22         6.5357    1.2610   -0.0472 H         1 <0>         0.0625
     49 H23         6.7236   -0.5023   -0.2014 H         1 <0>         0.0596
     50 H24         6.8306    0.5337   -1.6449 H         1 <0>         0.1010
@<TRIPOS>BOND
     1    1    2 1
     2    1   32 1
     3    1   33 1
     4    1   34 1
     5    2    3 1
     6    2   27 1
     7    2    4 1
     8    4    5 1
     9    4   23 1
    10    4    6 1
    11    6    7 1
    12    6   35 1
    13    6   36 1
    14    7   20 1
    15    7    8 1
    16    8    9 1
    17    8   37 1
    18    8   38 1
    19    9   10 1
    20    9   39 1
    21    9   40 1
    22   10   19 2
    23   10   11 1
    24   11   16 ar
    25   11   12 ar
    26   12   13 ar
    27   12   41 1
    28   13   14 ar
    29   13   42 1
    30   14   15 ar
    31   14   43 1
    32   15   16 ar
    33   15   44 1
    34   16   17 1
    35   17   18 1
    36   17   19 1
    37   19   20 1
    38   20   21 1
    39   20   22 1
    40   22   23 1
    41   22   45 1
    42   22   46 1
    43   23   24 1
    44   23   25 1
    45   25   26 2
    46   25   28 1
    47   26   27 1
    48   26   47 1
    49   28   29 2
    50   28   30 1
    51   30   31 1
    52   31   48 1
    53   31   49 1
    54   31   50 1
@<TRIPOS>MOLECULE
ZINC00900633
   28    29     0     0     0
SMALL
USER_CHARGES

@<TRIPOS>ATOM
      1 C1         -0.0178    1.4648    0.0101 C.3       1 <0>        -0.0533
      2 N1          0.0021   -0.0041    0.0020 N.4       1 <0>        -0.3770
      3 C2         -1.3642   -0.4768   -0.1315 C.3       1 <0>        -0.0102
      4 C3         -1.3996   -1.9756   -0.4464 C.3       1 <0>        -0.0967
      5 C4         -1.3325   -2.7357    0.8628 C.ar      1 <0>        -0.0945
      6 C5         -2.4369   -3.4380    1.3085 C.ar      1 <0>        -0.0982
      7 C6         -2.3700   -4.1297    2.5046 C.ar      1 <0>        -0.0924
      8 C7         -1.2049   -4.1171    3.2484 C.ar      1 <0>        -0.0971
      9 C8         -0.1015   -3.4128    2.7976 C.ar      1 <0>        -0.0260
     10 C9         -0.1744   -2.7235    1.6000 C.ar      1 <0>        -0.0978
     11 C10         1.0295   -1.9515    1.0994 C.3       1 <0>        -0.1068
     12 C11         0.7090   -0.4560    1.1870 C.3       1 <0>        -0.0076
     13 Cl1         1.3637   -3.3946    3.7285 Cl        1 <0>        -0.0468
     14 H1          1.0047    1.8421    0.0024 H         1 <0>         0.1262
     15 H2         -0.5450    1.8259   -0.8730 H         1 <0>         0.1262
     16 H3         -0.5280    1.8163    0.9069 H         1 <0>         0.1225
     17 H4         -1.8986   -0.2944    0.8009 H         1 <0>         0.1294
     18 H5         -1.8548    0.0697   -0.9369 H         1 <0>         0.1394
     19 H6         -2.3256   -2.2204   -0.9667 H         1 <0>         0.1218
     20 H7         -0.5457   -2.2408   -1.0698 H         1 <0>         0.0984
     21 H8         -3.3464   -3.4467    0.7261 H         1 <0>         0.1391
     22 H9         -3.2294   -4.6801    2.8580 H         1 <0>         0.1429
     23 H10        -1.1553   -4.6570    4.1825 H         1 <0>         0.1434
     24 H11         1.8962   -2.1788    1.7200 H         1 <0>         0.1238
     25 H12         1.2362   -2.2233    0.0642 H         1 <0>         0.1014
     26 H13         1.6389    0.1042    1.2843 H         1 <0>         0.1401
     27 H14         0.0890   -0.2737    2.0648 H         1 <0>         0.1295
     28 H15         0.5195   -0.3070   -0.8095 H         1 <0>         0.4204
@<TRIPOS>BOND
     1    1    2 1
     2    1   14 1
     3    1   15 1
     4    1   16 1
     5    2   12 1
     6    2    3 1
     7    2   28 1
     8    3    4 1
     9    3   17 1
    10    3   18 1
    11    4    5 1
    12    4   19 1
    13    4   20 1
    14    5   10 ar
    15    5    6 ar
    16    6    7 ar
    17    6   21 1
    18    7    8 ar
    19    7   22 1
    20    8    9 ar
    21    8   23 1
    22    9   10 ar
    23    9   13 1
    24   10   11 1
    25   11   12 1
    26   11   24 1
    27   11   25 1
    28   12   26 1
    29   12   27 1
@<TRIPOS>MOLECULE
ZINC02022527
   54    55     0     0     0
SMALL
USER_CHARGES

@<TRIPOS>ATOM
      1 C1         -3.0730    2.2881   -4.2693 C.3       1 <0>        -0.1569
      2 C2         -2.3049    1.5870   -3.1471 C.3       1 <0>        -0.1270
      3 C3         -2.8110    2.0874   -1.7927 C.3       1 <0>        -0.1231
      4 C4         -2.0429    1.3862   -0.6705 C.3       1 <0>        -0.1174
      5 C5         -2.5490    1.8867    0.6839 C.3       1 <0>        -0.1006
      6 C6         -2.2117    3.3722    0.8391 C.3       1 <0>        -0.1451
      7 C7         -2.6658    3.8518    2.2196 C.3       1 <0>        -0.0114
      8 C8         -2.3347    1.6429    3.1595 C.3       1 <0>        -0.0001
      9 C9         -1.8707    1.0973    1.8070 C.3       1 <0>        -0.1442
     10 C10        -2.2939    3.5901    4.5974 C.3       1 <0>        -0.0052
     11 C11        -2.1583    5.1140    4.5919 C.3       1 <0>        -0.1459
     12 C12        -2.4764    5.6593    5.9856 C.3       1 <0>        -0.1543
     13 C13        -2.3428    7.1604    5.9803 C.2       1 <0>         0.3987
     14 O1         -2.0245    7.7371    4.9623 O.2       1 <0>        -0.4456
     15 C14        -2.5986    7.9263    7.2106 C.ar      1 <0>        -0.1885
     16 C15        -3.0878    7.2813    8.3513 C.ar      1 <0>        -0.0705
     17 C16        -3.3195    8.0047    9.5018 C.ar      1 <0>        -0.1389
     18 C17        -3.0801    9.3679    9.5265 C.ar      1 <0>        -0.0729
     19 C18        -2.6016   10.0143    8.4004 C.ar      1 <0>        -0.1345
     20 C19        -2.3594    9.3036    7.2436 C.ar      1 <0>        -0.0178
     21 C20        -1.8387   10.0095    6.0182 C.3       1 <0>        -0.1264
     22 H1         -4.1363    2.0676   -4.1746 H         1 <0>         0.0549
     23 H2         -2.9175    3.3647   -4.1985 H         1 <0>         0.0540
     24 H3         -2.7125    1.9316   -5.2342 H         1 <0>         0.0581
     25 H4         -1.2417    1.8075   -3.2417 H         1 <0>         0.0621
     26 H5         -2.4605    0.5104   -3.2179 H         1 <0>         0.0631
     27 H6         -3.8743    1.8669   -1.6981 H         1 <0>         0.0644
     28 H7         -2.6555    3.1639   -1.7219 H         1 <0>         0.0632
     29 H8         -2.1984    0.3097   -0.7413 H         1 <0>         0.0733
     30 H9         -0.9796    1.6067   -0.7651 H         1 <0>         0.0688
     31 H10        -3.6287    1.7492    0.7427 H         1 <0>         0.0884
     32 H11        -1.1354    3.5132    0.7407 H         1 <0>         0.0881
     33 H12        -2.7264    3.9447    0.0675 H         1 <0>         0.1133
     34 H13        -3.7442    3.7233    2.3122 H         1 <0>         0.1295
     35 H14        -2.4142    4.9057    2.3388 H         1 <0>         0.1342
     36 H15        -3.4146    1.5248    3.2476 H         1 <0>         0.1293
     37 H16        -1.8426    1.0924    3.9613 H         1 <0>         0.1282
     38 H17        -2.1418    0.0446    1.7270 H         1 <0>         0.1118
     39 H18        -0.7890    1.2025    1.7239 H         1 <0>         0.0880
     40 H19        -3.3133    3.3170    4.8704 H         1 <0>         0.1315
     41 H20        -1.5979    3.1659    5.3211 H         1 <0>         0.1302
     42 H21        -1.1389    5.3871    4.3190 H         1 <0>         0.0944
     43 H22        -2.8542    5.5382    3.8682 H         1 <0>         0.0968
     44 H23        -3.4115    5.4088    6.2361 H         1 <0>         0.0981
     45 H24        -1.7805    5.2352    6.7093 H         1 <0>         0.1100
     46 H25        -3.2793    6.2186    8.3321 H         1 <0>         0.1290
     47 H26        -3.6933    7.5074   10.3846 H         1 <0>         0.1322
     48 H27        -3.2682    9.9300   10.4293 H         1 <0>         0.1326
     49 H28        -2.4176   11.0782    8.4274 H         1 <0>         0.1332
     50 H29        -2.6709   10.2515    5.3572 H         1 <0>         0.0784
     51 H30        -1.3321   10.9277    6.3156 H         1 <0>         0.0652
     52 H31        -1.1365    9.3600    5.4956 H         1 <0>         0.0893
     53 N1         -1.9588    3.0696    3.2558 N.4       1 <0>        -0.3931
     54 H32        -0.9467    3.1581    3.1071 H         1 <0>         0.4272
@<TRIPOS>BOND
     1    1    2 1
     2    1   22 1
     3    1   23 1
     4    1   24 1
     5    2    3 1
     6    2   25 1
     7    2   26 1
     8    3    4 1
     9    3   27 1
    10    3   28 1
    11    4    5 1
    12    4   29 1
    13    4   30 1
    14    5    9 1
    15    5    6 1
    16    5   31 1
    17    6    7 1
    18    6   32 1
    19    6   33 1
    20    7   34 1
    21    7   35 1
    22    7   53 1
    23    8    9 1
    24    8   36 1
    25    8   37 1
    26    8   53 1
    27    9   38 1
    28    9   39 1
    29   10   11 1
    30   10   40 1
    31   10   41 1
    32   10   53 1
    33   11   12 1
    34   11   42 1
    35   11   43 1
    36   12   13 1
    37   12   44 1
    38   12   45 1
    39   13   14 2
    40   13   15 1
    41   15   20 ar
    42   15   16 ar
    43   16   17 ar
    44   16   46 1
    45   17   18 ar
    46   17   47 1
    47   18   19 ar
    48   18   48 1
    49   19   20 ar
    50   19   49 1
    51   20   21 1
    52   21   50 1
    53   21   51 1
    54   21   52 1
    55   53   54 1
@<TRIPOS>MOLECULE
ZINC03612873
   32    34     0     0     0
SMALL
USER_CHARGES
4-(2-ethyl-5-fluoro-indan-2-yl)-1H-imidazole
@<TRIPOS>ATOM
      1 C1          3.0301    3.2972    1.6570 C.3       1 <0>        -0.1615
      2 C2          2.1353    4.5031    1.3637 C.3       1 <0>        -0.1049
      3 C3          1.4462    4.3100    0.0114 C.3       1 <0>         0.0272
      4 C4          0.5868    5.5408   -0.3472 C.3       1 <0>        -0.0716
      5 C5          0.7056    5.6830   -1.8496 C.ar      1 <0>        -0.0916
      6 C6         -0.0757    6.3905   -2.7483 C.ar      1 <0>        -0.0783
      7 C7          0.2267    6.3750   -4.0953 C.ar      1 <0>        -0.1528
      8 C8          1.3152    5.6500   -4.5504 C.ar      1 <0>         0.0932
      9 C9          2.0962    4.9435   -3.6536 C.ar      1 <0>        -0.1430
     10 C10         1.7925    4.9589   -2.3027 C.ar      1 <0>        -0.0695
     11 C11         2.4782    4.2809   -1.1359 C.3       1 <0>        -0.0698
     12 F1          1.6140    5.6331   -5.8678 F         1 <0>        -0.1407
     13 C12         0.6111    3.0555    0.0126 C.2       1 <0>         0.0238
     14 C13         1.0795    1.7930    0.0014 C.2       1 <0>        -0.0533
     15 N1         -0.0111    0.9658    0.0074 N.pl3     1 <0>        -0.5732
     16 H1          0.0025   -0.0341    0.0056 H         1 <0>         0.4264
     17 C14        -1.1088    1.7523    0.0162 C.2       1 <0>         0.1846
     18 N2         -0.7290    3.0008    0.0252 N.2       1 <0>        -0.4846
     19 H2          3.7838    3.2052    0.8750 H         1 <0>         0.0560
     20 H3          3.5210    3.4348    2.6204 H         1 <0>         0.0555
     21 H4          2.4228    2.3924    1.6846 H         1 <0>         0.0608
     22 H5          2.7425    5.4079    1.3361 H         1 <0>         0.0717
     23 H6          1.3816    4.5951    2.1457 H         1 <0>         0.0685
     24 H7         -0.4523    5.3720   -0.0643 H         1 <0>         0.0963
     25 H8          0.9748    6.4305    0.1488 H         1 <0>         0.0831
     26 H9         -0.9250    6.9558   -2.3940 H         1 <0>         0.1308
     27 H10        -0.3852    6.9273   -4.7932 H         1 <0>         0.1358
     28 H11         2.9452    4.3779   -4.0081 H         1 <0>         0.1307
     29 H12         3.3749    4.8318   -0.8521 H         1 <0>         0.0909
     30 H13         2.7307    3.2518   -1.3916 H         1 <0>         0.0783
     31 H14         2.1164    1.4911   -0.0096 H         1 <0>         0.1749
     32 H15        -2.1316    1.4055    0.0181 H         1 <0>         0.2063
@<TRIPOS>BOND
     1    1    2 1
     2    1   19 1
     3    1   20 1
     4    1   21 1
     5    2    3 1
     6    2   22 1
     7    2   23 1
     8    3   11 1
     9    3    4 1
    10    3   13 1
    11    4    5 1
    12    4   24 1
    13    4   25 1
    14    5   10 ar
    15    5    6 ar
    16    6    7 ar
    17    6   26 1
    18    7    8 ar
    19    7   27 1
    20    8    9 ar
    21    8   12 1
    22    9   10 ar
    23    9   28 1
    24   10   11 1
    25   11   29 1
    26   11   30 1
    27   13   18 1
    28   13   14 2
    29   14   15 1
    30   14   31 1
    31   15   16 1
    32   15   17 1
    33   17   18 2
    34   17   32 1
@<TRIPOS>MOLECULE
ZINC05424460
   33    35     0     0     0
SMALL
USER_CHARGES

@<TRIPOS>ATOM
      1 C1          0.6858   -0.5068    1.2401 C.3       1 <0>        -0.1599
      2 C2         -0.0094    0.0252   -0.0147 C.3       1 <0>        -0.1162
      3 C3          0.7857   -0.3913   -1.2537 C.3       1 <0>         0.0004
      4 C4          0.0527    0.0325   -2.5441 C.3       1 <0>        -0.0691
      5 C5          0.3340   -1.0719   -3.5405 C.ar      1 <0>        -0.1168
      6 C6          0.2097   -1.0885   -4.9200 C.ar      1 <0>        -0.0711
      7 C7          0.5291   -2.2265   -5.6335 C.ar      1 <0>        -0.1453
      8 C8          0.9761   -3.3558   -4.9682 C.ar      1 <0>         0.1112
      9 C9          1.1009   -3.3400   -3.5907 C.ar      1 <0>        -0.1392
     10 C10         0.7800   -2.1987   -2.8754 C.ar      1 <0>        -0.0800
     11 C11         0.8289   -1.9284   -1.3868 C.3       1 <0>        -0.0691
     12 F1          1.2891   -4.4712   -5.6633 F         1 <0>        -0.1305
     13 C12         2.1788    0.1819   -1.2111 C.2       1 <0>         0.0542
     14 C13         3.3245   -0.5113   -1.3536 C.2       1 <0>         0.0335
     15 N1          4.3487    0.3909   -1.2498 N.pl3     1 <0>        -0.5069
     16 H1          5.2968    0.1948   -1.3104 H         1 <0>         0.4682
     17 C14         3.7928    1.6048   -1.0473 C.cat     1 <0>         0.3065
     18 N2          2.4946    1.4729   -1.0303 N.pl3     1 <0>        -0.4733
     19 H2          0.6737   -1.5967    1.2277 H         1 <0>         0.0680
     20 H3          1.7172   -0.1551    1.2608 H         1 <0>         0.0458
     21 H4          0.1616   -0.1477    2.1258 H         1 <0>         0.0698
     22 H5         -1.0169   -0.3867   -0.0742 H         1 <0>         0.0952
     23 H6         -0.0638    1.1127    0.0335 H         1 <0>         0.0694
     24 H7         -1.0189    0.1130   -2.3613 H         1 <0>         0.1065
     25 H8          0.4472    0.9807   -2.9092 H         1 <0>         0.0775
     26 H9         -0.1388   -0.2081   -5.4393 H         1 <0>         0.1344
     27 H10         0.4303   -2.2360   -6.7089 H         1 <0>         0.1435
     28 H11         1.4491   -4.2206   -3.0715 H         1 <0>         0.1390
     29 H12         1.7533   -2.3191   -0.9616 H         1 <0>         0.0871
     30 H13        -0.0340   -2.3752   -0.8928 H         1 <0>         0.1109
     31 H14         3.4174   -1.5747   -1.5178 H         1 <0>         0.2242
     32 H15         4.3330    2.5319   -0.9240 H         1 <0>         0.2677
     33 H16         1.8585    2.1944   -0.9048 H         1 <0>         0.4641
@<TRIPOS>BOND
     1    1    2 1
     2    1   19 1
     3    1   20 1
     4    1   21 1
     5    2    3 1
     6    2   22 1
     7    2   23 1
     8    3   11 1
     9    3    4 1
    10    3   13 1
    11    4    5 1
    12    4   24 1
    13    4   25 1
    14    5   10 ar
    15    5    6 ar
    16    6    7 ar
    17    6   26 1
    18    7    8 ar
    19    7   27 1
    20    8    9 ar
    21    8   12 1
    22    9   10 ar
    23    9   28 1
    24   10   11 1
    25   11   29 1
    26   11   30 1
    27   13   18 1
    28   13   14 2
    29   14   15 1
    30   14   31 1
    31   15   16 1
    32   15   17 1
    33   17   18 2
    34   17   32 1
    35   18   33 1
@<TRIPOS>MOLECULE
ZINC05424460
   32    34     0     0     0
SMALL
USER_CHARGES
4-[(2S)-2-ethyl-5-fluoro-indan-2-yl]-1H-imidazole
@<TRIPOS>ATOM
      1 C1         -5.3925    0.8252    0.0660 C.3       1 <0>        -0.1527
      2 C2         -4.8564    2.2359    0.3176 C.3       1 <0>        -0.1075
      3 C3         -3.5213    2.4112   -0.4089 C.3       1 <0>         0.0211
      4 C4         -2.4869    1.3788    0.0875 C.3       1 <0>        -0.0665
      5 C5         -1.1582    2.1036    0.0580 C.ar      1 <0>        -0.0819
      6 C6          0.1348    1.6078    0.0886 C.ar      1 <0>        -0.0774
      7 C7          1.2117    2.4707    0.0464 C.ar      1 <0>        -0.1523
      8 C8          0.9992    3.8373   -0.0215 C.ar      1 <0>         0.0926
      9 C9         -0.2918    4.3336   -0.0469 C.ar      1 <0>        -0.1426
     10 C10        -1.3716    3.4679   -0.0046 C.ar      1 <0>        -0.0642
     11 C11        -2.8581    3.7532   -0.0191 C.3       1 <0>        -0.0720
     12 F1          2.0508    4.6845   -0.0633 F         1 <0>        -0.1413
     13 C12        -3.7081    2.3077   -1.9006 C.2       1 <0>         0.0144
     14 C13        -4.7102    2.8575   -2.6127 C.2       1 <0>        -0.0575
     15 N1         -4.4957    2.5223   -3.9224 N.pl3     1 <0>        -0.5688
     16 C14        -3.3742    1.7712   -3.9639 C.2       1 <0>         0.2036
     17 N2         -2.9087    1.6470   -2.7511 N.2       1 <0>        -0.4871
     18 H1         -6.3524    0.6992    0.5883 H         1 <0>         0.0546
     19 H2         -4.6703    0.0859    0.4426 H         1 <0>         0.0575
     20 H3         -5.5403    0.6763   -1.0138 H         1 <0>         0.0544
     21 H4         -5.5786    2.9752   -0.0590 H         1 <0>         0.0662
     22 H5         -4.7086    2.3848    1.3974 H         1 <0>         0.0728
     23 H6         -2.7497    1.0571    1.1061 H         1 <0>         0.0819
     24 H7         -2.4873    0.5074   -0.5838 H         1 <0>         0.0886
     25 H8          0.3012    0.5420    0.1411 H         1 <0>         0.1296
     26 H9          2.2185    2.0803    0.0659 H         1 <0>         0.1351
     27 H10        -0.4579    5.3994   -0.1002 H         1 <0>         0.1298
     28 H11        -3.1165    4.5200   -0.7643 H         1 <0>         0.0768
     29 H12        -3.2203    4.0673    0.9709 H         1 <0>         0.0901
     30 H13        -5.4179    3.3914   -2.1501 H         1 <0>         0.1643
     31 H14        -2.8978    1.3382   -4.7291 H         1 <0>         0.1894
     32 H15        -5.1915    2.8701   -4.7002 H         1 <0>         0.4489
@<TRIPOS>BOND
     1    1    2 1
     2    1   18 1
     3    1   19 1
     4    1   20 1
     5    2    3 1
     6    2   21 1
     7    2   22 1
     8    3   11 1
     9    3    4 1
    10    3   13 1
    11    4    5 1
    12    4   23 1
    13    4   24 1
    14    5   10 ar
    15    5    6 ar
    16    6    7 ar
    17    6   25 1
    18    7    8 ar
    19    7   26 1
    20    8    9 ar
    21    8   12 1
    22    9   10 ar
    23    9   27 1
    24   10   11 1
    25   11   28 1
    26   11   29 1
    27   13   17 1
    28   13   14 2
    29   14   15 1
    30   14   30 1
    31   15   16 1
    32   15   32 1
    33   16   17 2
    34   16   31 1
@<TRIPOS>MOLECULE
ZINC05424460
   32    34     0     0     0
SMALL
USER_CHARGES

@<TRIPOS>ATOM
      1 C1         -0.1055    1.4922    0.0202 C.3       1 <0>        -0.1531
      2 C2         -0.0177   -0.0352    0.0035 C.3       1 <0>        -0.1050
      3 C3          0.8475   -0.5091    1.1729 C.3       1 <0>         0.0191
      4 C4          2.2976   -0.0021    1.0233 C.3       1 <0>        -0.0729
      5 C5          3.1651   -1.1154    1.5705 C.ar      1 <0>        -0.1141
      6 C6          4.4885   -1.1030    1.9792 C.ar      1 <0>        -0.0775
      7 C7          5.0816   -2.2570    2.4512 C.ar      1 <0>        -0.1535
      8 C8          4.3511   -3.4315    2.5170 C.ar      1 <0>         0.1026
      9 C9          3.0293   -3.4448    2.1095 C.ar      1 <0>        -0.1412
     10 C10         2.4350   -2.2874    1.6357 C.ar      1 <0>        -0.0603
     11 C11         1.0271   -2.0416    1.1368 C.3       1 <0>        -0.0722
     12 F1          4.9285   -4.5626    2.9780 F         1 <0>        -0.1370
     13 C12         0.2550   -0.0700    2.4871 C.2       1 <0>         0.0000
     14 C13        -0.9313   -0.4492    2.9995 C.2       1 <0>        -0.0209
     15 N1         -1.0872    0.1635    4.1824 N.2       1 <0>        -0.4904
     16 C14        -0.0426    0.9080    4.4226 C.2       1 <0>         0.1828
     17 N2          0.8218    0.7863    3.3922 N.pl3     1 <0>        -0.5641
     18 H1          1.6827    1.2254    3.3082 H         1 <0>         0.4166
     19 H2          0.8994    1.9141    0.0050 H         1 <0>         0.0528
     20 H3         -0.6564    1.8341   -0.8561 H         1 <0>         0.0587
     21 H4         -0.6222    1.8166    0.9235 H         1 <0>         0.0554
     22 H5         -1.0181   -0.4577    0.0971 H         1 <0>         0.0746
     23 H6          0.4288   -0.3632   -0.9352 H         1 <0>         0.0743
     24 H7          2.5293    0.1766   -0.0267 H         1 <0>         0.0950
     25 H8          2.4414    0.9094    1.6035 H         1 <0>         0.0689
     26 H9          5.0587   -0.1872    1.9281 H         1 <0>         0.1308
     27 H10         6.1139   -2.2437    2.7684 H         1 <0>         0.1382
     28 H11         2.4593   -4.3607    2.1603 H         1 <0>         0.1352
     29 H12         0.3033   -2.5228    1.7946 H         1 <0>         0.0878
     30 H13         0.9172   -2.4114    0.1174 H         1 <0>         0.0958
     31 H14        -1.6339   -1.1277    2.5387 H         1 <0>         0.1666
     32 H15         0.1075    1.5172    5.3016 H         1 <0>         0.2068
@<TRIPOS>BOND
     1    1    2 1
     2    1   19 1
     3    1   20 1
     4    1   21 1
     5    2    3 1
     6    2   22 1
     7    2   23 1
     8    3   11 1
     9    3    4 1
    10    3   13 1
    11    4    5 1
    12    4   24 1
    13    4   25 1
    14    5   10 ar
    15    5    6 ar
    16    6    7 ar
    17    6   26 1
    18    7    8 ar
    19    7   27 1
    20    8    9 ar
    21    8   12 1
    22    9   10 ar
    23    9   28 1
    24   10   11 1
    25   11   29 1
    26   11   30 1
    27   13   17 1
    28   13   14 2
    29   14   15 1
    30   14   31 1
    31   15   16 2
    32   16   17 1
    33   16   32 1
    34   17   18 1
@<TRIPOS>MOLECULE
ZINC00538337
   58    62     0     0     0
SMALL
USER_CHARGES

@<TRIPOS>ATOM
      1 C1         -0.0168    1.3842    0.0097 C.ar      1 <0>        -0.0898
      2 C2          1.1703    2.0901    0.0021 C.ar      1 <0>        -0.1344
      3 C3          2.3788    1.4141   -0.0135 C.ar      1 <0>         0.1119
      4 C4          2.3997    0.0295   -0.0216 C.ar      1 <0>        -0.1322
      5 C5          1.2148   -0.6800   -0.0137 C.ar      1 <0>        -0.0888
      6 C6          0.0021   -0.0041    0.0020 C.ar      1 <0>         0.1035
      7 N1         -1.2015   -0.7222    0.0101 N.pl3     1 <0>        -0.4255
      8 C7         -2.2407   -0.5077    0.8765 C.2       1 <0>         0.0751
      9 C8         -3.2397   -1.3652    0.6140 C.2       1 <0>        -0.1721
     10 C9         -2.8068   -2.1974   -0.5117 C.ar      1 <0>        -0.0841
     11 C10        -1.5194   -1.7470   -0.8569 C.ar      1 <0>         0.1032
     12 C11        -0.8430   -2.3517   -1.9103 C.ar      1 <0>        -0.1070
     13 C12        -1.4366   -3.3808   -2.6081 C.ar      1 <0>        -0.0841
     14 C13        -2.7089   -3.8239   -2.2706 C.ar      1 <0>        -0.0491
     15 C14        -3.3935   -3.2441   -1.2250 C.ar      1 <0>        -0.0671
     16 Cl1        -3.4366   -5.1218   -3.1648 Cl        1 <0>        -0.0596
     17 C15        -4.5571   -1.4553    1.3402 C.3       1 <0>        -0.0164
     18 C16        -4.3063   -1.7573    2.8204 C.3       1 <0>        -0.1397
     19 C17        -5.6422   -1.7687    3.5665 C.3       1 <0>        -0.0052
     20 N2         -6.2909   -0.4585    3.4359 N.4       1 <0>        -0.3798
     21 C18        -6.5994   -0.1937    2.0255 C.3       1 <0>        -0.0131
     22 C19        -5.3003   -0.1217    1.2201 C.3       1 <0>        -0.1392
     23 C20        -7.5345   -0.4493    4.2177 C.3       1 <0>        -0.0330
     24 C21        -8.1476    0.9521    4.1845 C.3       1 <0>         0.1326
     25 N3         -9.3878    0.9612    4.9641 N.am      1 <0>        -0.6351
     26 C22       -10.7283    0.6664    4.4362 C.3       1 <0>         0.0898
     27 C23       -11.6494    0.8170    5.6625 C.3       1 <0>         0.0871
     28 N4        -10.7301    1.1807    6.7511 N.am      1 <0>        -0.7327
     29 C24        -9.4802    1.2337    6.2723 C.2       1 <0>         0.7000
     30 O1         -8.5172    1.5083    6.9620 O.2       1 <0>        -0.5776
     31 F1          3.5389    2.1063   -0.0213 F         1 <0>        -0.1276
     32 H1         -0.9590    1.9118    0.0260 H         1 <0>         0.1391
     33 H2          1.1561    3.1700    0.0080 H         1 <0>         0.1488
     34 H3          3.3432   -0.4959   -0.0345 H         1 <0>         0.1499
     35 H4          1.2315   -1.7598   -0.0203 H         1 <0>         0.1411
     36 H5         -2.2541    0.2401    1.6556 H         1 <0>         0.1691
     37 H6          0.1466   -2.0149   -2.1816 H         1 <0>         0.1333
     38 H7         -0.9074   -3.8472   -3.4259 H         1 <0>         0.1426
     39 H8         -4.3833   -3.5900   -0.9659 H         1 <0>         0.1336
     40 H9         -5.1611   -2.2499    0.9021 H         1 <0>         0.0971
     41 H10        -3.8271   -2.7315    2.9171 H         1 <0>         0.1158
     42 H11        -3.6594   -0.9891    3.2440 H         1 <0>         0.0884
     43 H12        -6.2882   -2.5373    3.1423 H         1 <0>         0.1304
     44 H13        -5.4673   -1.9836    4.6207 H         1 <0>         0.1320
     45 H14        -7.2250   -0.9960    1.6341 H         1 <0>         0.1319
     46 H15        -7.1311    0.7541    1.9420 H         1 <0>         0.1316
     47 H16        -4.6740    0.6804    1.6106 H         1 <0>         0.0885
     48 H17        -5.5315    0.0731    0.1729 H         1 <0>         0.1159
     49 H18        -8.2379   -1.1638    3.7899 H         1 <0>         0.1318
     50 H19        -7.3173   -0.7265    5.2492 H         1 <0>         0.1351
     51 H20        -7.4442    1.6665    4.6123 H         1 <0>         0.1060
     52 H21        -8.3648    1.2293    3.1530 H         1 <0>         0.1030
     53 H22       -11.0011    1.3839    3.6624 H         1 <0>         0.0916
     54 H23       -10.7713   -0.3513    4.0481 H         1 <0>         0.0867
     55 H24       -12.3795    1.6093    5.4975 H         1 <0>         0.0926
     56 H25       -12.1498   -0.1259    5.8832 H         1 <0>         0.0914
     57 H26       -10.9875    1.3510    7.6707 H         1 <0>         0.4382
     58 H27        -5.6719    0.2583    3.7840 H         1 <0>         0.4243
@<TRIPOS>BOND
     1    1    6 ar
     2    1    2 ar
     3    1   32 1
     4    2    3 ar
     5    2   33 1
     6    3    4 ar
     7    3   31 1
     8    4    5 ar
     9    4   34 1
    10    5    6 ar
    11    5   35 1
    12    6    7 1
    13    7   11 1
    14    7    8 1
    15    8    9 2
    16    8   36 1
    17    9   10 1
    18    9   17 1
    19   10   15 ar
    20   10   11 ar
    21   11   12 ar
    22   12   13 ar
    23   12   37 1
    24   13   14 ar
    25   13   38 1
    26   14   15 ar
    27   14   16 1
    28   15   39 1
    29   17   22 1
    30   17   18 1
    31   17   40 1
    32   18   19 1
    33   18   41 1
    34   18   42 1
    35   19   20 1
    36   19   43 1
    37   19   44 1
    38   20   21 1
    39   20   23 1
    40   20   58 1
    41   21   22 1
    42   21   45 1
    43   21   46 1
    44   22   47 1
    45   22   48 1
    46   23   24 1
    47   23   49 1
    48   23   50 1
    49   24   25 1
    50   24   51 1
    51   24   52 1
    52   25   29 am
    53   25   26 1
    54   26   27 1
    55   26   53 1
    56   26   54 1
    57   27   28 1
    58   27   55 1
    59   27   56 1
    60   28   29 am
    61   28   57 1
    62   29   30 2
@<TRIPOS>MOLECULE
ZINC00896484
   23    24     0     0     0
SMALL
USER_CHARGES

@<TRIPOS>ATOM
      1 C1         -0.0167    1.3793    0.0096 C.ar      1 <0>        -0.1251
      2 C2          1.1680    2.0938    0.0022 C.ar      1 <0>        -0.0904
      3 C3          2.3785    1.4297   -0.0129 C.ar      1 <0>        -0.0648
      4 C4          2.4050    0.0334   -0.0206 C.ar      1 <0>         0.1769
      5 C5          1.2052   -0.6814   -0.0130 C.ar      1 <0>        -0.0649
      6 C6          0.0021   -0.0041    0.0020 C.ar      1 <0>        -0.0904
      7 Cl1         1.2264   -2.4172   -0.0231 Cl        1 <0>        -0.0561
      8 N1          3.6030   -0.6324   -0.0361 N.2       1 <0>        -0.6265
      9 C7          4.1879   -0.9573    1.0933 C.2       1 <0>         0.6631
     10 N2          3.6659   -0.6737    2.3229 N.pl3     1 <0>        -0.7535
     11 C8          4.5775   -1.1780    3.3591 C.3       1 <0>         0.0928
     12 C9          5.7389   -1.8145    2.5745 C.3       1 <0>         0.1005
     13 N3          5.3800   -1.6198    1.1630 N.pl3     1 <0>        -0.7140
     14 Cl2         3.8638    2.3282   -0.0229 Cl        1 <0>        -0.0561
     15 H1         -0.9606    1.9039    0.0260 H         1 <0>         0.1385
     16 H2          1.1460    3.1736    0.0078 H         1 <0>         0.1363
     17 H3         -0.9265   -0.5555    0.0082 H         1 <0>         0.1363
     18 H4          4.9410   -0.3577    3.9780 H         1 <0>         0.0821
     19 H5          4.0780   -1.9269    3.9736 H         1 <0>         0.0822
     20 H6          6.6764   -1.3088    2.8056 H         1 <0>         0.0847
     21 H7          5.8134   -2.8781    2.8012 H         1 <0>         0.0844
     22 H8          5.9064   -1.9129    0.4028 H         1 <0>         0.4371
     23 H9          2.8280   -0.2130    2.4861 H         1 <0>         0.4271
@<TRIPOS>BOND
     1    1    6 ar
     2    1    2 ar
     3    1   15 1
     4    2    3 ar
     5    2   16 1
     6    3    4 ar
     7    3   14 1
     8    4    5 ar
     9    4    8 1
    10    5    6 ar
    11    5    7 1
    12    6   17 1
    13    8    9 2
    14    9   13 1
    15    9   10 1
    16   10   11 1
    17   10   23 1
    18   11   12 1
    19   11   18 1
    20   11   19 1
    21   12   13 1
    22   12   20 1
    23   12   21 1
    24   13   22 1
@<TRIPOS>MOLECULE
ZINC00001160
   33    35     0     0     0
SMALL
USER_CHARGES

@<TRIPOS>ATOM
      1 C1         -0.0167    1.3782    0.0096 C.ar      1 <0>        -0.1303
      2 C2          1.1700    2.0882    0.0021 C.ar      1 <0>        -0.0821
      3 C3          2.3773    1.4175   -0.0134 C.ar      1 <0>        -0.1978
      4 C4          2.3989    0.0301   -0.0210 C.ar      1 <0>         0.1151
      5 C5          1.2072   -0.6797   -0.0130 C.ar      1 <0>        -0.0640
      6 C6          0.0021   -0.0041    0.0020 C.ar      1 <0>        -0.0823
      7 C7          1.2269   -2.1866   -0.0218 C.3       1 <0>        -0.1188
      8 C8         -0.1076   -2.9094   -0.2158 C.3       1 <0>        -0.1730
      9 C9          0.5695   -2.9085    1.1562 C.3       1 <0>        -0.1668
     10 O1          3.5855   -0.6321   -0.0368 O.3       1 <0>        -0.3151
     11 C10         4.7724    0.1636   -0.0448 C.3       1 <0>         0.0707
     12 C11         5.9807   -0.7369   -0.0620 C.cat     1 <0>         0.5166
     13 N1          5.8839   -2.0456   -0.0736 N.pl3     1 <0>        -0.6140
     14 C12         7.2335   -2.6325   -0.0894 C.3       1 <0>         0.0532
     15 C13         8.1554   -1.3955   -0.0849 C.3       1 <0>         0.0611
     16 N2          7.2071   -0.2699   -0.0721 N.pl3     1 <0>        -0.6312
     17 H1         -0.9596    1.9045    0.0259 H         1 <0>         0.1340
     18 H2          1.1527    3.1681    0.0080 H         1 <0>         0.1339
     19 H3          3.3038    1.9724   -0.0200 H         1 <0>         0.1293
     20 H4         -0.9260   -0.5563    0.0079 H         1 <0>         0.1383
     21 H5          2.1150   -2.6426   -0.4593 H         1 <0>         0.1104
     22 H6         -0.9997   -2.2951   -0.3372 H         1 <0>         0.1017
     23 H7         -0.0976   -3.8412   -0.7813 H         1 <0>         0.1026
     24 H8          1.0249   -3.8397    1.4933 H         1 <0>         0.0999
     25 H9          0.1228   -2.2936    1.9375 H         1 <0>         0.0985
     26 H10         4.7790    0.7974   -0.9315 H         1 <0>         0.1320
     27 H11         4.7973    0.7880    0.8483 H         1 <0>         0.1321
     28 H12         7.3996   -3.2396    0.8005 H         1 <0>         0.1300
     29 H13         7.3858   -3.2227   -0.9931 H         1 <0>         0.1300
     30 H14         8.7815   -1.3854    0.8074 H         1 <0>         0.1299
     31 H15         8.7677   -1.3685   -0.9862 H         1 <0>         0.1294
     32 H16         7.4504    0.6691   -0.0698 H         1 <0>         0.4615
     33 H17         5.0536   -2.5471   -0.0715 H         1 <0>         0.4652
@<TRIPOS>BOND
     1    1    6 ar
     2    1    2 ar
     3    1   17 1
     4    2    3 ar
     5    2   18 1
     6    3    4 ar
     7    3   19 1
     8    4    5 ar
     9    4   10 1
    10    5    6 ar
    11    5    7 1
    12    6   20 1
    13    7    9 1
    14    7    8 1
    15    7   21 1
    16    8    9 1
    17    8   22 1
    18    8   23 1
    19    9   24 1
    20    9   25 1
    21   10   11 1
    22   11   12 1
    23   11   26 1
    24   11   27 1
    25   12   16 1
    26   12   13 2
    27   13   14 1
    28   13   33 1
    29   14   15 1
    30   14   28 1
    31   14   29 1
    32   15   16 1
    33   15   30 1
    34   15   31 1
    35   16   32 1
@<TRIPOS>MOLECULE
ZINC00057624
   24    24     0     0     0
SMALL
USER_CHARGES

@<TRIPOS>ATOM
      1 C1         -0.0167    1.3779    0.0096 C.ar      1 <0>        -0.0981
      2 C2          1.1696    2.0886    0.0021 C.ar      1 <0>        -0.1236
      3 C3          2.3802    1.4154   -0.0130 C.ar      1 <0>         0.1055
      4 C4          2.3990    0.0236   -0.0206 C.ar      1 <0>         0.0900
      5 C5          1.2071   -0.6822   -0.0130 C.ar      1 <0>        -0.1137
      6 C6          0.0021   -0.0041    0.0020 C.ar      1 <0>        -0.1399
      7 C7         -1.2936   -0.7736    0.0102 C.3       1 <0>         0.1354
      8 H1         -1.1263   -1.7622    0.4376 H         1 <0>         0.1339
      9 C8         -1.8100   -0.9182   -1.4228 C.3       1 <0>        -0.0430
     10 N1         -3.0730   -1.6683   -1.4148 N.4       1 <0>        -0.6330
     11 O1         -2.2593   -0.0721    0.7960 O.3       1 <0>        -0.5475
     12 O2          3.5850   -0.6417   -0.0359 O.3       1 <0>        -0.4846
     13 O3          3.5476    2.1129   -0.0209 O.3       1 <0>        -0.4848
     14 H2         -0.9598    1.9038    0.0259 H         1 <0>         0.1309
     15 H3          1.1522    3.1684    0.0077 H         1 <0>         0.1437
     16 H4          1.2190   -1.7621   -0.0189 H         1 <0>         0.1389
     17 H5         -1.9772    0.0704   -1.8502 H         1 <0>         0.1398
     18 H6         -1.0734   -1.4533   -2.0221 H         1 <0>         0.1477
     19 H7         -2.9181   -2.5835   -1.0191 H         1 <0>         0.4371
     20 H8         -3.7548   -1.1730   -0.8600 H         1 <0>         0.4387
     21 H9         -2.4578    0.8175    0.4731 H         1 <0>         0.3897
     22 H10         3.9367   -0.8389    0.8430 H         1 <0>         0.3974
     23 H11         3.8938    2.3101    0.8602 H         1 <0>         0.3992
     24 H12        -3.4135   -1.7637   -2.3598 H         1 <0>         0.4402
@<TRIPOS>BOND
     1    1    6 ar
     2    1    2 ar
     3    1   14 1
     4    2    3 ar
     5    2   15 1
     6    3    4 ar
     7    3   13 1
     8    4    5 ar
     9    4   12 1
    10    5    6 ar
    11    5   16 1
    12    6    7 1
    13    7    8 1
    14    7    9 1
    15    7   11 1
    16    9   10 1
    17    9   17 1
    18    9   18 1
    19   10   19 1
    20   10   20 1
    21   10   24 1
    22   11   21 1
    23   12   22 1
    24   13   23 1
@<TRIPOS>MOLECULE
ZINC01892860
   38    40     0     0     0
SMALL
USER_CHARGES

@<TRIPOS>ATOM
      1 C1         -0.0169    1.3962    0.0097 C.ar      1 <0>        -0.0188
      2 C2          1.1625    2.0954    0.0022 C.ar      1 <0>        -0.1651
      3 C3          2.3762    1.4165   -0.0135 C.ar      1 <0>         0.1662
      4 C4          2.4006    0.0259   -0.0212 C.ar      1 <0>        -0.2246
      5 C5          1.2269   -0.6828   -0.0138 C.ar      1 <0>        -0.0273
      6 C6          0.0021   -0.0041    0.0020 C.ar      1 <0>        -0.2066
      7 C7         -1.2581   -0.7581    0.0100 C.2       1 <0>         0.4281
      8 O1         -2.3178   -0.1681    0.0233 O.2       1 <0>        -0.4587
      9 C8         -1.2347   -2.2649    0.0017 C.3       1 <0>        -0.2225
     10 C9         -2.2150   -2.9815   -0.9291 C.3       1 <0>        -0.1476
     11 C10        -2.4480   -2.9935    0.5829 C.3       1 <0>        -0.1501
     12 O2          3.5404    2.1130   -0.0218 O.3       1 <0>        -0.3084
     13 C11         4.7507    1.3535   -0.0378 C.3       1 <0>         0.0562
     14 C12         5.9494    2.3043   -0.0452 C.3       1 <0>        -0.1155
     15 C13         7.2453    1.4912   -0.0624 C.3       1 <0>        -0.0389
     16 C14         8.4259    2.4277   -0.0696 C.2       1 <0>        -0.0275
     17 C15         8.9817    3.0104   -1.1490 C.2       1 <0>        -0.0181
     18 N1         10.0067    3.7674   -0.7302 N.2       1 <0>        -0.4935
     19 C16        10.1072    3.6759    0.5677 C.2       1 <0>         0.1869
     20 N2          9.1358    2.8542    1.0203 N.pl3     1 <0>        -0.5676
     21 H1          8.9728    2.6101    1.9448 H         1 <0>         0.4194
     22 H2         -0.9588    1.9243    0.0260 H         1 <0>         0.1415
     23 H3          1.1490    3.1753    0.0081 H         1 <0>         0.1389
     24 H4          3.3458   -0.4966   -0.0334 H         1 <0>         0.1353
     25 H5          1.2469   -1.7626   -0.0205 H         1 <0>         0.1358
     26 H6         -0.2556   -2.7207    0.1493 H         1 <0>         0.1249
     27 H7         -2.8768   -2.3632   -1.5355 H         1 <0>         0.1023
     28 H8         -1.8808   -3.9090   -1.3942 H         1 <0>         0.1060
     29 H9         -2.2673   -3.9288    1.1127 H         1 <0>         0.1052
     30 H10        -3.2632   -2.3830    0.9714 H         1 <0>         0.1050
     31 H11         4.7943    0.7207    0.8486 H         1 <0>         0.0663
     32 H12         4.7763    0.7297   -0.9313 H         1 <0>         0.0696
     33 H13         5.9057    2.9372   -0.9316 H         1 <0>         0.0830
     34 H14         5.9237    2.9282    0.8483 H         1 <0>         0.0740
     35 H15         7.2889    0.8584    0.8240 H         1 <0>         0.0743
     36 H16         7.2709    0.8673   -0.9558 H         1 <0>         0.0930
     37 H17         8.6588    2.8894   -2.1725 H         1 <0>         0.1696
     38 H18        10.8428    4.1775    1.1790 H         1 <0>         0.2092
@<TRIPOS>BOND
     1    1    6 ar
     2    1    2 ar
     3    1   22 1
     4    2    3 ar
     5    2   23 1
     6    3    4 ar
     7    3   12 1
     8    4    5 ar
     9    4   24 1
    10    5    6 ar
    11    5   25 1
    12    6    7 1
    13    7    8 2
    14    7    9 1
    15    9   11 1
    16    9   10 1
    17    9   26 1
    18   10   11 1
    19   10   27 1
    20   10   28 1
    21   11   29 1
    22   11   30 1
    23   12   13 1
    24   13   14 1
    25   13   31 1
    26   13   32 1
    27   14   15 1
    28   14   33 1
    29   14   34 1
    30   15   16 1
    31   15   35 1
    32   15   36 1
    33   16   20 1
    34   16   17 2
    35   17   18 1
    36   17   37 1
    37   18   19 2
    38   19   20 1
    39   19   38 1
    40   20   21 1
@<TRIPOS>MOLECULE
ZINC01892860
   39    41     0     0     0
SMALL
USER_CHARGES

@<TRIPOS>ATOM
      1 C1         -0.0169    1.3962    0.0097 C.ar      1 <0>        -0.0189
      2 C2          1.1625    2.0954    0.0022 C.ar      1 <0>        -0.1606
      3 C3          2.3762    1.4165   -0.0135 C.ar      1 <0>         0.1572
      4 C4          2.4006    0.0259   -0.0212 C.ar      1 <0>        -0.2224
      5 C5          1.2269   -0.6828   -0.0138 C.ar      1 <0>        -0.0284
      6 C6          0.0021   -0.0041    0.0020 C.ar      1 <0>        -0.1965
      7 C7         -1.2581   -0.7581    0.0100 C.2       1 <0>         0.4253
      8 O1         -2.3178   -0.1681    0.0233 O.2       1 <0>        -0.4527
      9 C8         -1.2347   -2.2649    0.0017 C.3       1 <0>        -0.2245
     10 C9         -2.2150   -2.9815   -0.9291 C.3       1 <0>        -0.1467
     11 C10        -2.4480   -2.9935    0.5829 C.3       1 <0>        -0.1489
     12 O2          3.5404    2.1130   -0.0218 O.3       1 <0>        -0.3105
     13 C11         4.7507    1.3535   -0.0378 C.3       1 <0>         0.0546
     14 C12         5.9494    2.3043   -0.0452 C.3       1 <0>        -0.1206
     15 C13         7.2453    1.4912   -0.0624 C.3       1 <0>        -0.0608
     16 C14         8.4259    2.4277   -0.0696 C.2       1 <0>         0.0335
     17 C15         8.9723    3.0039   -1.1573 C.2       1 <0>         0.0370
     18 N1         10.0150    3.7732   -0.7163 N.pl3     1 <0>        -0.5090
     19 H1         10.6046    4.3131   -1.2656 H         1 <0>         0.4686
     20 C16        10.0696    3.6402    0.6265 C.cat     1 <0>         0.3079
     21 N2          9.1131    2.8380    1.0067 N.pl3     1 <0>        -0.4748
     22 H2         -0.9588    1.9243    0.0260 H         1 <0>         0.1443
     23 H3          1.1490    3.1753    0.0081 H         1 <0>         0.1393
     24 H4          3.3458   -0.4966   -0.0334 H         1 <0>         0.1336
     25 H5          1.2469   -1.7626   -0.0205 H         1 <0>         0.1381
     26 H6         -0.2556   -2.7207    0.1493 H         1 <0>         0.1243
     27 H7         -2.8768   -2.3632   -1.5355 H         1 <0>         0.1031
     28 H8         -1.8808   -3.9090   -1.3942 H         1 <0>         0.1071
     29 H9         -2.2673   -3.9288    1.1127 H         1 <0>         0.1065
     30 H10        -3.2632   -2.3830    0.9714 H         1 <0>         0.1060
     31 H11         4.7943    0.7207    0.8486 H         1 <0>         0.0700
     32 H12         4.7763    0.7297   -0.9313 H         1 <0>         0.0726
     33 H13         5.9057    2.9372   -0.9316 H         1 <0>         0.0877
     34 H14         5.9237    2.9282    0.8483 H         1 <0>         0.0805
     35 H15         7.2889    0.8584    0.8240 H         1 <0>         0.1009
     36 H16         7.2709    0.8673   -0.9558 H         1 <0>         0.1173
     37 H17         8.6499    2.8822   -2.1808 H         1 <0>         0.2275
     38 H18        10.7840    4.1213    1.2782 H         1 <0>         0.2672
     39 H19         8.9293    2.5779    1.9229 H         1 <0>         0.4653
@<TRIPOS>BOND
     1    1    6 ar
     2    1    2 ar
     3    1   22 1
     4    2    3 ar
     5    2   23 1
     6    3    4 ar
     7    3   12 1
     8    4    5 ar
     9    4   24 1
    10    5    6 ar
    11    5   25 1
    12    6    7 1
    13    7    8 2
    14    7    9 1
    15    9   11 1
    16    9   10 1
    17    9   26 1
    18   10   11 1
    19   10   27 1
    20   10   28 1
    21   11   29 1
    22   11   30 1
    23   12   13 1
    24   13   14 1
    25   13   31 1
    26   13   32 1
    27   14   15 1
    28   14   33 1
    29   14   34 1
    30   15   16 1
    31   15   35 1
    32   15   36 1
    33   16   21 1
    34   16   17 2
    35   17   18 1
    36   17   37 1
    37   18   19 1
    38   18   20 1
    39   20   21 2
    40   20   38 1
    41   21   39 1
@<TRIPOS>MOLECULE
ZINC01892860
   39    41     0     0     0
SMALL
USER_CHARGES

@<TRIPOS>ATOM
      1 C1         -0.0169    1.3962    0.0097 C.ar      1 <0>        -0.0189
      2 C2          1.1625    2.0954    0.0022 C.ar      1 <0>        -0.1606
      3 C3          2.3762    1.4165   -0.0135 C.ar      1 <0>         0.1572
      4 C4          2.4006    0.0259   -0.0212 C.ar      1 <0>        -0.2224
      5 C5          1.2269   -0.6828   -0.0138 C.ar      1 <0>        -0.0284
      6 C6          0.0021   -0.0041    0.0020 C.ar      1 <0>        -0.1965
      7 C7         -1.2581   -0.7581    0.0100 C.2       1 <0>         0.4253
      8 O1         -2.3178   -0.1681    0.0233 O.2       1 <0>        -0.4527
      9 C8         -1.2347   -2.2649    0.0017 C.3       1 <0>        -0.2245
     10 C9         -2.2150   -2.9815   -0.9291 C.3       1 <0>        -0.1467
     11 C10        -2.4480   -2.9935    0.5829 C.3       1 <0>        -0.1489
     12 O2          3.5404    2.1130   -0.0218 O.3       1 <0>        -0.3104
     13 C11         4.7507    1.3535   -0.0378 C.3       1 <0>         0.0547
     14 C12         5.9494    2.3043   -0.0452 C.3       1 <0>        -0.1201
     15 C13         7.2453    1.4912   -0.0624 C.3       1 <0>        -0.0608
     16 C14         8.4259    2.4277   -0.0696 C.2       1 <0>         0.0635
     17 N1          9.1358    2.8542    1.0203 N.pl3     1 <0>        -0.5108
     18 C15        10.1053    3.6783    0.5680 C.cat     1 <0>         0.3073
     19 N2         10.0094    3.7640   -0.7306 N.pl3     1 <0>        -0.4727
     20 C16         8.9890    3.0012   -1.1501 C.2       1 <0>         0.0056
     21 H1         -0.9588    1.9243    0.0260 H         1 <0>         0.1443
     22 H2          1.1490    3.1753    0.0081 H         1 <0>         0.1393
     23 H3          3.3458   -0.4966   -0.0334 H         1 <0>         0.1337
     24 H4          1.2469   -1.7626   -0.0205 H         1 <0>         0.1381
     25 H5         -0.2556   -2.7207    0.1493 H         1 <0>         0.1243
     26 H6         -2.8768   -2.3632   -1.5355 H         1 <0>         0.1031
     27 H7         -1.8808   -3.9090   -1.3942 H         1 <0>         0.1071
     28 H8         -2.2673   -3.9288    1.1127 H         1 <0>         0.1065
     29 H9         -3.2632   -2.3830    0.9714 H         1 <0>         0.1060
     30 H10         4.7943    0.7207    0.8486 H         1 <0>         0.0702
     31 H11         4.7763    0.7297   -0.9313 H         1 <0>         0.0727
     32 H12         5.9057    2.9372   -0.9316 H         1 <0>         0.0879
     33 H13         5.9237    2.9282    0.8483 H         1 <0>         0.0810
     34 H14         7.2889    0.8584    0.8240 H         1 <0>         0.1020
     35 H15         7.2709    0.8673   -0.9558 H         1 <0>         0.1186
     36 H16        10.8383    4.1831    1.1797 H         1 <0>         0.2671
     37 H17         8.6728    2.8717   -2.1747 H         1 <0>         0.2253
     38 H18         8.9728    2.6101    1.9448 H         1 <0>         0.4657
     39 H19        10.5871    4.2932   -1.3026 H         1 <0>         0.4682
@<TRIPOS>BOND
     1    1    6 ar
     2    1    2 ar
     3    1   21 1
     4    2    3 ar
     5    2   22 1
     6    3    4 ar
     7    3   12 1
     8    4    5 ar
     9    4   23 1
    10    5    6 ar
    11    5   24 1
    12    6    7 1
    13    7    8 2
    14    7    9 1
    15    9   11 1
    16    9   10 1
    17    9   25 1
    18   10   11 1
    19   10   26 1
    20   10   27 1
    21   11   28 1
    22   11   29 1
    23   12   13 1
    24   13   14 1
    25   13   30 1
    26   13   31 1
    27   14   15 1
    28   14   32 1
    29   14   33 1
    30   15   34 1
    31   15   35 1
    32   15   16 1
    33   16   17 1
    34   16   20 2
    35   17   18 1
    36   17   38 1
    37   18   36 1
    38   18   19 2
    39   19   20 1
    40   19   39 1
    41   20   37 1
@<TRIPOS>MOLECULE
ZINC01892860
   38    40     0     0     0
SMALL
USER_CHARGES

@<TRIPOS>ATOM
      1 C1         -0.0169    1.3962    0.0097 C.ar      1 <0>        -0.0188
      2 C2          1.1625    2.0954    0.0022 C.ar      1 <0>        -0.1665
      3 C3          2.3762    1.4165   -0.0135 C.ar      1 <0>         0.1685
      4 C4          2.4006    0.0259   -0.0212 C.ar      1 <0>        -0.2252
      5 C5          1.2269   -0.6828   -0.0138 C.ar      1 <0>        -0.0271
      6 C6          0.0021   -0.0041    0.0020 C.ar      1 <0>        -0.2089
      7 C7         -1.2581   -0.7581    0.0100 C.2       1 <0>         0.4286
      8 O1         -2.3178   -0.1681    0.0233 O.2       1 <0>        -0.4599
      9 C8         -1.2347   -2.2649    0.0017 C.3       1 <0>        -0.2221
     10 C9         -2.2150   -2.9815   -0.9291 C.3       1 <0>        -0.1479
     11 C10        -2.4480   -2.9935    0.5829 C.3       1 <0>        -0.1503
     12 O2          3.5404    2.1130   -0.0218 O.3       1 <0>        -0.3077
     13 C11         4.7507    1.3535   -0.0378 C.3       1 <0>         0.0561
     14 C12         5.9494    2.3043   -0.0452 C.3       1 <0>        -0.1106
     15 C13         7.2453    1.4912   -0.0624 C.3       1 <0>        -0.0289
     16 C14         8.4259    2.4277   -0.0696 C.2       1 <0>         0.0011
     17 N1          8.6474    3.4100   -0.9557 N.2       1 <0>        -0.4885
     18 C15         9.7636    4.0161   -0.6562 C.2       1 <0>         0.1872
     19 N2         10.2924    3.4325    0.4408 N.pl3     1 <0>        -0.5707
     20 C16         9.4406    2.4288    0.8158 C.2       1 <0>        -0.0525
     21 H1         -0.9588    1.9243    0.0260 H         1 <0>         0.1408
     22 H2          1.1490    3.1753    0.0081 H         1 <0>         0.1386
     23 H3          3.3458   -0.4966   -0.0334 H         1 <0>         0.1357
     24 H4          1.2469   -1.7626   -0.0205 H         1 <0>         0.1352
     25 H5         -0.2556   -2.7207    0.1493 H         1 <0>         0.1250
     26 H6         -2.8768   -2.3632   -1.5355 H         1 <0>         0.1020
     27 H7         -1.8808   -3.9090   -1.3942 H         1 <0>         0.1058
     28 H8         -2.2673   -3.9288    1.1127 H         1 <0>         0.1049
     29 H9         -3.2632   -2.3830    0.9714 H         1 <0>         0.1048
     30 H10         4.7943    0.7207    0.8486 H         1 <0>         0.0657
     31 H11         4.7763    0.7297   -0.9313 H         1 <0>         0.0671
     32 H12         5.9057    2.9372   -0.9316 H         1 <0>         0.0836
     33 H13         5.9237    2.9282    0.8483 H         1 <0>         0.0726
     34 H14         7.2889    0.8584    0.8240 H         1 <0>         0.0774
     35 H15         7.2709    0.8673   -0.9558 H         1 <0>         0.0781
     36 H16        10.1934    4.8467   -1.1965 H         1 <0>         0.2087
     37 H17         9.5602    1.7642    1.6587 H         1 <0>         0.1764
     38 H18        11.1196    3.6805    0.8825 H         1 <0>         0.4217
@<TRIPOS>BOND
     1    1    6 ar
     2    1    2 ar
     3    1   21 1
     4    2    3 ar
     5    2   22 1
     6    3    4 ar
     7    3   12 1
     8    4    5 ar
     9    4   23 1
    10    5    6 ar
    11    5   24 1
    12    6    7 1
    13    7    8 2
    14    7    9 1
    15    9   11 1
    16    9   10 1
    17    9   25 1
    18   10   11 1
    19   10   26 1
    20   10   27 1
    21   11   28 1
    22   11   29 1
    23   12   13 1
    24   13   14 1
    25   13   30 1
    26   13   31 1
    27   14   15 1
    28   14   32 1
    29   14   33 1
    30   15   34 1
    31   15   35 1
    32   15   16 1
    33   16   17 1
    34   16   20 2
    35   17   18 2
    36   18   36 1
    37   18   19 1
    38   19   20 1
    39   19   38 1
    40   20   37 1
@<TRIPOS>MOLECULE
ZINC03860825
   53    57     0     0     0
SMALL
USER_CHARGES

@<TRIPOS>ATOM
      1 C1         -0.0173    1.4248    0.0099 C.3       1 <0>         0.0327
      2 O1          0.0021   -0.0041    0.0020 O.3       1 <0>        -0.3479
      3 C2          0.5984   -0.5997   -1.0427 C.2       1 <0>         0.4737
      4 O2          1.0877    0.0699   -1.9214 O.2       1 <0>        -0.5039
      5 C3          0.6575   -2.1036   -1.1196 C.3       1 <0>        -0.0650
      6 H1          1.1947   -2.4917   -0.2542 H         1 <0>         0.1260
      7 C4         -0.7643   -2.6714   -1.1364 C.3       1 <0>         0.1104
      8 H2         -1.2823   -2.3789   -0.2230 H         1 <0>         0.0803
      9 C5         -0.7098   -4.1973   -1.2238 C.3       1 <0>        -0.1531
     10 C6          0.0283   -4.6160   -2.4980 C.3       1 <0>        -0.1090
     11 C7          1.4478   -4.0496   -2.4652 C.3       1 <0>        -0.1066
     12 H3          1.9678   -4.4265   -1.5844 H         1 <0>         0.0984
     13 C8          1.3811   -2.5214   -2.3995 C.3       1 <0>        -0.0762
     14 H4          0.8340   -2.1460   -3.2643 H         1 <0>         0.1112
     15 C9          2.8021   -1.9525   -2.4146 C.3       1 <0>        -0.1520
     16 C10         3.5142   -2.4494   -3.6743 C.3       1 <0>         0.1158
     17 H5          2.9655   -2.1183   -4.5560 H         1 <0>         0.1480
     18 C11         4.9207   -1.9091   -3.7260 C.2       1 <0>         0.0226
     19 C12         5.9775   -2.6629   -4.1115 C.2       1 <0>        -0.1599
     20 C13         7.1508   -1.8219   -4.0411 C.ar      1 <0>        -0.1001
     21 C14         8.5026   -2.0504   -4.3178 C.ar      1 <0>        -0.0652
     22 C15         9.3608   -0.9941   -4.1376 C.ar      1 <0>        -0.1357
     23 C16         8.9212    0.2451   -3.7015 C.ar      1 <0>        -0.0818
     24 C17         7.5903    0.4991   -3.4190 C.ar      1 <0>        -0.1277
     25 C18         6.6952   -0.5542   -3.5938 C.ar      1 <0>         0.1109
     26 N1          5.3444   -0.6471   -3.4127 N.pl3     1 <0>        -0.5612
     27 H6          4.7717    0.0739   -3.1078 H         1 <0>         0.4234
     28 C19         5.8580   -4.1083   -4.5249 C.3       1 <0>        -0.0677
     29 C20         4.3745   -4.4075   -4.7852 C.3       1 <0>        -0.0061
     30 N2          3.5745   -3.9171   -3.6582 N.4       1 <0>        -0.3774
     31 C21         2.2119   -4.4657   -3.7230 C.3       1 <0>         0.0006
     32 O3         -1.4686   -2.1563   -2.2680 O.3       1 <0>        -0.5638
     33 H7          1.0053    1.8021    0.0021 H         1 <0>         0.0628
     34 H8         -0.5445    1.7859   -0.8732 H         1 <0>         0.0656
     35 H9         -0.5275    1.7763    0.9067 H         1 <0>         0.1087
     36 H10        -0.1842   -4.5917   -0.3542 H         1 <0>         0.0829
     37 H11        -1.7242   -4.5957   -1.2448 H         1 <0>         0.0871
     38 H12         0.0713   -5.7038   -2.5532 H         1 <0>         0.0818
     39 H13        -0.4991   -4.2269   -3.3690 H         1 <0>         0.0847
     40 H14         2.7600   -0.8634   -2.4237 H         1 <0>         0.1318
     41 H15         3.3419   -2.2929   -1.5309 H         1 <0>         0.0903
     42 H16         8.8550   -3.0132   -4.6571 H         1 <0>         0.1348
     43 H17        10.4120   -1.1338   -4.3420 H         1 <0>         0.1279
     44 H18         9.6417    1.0401   -3.5774 H         1 <0>         0.1311
     45 H19         7.2605    1.4697   -3.0791 H         1 <0>         0.1352
     46 H20         6.4334   -4.2800   -5.4346 H         1 <0>         0.1209
     47 H21         6.2289   -4.7515   -3.7269 H         1 <0>         0.0998
     48 H22         4.0584   -3.9085   -5.7013 H         1 <0>         0.1319
     49 H23         4.2337   -5.4833   -4.8902 H         1 <0>         0.1399
     50 H24         2.2638   -5.5532   -3.7749 H         1 <0>         0.1399
     51 H25         1.6991   -4.0815   -4.6048 H         1 <0>         0.1347
     52 H26        -2.3787   -2.4743   -2.3430 H         1 <0>         0.3915
     53 H27         4.0031   -4.2176   -2.7956 H         1 <0>         0.4231
@<TRIPOS>BOND
     1    1    2 1
     2    1   33 1
     3    1   34 1
     4    1   35 1
     5    2    3 1
     6    3    4 2
     7    3    5 1
     8    5    6 1
     9    5   13 1
    10    5    7 1
    11    7    8 1
    12    7    9 1
    13    7   32 1
    14    9   10 1
    15    9   36 1
    16    9   37 1
    17   10   11 1
    18   10   38 1
    19   10   39 1
    20   11   12 1
    21   11   31 1
    22   11   13 1
    23   13   14 1
    24   13   15 1
    25   15   16 1
    26   15   40 1
    27   15   41 1
    28   16   17 1
    29   16   30 1
    30   16   18 1
    31   18   26 1
    32   18   19 2
    33   19   20 1
    34   19   28 1
    35   20   25 ar
    36   20   21 ar
    37   21   22 ar
    38   21   42 1
    39   22   23 ar
    40   22   43 1
    41   23   24 ar
    42   23   44 1
    43   24   25 ar
    44   24   45 1
    45   25   26 1
    46   26   27 1
    47   28   29 1
    48   28   46 1
    49   28   47 1
    50   29   30 1
    51   29   48 1
    52   29   49 1
    53   30   31 1
    54   30   53 1
    55   31   50 1
    56   31   51 1
    57   32   52 1
@<TRIPOS>MOLECULE
ZINC21981239
   65    68     0     0     0
SMALL
USER_CHARGES
4-[4-(4-chlorophenyl)-4-hydroxy-1-piperidyl]-N-methyl-2,2-diphenyl-butanamide
@<TRIPOS>ATOM
      1 C1         -0.0855   -1.6023   -3.7609 C.3       1 <0>         0.0833
      2 N1         -0.4220   -0.7797   -2.5964 N.am      1 <0>        -0.7395
      3 C2          0.3089   -0.8777   -1.4682 C.2       1 <0>         0.5134
      4 O1          1.2452   -1.6469   -1.4172 O.2       1 <0>        -0.5125
      5 C3         -0.0372   -0.0315   -0.2703 C.3       1 <0>         0.0266
      6 C4         -1.4630   -0.3499    0.1843 C.3       1 <0>        -0.1369
      7 C5         -1.5965   -1.8544    0.4285 C.3       1 <0>        -0.0220
      8 N2         -2.9985   -2.1804    0.7214 N.4       1 <0>        -0.3936
      9 C6         -3.4255   -1.5760    1.9898 C.3       1 <0>        -0.0052
     10 C7         -4.9241   -1.8129    2.1903 C.3       1 <0>        -0.1281
     11 C8         -5.2007   -3.3189    2.2024 C.3       1 <0>         0.1877
     12 C9         -4.7028   -3.9318    0.8905 C.3       1 <0>        -0.1746
     13 C10        -3.2107   -3.6335    0.7277 C.3       1 <0>         0.0007
     14 C11        -6.6820   -3.5591    2.3403 C.ar      1 <0>        -0.1328
     15 C12        -7.4757   -3.6465    1.2119 C.ar      1 <0>        -0.1020
     16 C13        -8.8335   -3.8725    1.3375 C.ar      1 <0>        -0.1086
     17 C14        -9.4000   -3.9998    2.5933 C.ar      1 <0>        -0.0236
     18 C15        -8.6060   -3.9066    3.7225 C.ar      1 <0>        -0.1072
     19 C16        -7.2474   -3.6862    3.5954 C.ar      1 <0>        -0.0829
     20 Cl1       -11.1063   -4.2771    2.7522 Cl        1 <0>        -0.0522
     21 O2         -4.5148   -3.9216    3.3017 O.3       1 <0>        -0.5800
     22 C17         0.0583    1.4262   -0.6404 C.ar      1 <0>        -0.0900
     23 C18        -1.0131    2.2692   -0.4112 C.ar      1 <0>        -0.1196
     24 C19        -0.9237    3.6073   -0.7463 C.ar      1 <0>        -0.1128
     25 C20         0.2333    4.1004   -1.3199 C.ar      1 <0>        -0.1057
     26 C21         1.3026    3.2563   -1.5543 C.ar      1 <0>        -0.1086
     27 C22         1.2152    1.9192   -1.2144 C.ar      1 <0>        -0.0990
     28 C23         0.9255   -0.3293    0.8502 C.ar      1 <0>        -0.0872
     29 C24         1.5324    0.7075    1.5340 C.ar      1 <0>        -0.0984
     30 C25         2.4118    0.4343    2.5650 C.ar      1 <0>        -0.1172
     31 C26         2.6920   -0.8758    2.9055 C.ar      1 <0>        -0.1048
     32 C27         2.0895   -1.9127    2.2180 C.ar      1 <0>        -0.1213
     33 C28         1.2061   -1.6394    1.1905 C.ar      1 <0>        -0.0966
     34 H1         -0.7882   -1.3849   -4.5788 H         1 <0>         0.0814
     35 H2         -0.1552   -2.6663   -3.4907 H         1 <0>         0.0607
     36 H3          0.9396   -1.3734   -4.0876 H         1 <0>         0.0644
     37 H4         -1.2712   -0.0820   -2.6427 H         1 <0>         0.4214
     38 H5         -1.6809    0.1935    1.1156 H         1 <0>         0.1092
     39 H6         -2.1743   -0.0405   -0.5957 H         1 <0>         0.0991
     40 H7         -1.2726   -2.4017   -0.4690 H         1 <0>         0.1294
     41 H8         -0.9665   -2.1446    1.2822 H         1 <0>         0.1429
     42 H9         -2.8680   -2.0339    2.8202 H         1 <0>         0.1374
     43 H10        -3.2256   -0.4946    1.9663 H         1 <0>         0.1323
     44 H11        -5.2401   -1.3726    3.1475 H         1 <0>         0.1208
     45 H12        -5.4830   -1.3423    1.3680 H         1 <0>         0.1024
     46 H13        -4.8608   -5.0202    0.9111 H         1 <0>         0.1182
     47 H14        -5.2597   -3.4963    0.0477 H         1 <0>         0.0994
     48 H15        -2.8533   -4.0603   -0.2210 H         1 <0>         0.1306
     49 H16        -2.6543   -4.0817    1.5641 H         1 <0>         0.1341
     50 H17        -7.0341   -3.5427    0.2318 H         1 <0>         0.1312
     51 H18        -9.4528   -3.9451    0.4557 H         1 <0>         0.1387
     52 H19        -9.0476   -4.0062    4.7030 H         1 <0>         0.1398
     53 H20        -6.6275   -3.6138    4.4767 H         1 <0>         0.1406
     54 H21        -4.5955   -5.0052    3.4730 H         1 <0>         0.4267
     55 H22        -1.9186    1.8831    0.0331 H         1 <0>         0.1234
     56 H23        -1.7593    4.2668   -0.5635 H         1 <0>         0.1284
     57 H24         0.3018    5.1451   -1.5851 H         1 <0>         0.1289
     58 H25         2.2065    3.6415   -2.0028 H         1 <0>         0.1289
     59 H26         2.0506    1.2597   -1.3976 H         1 <0>         0.1219
     60 H27         1.3165    1.7310    1.2653 H         1 <0>         0.1271
     61 H28         2.8828    1.2444    3.1019 H         1 <0>         0.1270
     62 H29         3.3820   -1.0892    3.7086 H         1 <0>         0.1266
     63 H30         2.3088   -2.9362    2.4838 H         1 <0>         0.1251
     64 H31         0.7354   -2.4495    0.6533 H         1 <0>         0.1194
     65 H32        -3.6206   -1.7541   -0.0794 H         1 <0>         0.4340
@<TRIPOS>BOND
     1    1    2 1
     2    1   34 1
     3    1   35 1
     4    1   36 1
     5    2    3 am
     6    2   37 1
     7    3    4 2
     8    3    5 1
     9    5    6 1
    10    5   22 1
    11    5   28 1
    12    6    7 1
    13    6   38 1
    14    6   39 1
    15    7    8 1
    16    7   40 1
    17    7   41 1
    18    8   13 1
    19    8    9 1
    20    8   65 1
    21    9   10 1
    22    9   42 1
    23    9   43 1
    24   10   11 1
    25   10   44 1
    26   10   45 1
    27   11   12 1
    28   11   14 1
    29   11   21 1
    30   12   13 1
    31   12   46 1
    32   12   47 1
    33   13   48 1
    34   13   49 1
    35   14   19 ar
    36   14   15 ar
    37   15   16 ar
    38   15   50 1
    39   16   17 ar
    40   16   51 1
    41   17   18 ar
    42   17   20 1
    43   18   19 ar
    44   18   52 1
    45   19   53 1
    46   21   54 1
    47   22   27 ar
    48   22   23 ar
    49   23   24 ar
    50   23   55 1
    51   24   25 ar
    52   24   56 1
    53   25   26 ar
    54   25   57 1
    55   26   27 ar
    56   26   58 1
    57   27   59 1
    58   28   33 ar
    59   28   29 ar
    60   29   30 ar
    61   29   60 1
    62   30   31 ar
    63   30   61 1
    64   31   32 ar
    65   31   62 1
    66   32   33 ar
    67   32   63 1
    68   33   64 1
@<TRIPOS>MOLECULE
ZINC00119717
   31    33     0     0     0
SMALL
USER_CHARGES

@<TRIPOS>ATOM
      1 C1         -0.0164    1.3567    0.0095 C.ar      1 <0>        -0.1173
      2 C2          1.1685    2.0906    0.0021 C.ar      1 <0>        -0.0848
      3 C3          2.3785    1.4679   -0.0132 C.ar      1 <0>        -0.1455
      4 C4          2.4378    0.0637   -0.0214 C.ar      1 <0>        -0.0335
      5 C5          1.2328   -0.6827   -0.0134 C.ar      1 <0>        -0.0557
      6 C6          0.0021   -0.0041    0.0020 C.ar      1 <0>        -0.0860
      7 C7          1.2920   -2.0865   -0.0210 C.ar      1 <0>        -0.0709
      8 C8          2.5022   -2.7094   -0.0359 C.ar      1 <0>        -0.1263
      9 C9          3.6867   -1.9757   -0.0433 C.ar      1 <0>        -0.0758
     10 C10         3.6681   -0.6146   -0.0367 C.ar      1 <0>        -0.1213
     11 C11         4.9603    0.1606   -0.0459 C.3       1 <0>        -0.0647
     12 C12         5.3414    0.5186    1.3675 C.cat     1 <0>         0.5202
     13 N1          4.9467    1.6296    1.9436 N.pl3     1 <0>        -0.6320
     14 C13         5.4824    1.6835    3.3134 C.3       1 <0>         0.0558
     15 C14         6.2804    0.3684    3.4313 C.3       1 <0>         0.0571
     16 N2          6.0879   -0.2604    2.1146 N.pl3     1 <0>        -0.6306
     17 H1         -0.9634    1.8756    0.0259 H         1 <0>         0.1333
     18 H2          1.1258    3.1698    0.0084 H         1 <0>         0.1312
     19 H3          3.2883    2.0497   -0.0195 H         1 <0>         0.1139
     20 H4         -0.9241   -0.5595    0.0082 H         1 <0>         0.1368
     21 H5          0.3820   -2.6682   -0.0147 H         1 <0>         0.1381
     22 H6          2.5450   -3.7886   -0.0417 H         1 <0>         0.1355
     23 H7          4.6338   -2.4947   -0.0548 H         1 <0>         0.1298
     24 H8          5.7467   -0.4491   -0.4909 H         1 <0>         0.1356
     25 H9          4.8331    1.0722   -0.6299 H         1 <0>         0.1331
     26 H10         6.1393    2.5446    3.4361 H         1 <0>         0.1278
     27 H11         4.6726    1.7090    4.0426 H         1 <0>         0.1261
     28 H12         7.3354    0.5734    3.6128 H         1 <0>         0.1280
     29 H13         5.8687   -0.2622    4.2193 H         1 <0>         0.1260
     30 H14         6.4563   -1.1152    1.8414 H         1 <0>         0.4594
     31 H15         4.3900    2.3087    1.5315 H         1 <0>         0.4564
@<TRIPOS>BOND
     1    1    6 ar
     2    1    2 ar
     3    1   17 1
     4    2    3 ar
     5    2   18 1
     6    3    4 ar
     7    3   19 1
     8    4   10 ar
     9    4    5 ar
    10    5    6 ar
    11    5    7 ar
    12    6   20 1
    13    7    8 ar
    14    7   21 1
    15    8    9 ar
    16    8   22 1
    17    9   10 ar
    18    9   23 1
    19   10   11 1
    20   11   12 1
    21   11   24 1
    22   11   25 1
    23   12   16 1
    24   12   13 2
    25   13   14 1
    26   13   31 1
    27   14   15 1
    28   14   26 1
    29   14   27 1
    30   15   16 1
    31   15   28 1
    32   15   29 1
    33   16   30 1
@<TRIPOS>MOLECULE
ZINC03775140
   62    64     0     0     0
SMALL
USER_CHARGES

@<TRIPOS>ATOM
      1 C1         -0.0173    1.4248    0.0099 C.3       1 <0>         0.0171
      2 O1          0.0021   -0.0041    0.0020 O.3       1 <0>        -0.2760
      3 C2          0.6048   -0.6061   -1.0540 C.ar      1 <0>         0.2490
      4 C3          1.1714    0.1577   -2.0595 C.ar      1 <0>        -0.2968
      5 C4          1.7875   -0.4643   -3.1379 C.ar      1 <0>         0.3045
      6 C5          1.8368   -1.8562   -3.2112 C.ar      1 <0>        -0.1599
      7 C6          1.2804   -2.6188   -2.2247 C.ar      1 <0>         0.0104
      8 C7          0.6619   -2.0064   -1.1291 C.ar      1 <0>        -0.2378
      9 C8          0.0677   -2.8282   -0.0619 C.2       1 <0>         0.5777
     10 O2         -0.4739   -2.2937    0.8871 O.2       1 <0>        -0.5075
     11 N1          0.1238   -4.1727   -0.1363 N.am      1 <0>        -0.7330
     12 C9         -0.4675   -4.9905    0.9257 C.3       1 <0>         0.1404
     13 H1         -1.3642   -4.5012    1.3060 H         1 <0>         0.1248
     14 C10         0.5437   -5.1622    2.0629 C.3       1 <0>        -0.1546
     15 C11         1.7671   -5.9184    1.5404 C.3       1 <0>        -0.0167
     16 N2          1.3566   -7.2378    1.0453 N.4       1 <0>        -0.3759
     17 C12         0.4423   -7.0806   -0.0921 C.3       1 <0>        -0.0388
     18 C13        -0.8339   -6.3685    0.3670 C.3       1 <0>         0.0659
     19 H2         -1.3203   -6.9585    1.1438 H         1 <0>         0.1015
     20 O3         -1.7219   -6.2131   -0.7418 O.3       1 <0>        -0.3502
     21 C14        -2.6322   -7.3011   -0.9143 C.3       1 <0>         0.0179
     22 C15         2.5438   -7.9895    0.6171 C.3       1 <0>        -0.0062
     23 C16         3.4343   -8.2703    1.8292 C.3       1 <0>        -0.1507
     24 C17         4.6708   -9.0533    1.3832 C.3       1 <0>         0.0614
     25 O4          5.5024   -9.3155    2.5152 O.3       1 <0>        -0.3099
     26 C18         6.6507  -10.0076    2.2904 C.ar      1 <0>         0.1104
     27 C19         6.9722  -10.4203    1.0058 C.ar      1 <0>        -0.1786
     28 C20         8.1394  -11.1237    0.7787 C.ar      1 <0>        -0.1136
     29 C21         8.9878  -11.4170    1.8328 C.ar      1 <0>         0.0730
     30 C22         8.6679  -11.0061    3.1156 C.ar      1 <0>        -0.1109
     31 C23         7.5046  -10.2969    3.3445 C.ar      1 <0>        -0.1156
     32 F1         10.1287  -12.1053    1.6094 F         1 <0>        -0.1339
     33 Cl1         2.6089   -2.6229   -4.5639 Cl        1 <0>        -0.0623
     34 N3          2.3569    0.3038   -4.1485 N.pl3     1 <0>        -0.8495
     35 H3          1.0053    1.8021    0.0021 H         1 <0>         0.0609
     36 H4         -0.5445    1.7859   -0.8732 H         1 <0>         0.0614
     37 H5         -0.5275    1.7763    0.9067 H         1 <0>         0.1085
     38 H6          1.1342    1.2357   -2.0059 H         1 <0>         0.1464
     39 H7          1.3215   -3.6961   -2.2880 H         1 <0>         0.1333
     40 H8          0.5557   -4.5989   -0.8931 H         1 <0>         0.3942
     41 H9          0.8503   -4.1821    2.4284 H         1 <0>         0.1283
     42 H10         0.0859   -5.7273    2.8748 H         1 <0>         0.1026
     43 H11         2.2242   -5.3523    0.7288 H         1 <0>         0.1317
     44 H12         2.4891   -6.0421    2.3475 H         1 <0>         0.1399
     45 H13         0.9276   -6.4898   -0.8690 H         1 <0>         0.1341
     46 H14         0.1862   -8.0624   -0.4903 H         1 <0>         0.1380
     47 H15        -2.0715   -8.2215   -1.0778 H         1 <0>         0.0481
     48 H16        -3.2481   -7.4047   -0.0210 H         1 <0>         0.0566
     49 H17        -3.2712   -7.1071   -1.7758 H         1 <0>         0.1042
     50 H18         2.2339   -8.9329    0.1676 H         1 <0>         0.1368
     51 H19         3.1003   -7.4039   -0.1147 H         1 <0>         0.1356
     52 H20         3.7442   -7.3269    2.2786 H         1 <0>         0.1012
     53 H21         2.8778   -8.8559    2.5610 H         1 <0>         0.1013
     54 H22         4.3608   -9.9967    0.9337 H         1 <0>         0.0740
     55 H23         5.2272   -8.4676    0.6514 H         1 <0>         0.0740
     56 H24         6.3103  -10.1922    0.1835 H         1 <0>         0.1353
     57 H25         8.3900  -11.4451   -0.2214 H         1 <0>         0.1422
     58 H26         9.3304  -11.2359    3.9370 H         1 <0>         0.1482
     59 H27         7.2577   -9.9722    4.3445 H         1 <0>         0.1439
     60 H28         2.3233    1.2719   -4.0992 H         1 <0>         0.4097
     61 H29         2.7876   -0.1289   -4.9023 H         1 <0>         0.4089
     62 H30         0.8896   -7.7426    1.7837 H         1 <0>         0.4252
@<TRIPOS>BOND
     1    1    2 1
     2    1   35 1
     3    1   36 1
     4    1   37 1
     5    2    3 1
     6    3    8 ar
     7    3    4 ar
     8    4    5 ar
     9    4   38 1
    10    5    6 ar
    11    5   34 1
    12    6    7 ar
    13    6   33 1
    14    7    8 ar
    15    7   39 1
    16    8    9 1
    17    9   10 2
    18    9   11 am
    19   11   12 1
    20   11   40 1
    21   12   13 1
    22   12   18 1
    23   12   14 1
    24   14   15 1
    25   14   41 1
    26   14   42 1
    27   15   16 1
    28   15   43 1
    29   15   44 1
    30   16   17 1
    31   16   22 1
    32   16   62 1
    33   17   18 1
    34   17   45 1
    35   17   46 1
    36   18   19 1
    37   18   20 1
    38   20   21 1
    39   21   47 1
    40   21   48 1
    41   21   49 1
    42   22   23 1
    43   22   50 1
    44   22   51 1
    45   23   24 1
    46   23   52 1
    47   23   53 1
    48   24   25 1
    49   24   54 1
    50   24   55 1
    51   25   26 1
    52   26   31 ar
    53   26   27 ar
    54   27   28 ar
    55   27   56 1
    56   28   29 ar
    57   28   57 1
    58   29   30 ar
    59   29   32 1
    60   30   31 ar
    61   30   58 1
    62   31   59 1
    63   34   60 1
    64   34   61 1
@<TRIPOS>MOLECULE
ZINC03830564
   62    64     0     0     0
SMALL
USER_CHARGES

@<TRIPOS>ATOM
      1 C1         -0.0173    1.4248    0.0099 C.3       1 <0>         0.0173
      2 O1          0.0021   -0.0041    0.0020 O.3       1 <0>        -0.2768
      3 C2          0.6048   -0.6061   -1.0540 C.ar      1 <0>         0.2482
      4 C3          1.1714    0.1577   -2.0595 C.ar      1 <0>        -0.2974
      5 C4          1.7875   -0.4643   -3.1379 C.ar      1 <0>         0.3044
      6 C5          1.8368   -1.8562   -3.2112 C.ar      1 <0>        -0.1594
      7 C6          1.2804   -2.6188   -2.2247 C.ar      1 <0>         0.0124
      8 C7          0.6619   -2.0064   -1.1291 C.ar      1 <0>        -0.2376
      9 C8          0.0677   -2.8282   -0.0619 C.2       1 <0>         0.5803
     10 O2         -0.4739   -2.2937    0.8871 O.2       1 <0>        -0.5144
     11 N1          0.1238   -4.1727   -0.1363 N.am      1 <0>        -0.7279
     12 C9         -0.4675   -4.9905    0.9257 C.3       1 <0>         0.1426
     13 H1         -0.3382   -4.4904    1.8855 H         1 <0>         0.1147
     14 C10        -1.9606   -5.1884    0.6484 C.3       1 <0>        -0.1574
     15 C11        -2.5547   -6.1082    1.7173 C.3       1 <0>        -0.0121
     16 N2         -1.8729   -7.4076    1.6837 N.4       1 <0>        -0.3780
     17 C12        -0.4544   -7.2346    2.0193 C.3       1 <0>        -0.0308
     18 C13         0.2219   -6.3574    0.9634 C.3       1 <0>         0.0634
     19 H2          0.1375   -6.8346   -0.0130 H         1 <0>         0.0897
     20 O3          1.6015   -6.1871    1.2946 O.3       1 <0>        -0.3498
     21 C14         2.4612   -7.1803    0.7321 C.3       1 <0>         0.0175
     22 C15        -2.4981   -8.3123    2.6576 C.3       1 <0>        -0.0056
     23 C16        -3.9400   -8.5999    2.2341 C.3       1 <0>        -0.1510
     24 C17        -4.5912   -9.5422    3.2484 C.3       1 <0>         0.0612
     25 O4         -5.9378   -9.8107    2.8528 O.3       1 <0>        -0.3101
     26 C18        -6.6627  -10.6375    3.6523 C.ar      1 <0>         0.1103
     27 C19        -6.0908  -11.1740    4.7964 C.ar      1 <0>        -0.1786
     28 C20        -6.8286  -12.0140    5.6079 C.ar      1 <0>        -0.1136
     29 C21        -8.1381  -12.3209    5.2793 C.ar      1 <0>         0.0729
     30 C22        -8.7100  -11.7865    4.1373 C.ar      1 <0>        -0.1110
     31 C23        -7.9767  -10.9409    3.3276 C.ar      1 <0>        -0.1157
     32 F1         -8.8583  -13.1429    6.0736 F         1 <0>        -0.1339
     33 Cl1         2.6089   -2.6229   -4.5639 Cl        1 <0>        -0.0612
     34 N3          2.3569    0.3038   -4.1485 N.pl3     1 <0>        -0.8498
     35 H3          1.0053    1.8021    0.0021 H         1 <0>         0.0610
     36 H4         -0.5445    1.7859   -0.8732 H         1 <0>         0.0608
     37 H5         -0.5275    1.7763    0.9067 H         1 <0>         0.1075
     38 H6          1.1342    1.2357   -2.0059 H         1 <0>         0.1460
     39 H7          1.3215   -3.6961   -2.2880 H         1 <0>         0.1366
     40 H8          0.5557   -4.5989   -0.8931 H         1 <0>         0.4011
     41 H9         -2.4669   -4.2235    0.6762 H         1 <0>         0.1280
     42 H10        -2.0914   -5.6407   -0.3346 H         1 <0>         0.0936
     43 H11        -2.4236   -5.6548    2.6998 H         1 <0>         0.1373
     44 H12        -3.6177   -6.2510    1.5230 H         1 <0>         0.1408
     45 H13        -0.3681   -6.7573    2.9954 H         1 <0>         0.1434
     46 H14         0.0331   -8.2090    2.0480 H         1 <0>         0.1370
     47 H15         2.1631   -8.1650    1.0923 H         1 <0>         0.0484
     48 H16         2.3857   -7.1529   -0.3549 H         1 <0>         0.0550
     49 H17         3.4905   -6.9808    1.0300 H         1 <0>         0.1046
     50 H18        -1.9380   -9.2465    2.6975 H         1 <0>         0.1365
     51 H19        -2.4951   -7.8445    3.6421 H         1 <0>         0.1371
     52 H20        -4.5001   -7.6657    2.1942 H         1 <0>         0.1015
     53 H21        -3.9430   -9.0676    1.2495 H         1 <0>         0.1005
     54 H22        -4.0310  -10.4764    3.2882 H         1 <0>         0.0740
     55 H23        -4.5881   -9.0744    4.2329 H         1 <0>         0.0745
     56 H24        -5.0691  -10.9353    5.0526 H         1 <0>         0.1356
     57 H25        -6.3836  -12.4318    6.4989 H         1 <0>         0.1423
     58 H26        -9.7315  -12.0270    3.8820 H         1 <0>         0.1482
     59 H27        -8.4246  -10.5203    2.4394 H         1 <0>         0.1438
     60 H28         2.3233    1.2719   -4.0992 H         1 <0>         0.4092
     61 H29         2.7876   -0.1289   -4.9023 H         1 <0>         0.4089
     62 H30        -1.9528   -7.8044    0.7595 H         1 <0>         0.4239
@<TRIPOS>BOND
     1    1    2 1
     2    1   35 1
     3    1   36 1
     4    1   37 1
     5    2    3 1
     6    3    8 ar
     7    3    4 ar
     8    4    5 ar
     9    4   38 1
    10    5    6 ar
    11    5   34 1
    12    6    7 ar
    13    6   33 1
    14    7    8 ar
    15    7   39 1
    16    8    9 1
    17    9   10 2
    18    9   11 am
    19   11   12 1
    20   11   40 1
    21   12   13 1
    22   12   18 1
    23   12   14 1
    24   14   15 1
    25   14   41 1
    26   14   42 1
    27   15   16 1
    28   15   43 1
    29   15   44 1
    30   16   17 1
    31   16   22 1
    32   16   62 1
    33   17   18 1
    34   17   45 1
    35   17   46 1
    36   18   19 1
    37   18   20 1
    38   20   21 1
    39   21   47 1
    40   21   48 1
    41   21   49 1
    42   22   23 1
    43   22   50 1
    44   22   51 1
    45   23   24 1
    46   23   52 1
    47   23   53 1
    48   24   25 1
    49   24   54 1
    50   24   55 1
    51   25   26 1
    52   26   31 ar
    53   26   27 ar
    54   27   28 ar
    55   27   56 1
    56   28   29 ar
    57   28   57 1
    58   29   30 ar
    59   29   32 1
    60   30   31 ar
    61   30   58 1
    62   31   59 1
    63   34   60 1
    64   34   61 1
@<TRIPOS>MOLECULE
ZINC03961870
   57    60     0     0     0
SMALL
USER_CHARGES

@<TRIPOS>ATOM
      1 C1         -1.2666    0.4432    0.5823 C.3       1 <0>         0.1083
      2 N1          0.0021   -0.0041    0.0020 N.pl3     1 <0>        -0.6766
      3 C2          1.2692    0.3682    0.6361 C.3       1 <0>         0.1068
      4 C3          0.0035   -0.7752   -1.1405 C.ar      1 <0>         0.6033
      5 C4          0.0431   -0.1734   -2.4234 C.ar      1 <0>        -0.1837
      6 C5          0.0828    1.2149   -2.5907 C.ar      1 <0>        -0.0158
      7 C6          0.1203    1.7396   -3.8494 C.ar      1 <0>        -0.1225
      8 C7          0.1192    0.9124   -4.9687 C.ar      1 <0>        -0.0114
      9 C8          0.0806   -0.4443   -4.8394 C.ar      1 <0>        -0.1535
     10 C9          0.0425   -1.0168   -3.5607 C.ar      1 <0>         0.1913
     11 N2          0.0047   -2.3454   -3.3797 N.ar      1 <0>        -0.5649
     12 C10        -0.0317   -2.8528   -2.1625 C.ar      1 <0>         0.6628
     13 N3         -0.0266   -2.0975   -1.0674 N.ar      1 <0>        -0.5488
     14 N4         -0.0709   -4.2279   -2.0188 N.pl3     1 <0>        -0.6587
     15 C11        -0.0714   -5.0885   -3.2044 C.3       1 <0>         0.1192
     16 C12         1.3687   -5.3246   -3.6639 C.3       1 <0>        -0.1369
     17 C13         1.3681   -6.2234   -4.9021 C.3       1 <0>        -0.1270
     18 C14         0.7161   -7.5642   -4.5586 C.3       1 <0>         0.1419
     19 C15        -0.7241   -7.3282   -4.0990 C.3       1 <0>        -0.1296
     20 C16        -0.7234   -6.4293   -2.8609 C.3       1 <0>        -0.1228
     21 N5          0.7155   -8.4249   -5.7441 N.am      1 <0>        -0.7247
     22 C17         0.6773   -9.7648   -5.6041 C.2       1 <0>         0.5675
     23 O1          0.6433  -10.2593   -4.4940 O.2       1 <0>        -0.5209
     24 C18         0.6767  -10.6327   -6.7996 C.ar      1 <0>        -0.1256
     25 C19         0.7214  -10.0673   -8.0757 C.ar      1 <0>        -0.0674
     26 C20         0.7206  -10.8807   -9.1887 C.ar      1 <0>        -0.1311
     27 C21         0.6756  -12.2585   -9.0439 C.ar      1 <0>         0.1011
     28 C22         0.6305  -12.8270   -7.7781 C.ar      1 <0>         0.0668
     29 C23         0.6371  -12.0212   -6.6571 C.ar      1 <0>        -0.0647
     30 F1          0.5858  -14.1705   -7.6431 F         1 <0>        -0.1178
     31 F2          0.6750  -13.0508  -10.1382 F         1 <0>        -0.1167
     32 H1         -1.4995    1.4441    0.2188 H         1 <0>         0.0620
     33 H2         -2.0615   -0.2433    0.2908 H         1 <0>         0.0650
     34 H3         -1.1827    0.4616    1.6689 H         1 <0>         0.0832
     35 H4          1.5461   -0.3907    1.3678 H         1 <0>         0.0586
     36 H5          2.0476    0.4419   -0.1234 H         1 <0>         0.0644
     37 H6          1.1566    1.3305    1.1355 H         1 <0>         0.0887
     38 H7          0.0833    1.8666   -1.7295 H         1 <0>         0.1585
     39 H8          0.1509    2.8113   -3.9790 H         1 <0>         0.1545
     40 H9          0.1489    1.3520   -5.9548 H         1 <0>         0.1575
     41 H10         0.0799   -1.0739   -5.7168 H         1 <0>         0.1562
     42 H11        -0.0980   -4.6224   -1.1331 H         1 <0>         0.4436
     43 H12        -0.6334   -4.6055   -4.0038 H         1 <0>         0.0923
     44 H13         1.8332   -4.3693   -3.9087 H         1 <0>         0.0712
     45 H14         1.9306   -5.8076   -2.8646 H         1 <0>         0.0923
     46 H15         0.8061   -5.7404   -5.7015 H         1 <0>         0.0763
     47 H16         2.3940   -6.3916   -5.2295 H         1 <0>         0.0894
     48 H17         1.2780   -8.0473   -3.7592 H         1 <0>         0.0988
     49 H18        -1.2860   -6.8451   -4.8984 H         1 <0>         0.0736
     50 H19        -1.1886   -8.2834   -3.8543 H         1 <0>         0.0893
     51 H20        -0.1615   -6.9124   -2.0615 H         1 <0>         0.0888
     52 H21        -1.7494   -6.2612   -2.5335 H         1 <0>         0.0871
     53 H22         0.7426   -8.0304   -6.6298 H         1 <0>         0.4025
     54 H23         0.7562   -8.9940   -8.1906 H         1 <0>         0.1425
     55 H24         0.7549  -10.4435  -10.1756 H         1 <0>         0.1568
     56 H25         0.6073  -12.4635   -5.6724 H         1 <0>         0.1616
     57 H26         0.0037   -2.9368   -4.1486 H         1 <0>         0.4377
@<TRIPOS>BOND
     1    1    2 1
     2    1   32 1
     3    1   33 1
     4    1   34 1
     5    2    3 1
     6    2    4 1
     7    3   35 1
     8    3   36 1
     9    3   37 1
    10    4   13 ar
    11    4    5 ar
    12    5   10 ar
    13    5    6 ar
    14    6    7 ar
    15    6   38 1
    16    7    8 ar
    17    7   39 1
    18    8    9 ar
    19    8   40 1
    20    9   10 ar
    21    9   41 1
    22   10   11 ar
    23   11   12 ar
    24   11   57 1
    25   12   13 ar
    26   12   14 1
    27   14   15 1
    28   14   42 1
    29   15   20 1
    30   15   16 1
    31   15   43 1
    32   16   17 1
    33   16   44 1
    34   16   45 1
    35   17   18 1
    36   17   46 1
    37   17   47 1
    38   18   19 1
    39   18   21 1
    40   18   48 1
    41   19   20 1
    42   19   49 1
    43   19   50 1
    44   20   51 1
    45   20   52 1
    46   21   22 am
    47   21   53 1
    48   22   23 2
    49   22   24 1
    50   24   29 ar
    51   24   25 ar
    52   25   26 ar
    53   25   54 1
    54   26   27 ar
    55   26   55 1
    56   27   28 ar
    57   27   31 1
    58   28   29 ar
    59   28   30 1
    60   29   56 1
@<TRIPOS>MOLECULE
ZINC13686917
   26    27     0     0     0
SMALL
USER_CHARGES
(3S)-3-(difluoromethyl)-7-nitro-1,2,3,4-tetrahydroisoquinoline
@<TRIPOS>ATOM
      1 C1         -0.0166    1.3766    0.0096 C.ar      1 <0>        -0.0530
      2 C2          0.0021   -0.0041    0.0020 C.ar      1 <0>        -0.1118
      3 C3          1.2078   -0.6881   -0.0118 C.ar      1 <0>        -0.0260
      4 C4          2.3948    0.0132   -0.0171 C.ar      1 <0>        -0.1196
      5 C5          2.3742    1.4000   -0.0118 C.ar      1 <0>        -0.0443
      6 C6          1.1730    2.0803    0.0020 C.ar      1 <0>        -0.0435
      7 N1          1.1590    3.5604    0.0087 N.pl3     1 <0>         0.0263
      8 O1          0.0986    4.1594    0.0209 O.2       1 <0>        -0.1556
      9 O2          2.2080    4.1793    0.0020 O.3       1 <0>        -0.1560
     10 C7          3.7299   -0.6841   -0.0259 C.3       1 <0>         0.0899
     11 N2          3.5762   -2.0820   -0.4410 N.3       1 <0>        -0.6541
     12 C8          2.5481   -2.7460    0.3762 C.3       1 <0>         0.0323
     13 H1          2.7648   -2.5342    1.4337 H         1 <0>         0.1184
     14 C9          1.1793   -2.1950   -0.0242 C.3       1 <0>        -0.1258
     15 C10         2.5881   -4.2549    0.1261 C.3       1 <0>         0.2735
     16 F1          1.5948   -4.8803    0.8873 F         1 <0>        -0.2050
     17 F2          2.3642   -4.5086   -1.2314 F         1 <0>        -0.2049
     18 H2         -0.9584    1.9052    0.0170 H         1 <0>         0.1567
     19 H3         -0.9275   -0.5539    0.0065 H         1 <0>         0.1499
     20 H4          3.3032    1.9508   -0.0186 H         1 <0>         0.1567
     21 H5          4.4050   -0.1746   -0.7292 H         1 <0>         0.1066
     22 H6          4.1644   -0.6570    0.9843 H         1 <0>         0.1017
     23 H7          3.2748   -2.1195   -1.4982 H         1 <0>         0.3572
     24 H8          0.4219   -2.5533    0.6885 H         1 <0>         0.1039
     25 H9          0.9279   -2.5487   -1.0350 H         1 <0>         0.1040
     26 H10         3.5431   -4.7333    0.3891 H         1 <0>         0.1227
@<TRIPOS>BOND
     1    1    6 ar
     2    1    2 ar
     3    1   18 1
     4    2    3 ar
     5    2   19 1
     6    3   14 1
     7    3    4 ar
     8    4    5 ar
     9    4   10 1
    10    5    6 ar
    11    5   20 1
    12    6    7 1
    13    7    8 2
    14    7    9 1
    15   10   11 1
    16   10   21 1
    17   10   22 1
    18   11   12 1
    19   11   23 1
    20   12   13 1
    21   12   14 1
    22   12   15 1
    23   14   24 1
    24   14   25 1
    25   15   16 1
    26   15   17 1
    27   15   26 1
@<TRIPOS>MOLECULE
ZINC13686921
   26    27     0     0     0
SMALL
USER_CHARGES
(3R)-3-(difluoromethyl)-7-nitro-1,2,3,4-tetrahydroisoquinoline
@<TRIPOS>ATOM
      1 C1          1.1724    2.0810    0.0020 C.ar      1 <0>        -0.0526
      2 C2          2.3738    1.4007   -0.0150 C.ar      1 <0>        -0.1152
      3 C3          2.3937    0.0146   -0.0245 C.ar      1 <0>        -0.0143
      4 C4          1.2080   -0.6890   -0.0128 C.ar      1 <0>        -0.0827
      5 C5          0.0021   -0.0041    0.0020 C.ar      1 <0>        -0.0474
      6 C6         -0.0166    1.3764    0.0096 C.ar      1 <0>        -0.0450
      7 N1         -1.3076    2.1004    0.0197 N.pl3     1 <0>         0.0275
      8 O1         -2.3548    1.4783    0.0213 O.2       1 <0>        -0.1581
      9 O2         -1.3228    3.3183    0.0264 O.3       1 <0>        -0.1562
     10 C7          1.1775   -2.1949   -0.0094 C.3       1 <0>         0.0901
     11 N2          2.4714   -2.7356   -0.4378 N.3       1 <0>        -0.6593
     12 C8          3.5592   -2.1476    0.3600 C.3       1 <0>         0.0297
     13 H1          3.2843   -2.2286    1.4220 H         1 <0>         0.0808
     14 C9          3.7282   -0.6852   -0.0528 C.3       1 <0>        -0.0854
     15 C10         4.8596   -2.9096    0.0965 C.3       1 <0>         0.2698
     16 F1          5.2308   -2.7493   -1.2428 F         1 <0>        -0.1954
     17 F2          5.8700   -2.4078    0.9238 F         1 <0>        -0.2032
     18 H2          1.1618    3.1610    0.0091 H         1 <0>         0.1566
     19 H3          3.3029    1.9513   -0.0210 H         1 <0>         0.1503
     20 H4         -0.9276   -0.5537    0.0073 H         1 <0>         0.1555
     21 H5          0.9585   -2.5549    1.0067 H         1 <0>         0.0620
     22 H6          0.3968   -2.5474   -0.6995 H         1 <0>         0.1080
     23 H7          2.4757   -3.8272   -0.3020 H         1 <0>         0.3593
     24 H8          4.1435   -0.6416   -1.0704 H         1 <0>         0.1098
     25 H9          4.4175   -0.1888    0.6461 H         1 <0>         0.0997
     26 H10         4.7979   -3.9915    0.2853 H         1 <0>         0.1157
@<TRIPOS>BOND
     1    1    6 ar
     2    1    2 ar
     3    1   18 1
     4    2    3 ar
     5    2   19 1
     6    3   14 1
     7    3    4 ar
     8    4    5 ar
     9    4   10 1
    10    5    6 ar
    11    5   20 1
    12    6    7 1
    13    7    8 2
    14    7    9 1
    15   10   11 1
    16   10   21 1
    17   10   22 1
    18   11   12 1
    19   11   23 1
    20   12   13 1
    21   12   14 1
    22   12   15 1
    23   14   24 1
    24   14   25 1
    25   15   16 1
    26   15   17 1
    27   15   26 1
@<TRIPOS>MOLECULE
ZINC04097188
   68    72     0     0     0
SMALL
USER_CHARGES

@<TRIPOS>ATOM
      1 C1         -0.0187    1.5258    0.0104 C.3       1 <0>        -0.1896
      2 C2          0.0021   -0.0041    0.0020 C.3       1 <0>         0.0255
      3 H1         -1.0107   -0.3920    0.1113 H         1 <0>         0.1397
      4 C3          0.6266   -0.5176   -1.3119 C.3       1 <0>        -0.0884
      5 H2         -0.1119   -0.6752   -2.0979 H         1 <0>         0.1302
      6 C4          1.7513    0.4610   -1.7327 C.3       1 <0>        -0.1475
      7 C5          3.0882   -0.3174   -1.6037 C.3       1 <0>        -0.1270
      8 C6          2.6513   -1.7814   -1.7325 C.3       1 <0>        -0.0772
      9 H3          2.4325   -2.0219   -2.7729 H         1 <0>         0.0970
     10 C7          1.3395   -1.8095   -0.8929 C.3       1 <0>        -0.0735
     11 C8          0.6189   -3.1144   -1.1352 C.3       1 <0>        -0.1068
     12 C9          1.5255   -4.2387   -0.6081 C.3       1 <0>        -0.1247
     13 C10         2.9025   -4.2081   -1.2664 C.3       1 <0>        -0.0754
     14 H4          2.7799   -4.4153   -2.3295 H         1 <0>         0.0765
     15 C11         3.6083   -2.8046   -1.1440 C.3       1 <0>        -0.0714
     16 H5          3.8076   -2.5762   -0.0970 H         1 <0>         0.0770
     17 C12         4.9054   -2.8147   -1.9610 C.3       1 <0>        -0.0900
     18 C13         5.7800   -3.9386   -1.4875 C.2       1 <0>        -0.1193
     19 C14         5.3091   -5.0156   -0.9305 C.2       1 <0>        -0.1319
     20 C15         3.7793   -5.2940   -0.6651 C.3       1 <0>        -0.0080
     21 C16         3.3854   -6.6607   -1.2326 C.3       1 <0>        -0.1059
     22 C17         4.2846   -7.7398   -0.6263 C.3       1 <0>        -0.1415
     23 C18         5.7383   -7.4868   -1.0294 C.3       1 <0>         0.0191
     24 H6          5.8126   -7.4485   -2.1162 H         1 <0>         0.1323
     25 C19         6.2918   -6.0912   -0.4987 C.3       1 <0>        -0.0926
     26 N1          6.5843   -8.5737   -0.5188 N.4       1 <0>        -0.3856
     27 C20         6.1344   -9.8521   -1.0856 C.3       1 <0>        -0.0533
     28 C21         7.9804   -8.3307   -0.9059 C.3       1 <0>        -0.0523
     29 C22         3.5249   -5.3314    0.8432 C.3       1 <0>        -0.1541
     30 C23         1.6785   -1.6179    0.5905 C.3       1 <0>        -0.0109
     31 N2          0.8553   -0.5039    1.0939 N.4       1 <0>        -0.3835
     32 C24         1.7293    0.5772    1.5687 C.3       1 <0>        -0.0584
     33 H7          0.9999    1.9024    0.1036 H         1 <0>         0.0926
     34 H8         -0.4565    1.8883   -0.9196 H         1 <0>         0.1058
     35 H9         -0.6143    1.8764    0.8533 H         1 <0>         0.0849
     36 H10         1.6026    0.7791   -2.7646 H         1 <0>         0.0891
     37 H11         1.7586    1.3277   -1.0717 H         1 <0>         0.0873
     38 H12         3.7708   -0.0468   -2.4093 H         1 <0>         0.0867
     39 H13         3.5471   -0.1364   -0.6316 H         1 <0>         0.0660
     40 H14        -0.3296   -3.1199   -0.5982 H         1 <0>         0.0755
     41 H15         0.4432   -3.2488   -2.2025 H         1 <0>         0.0875
     42 H16         1.6440   -4.1243    0.4694 H         1 <0>         0.0702
     43 H17         1.0549   -5.2004   -0.8126 H         1 <0>         0.0787
     44 H18         4.6701   -2.9562   -3.0158 H         1 <0>         0.0865
     45 H19         5.4269   -1.8668   -1.8277 H         1 <0>         0.0825
     46 H20         6.8487   -3.8493   -1.6154 H         1 <0>         0.1148
     47 H21         2.3454   -6.8718   -0.9837 H         1 <0>         0.0889
     48 H22         3.5061   -6.6531   -2.3159 H         1 <0>         0.0766
     49 H23         4.1999   -7.7141    0.4601 H         1 <0>         0.0908
     50 H24         3.9725   -8.7186   -0.9905 H         1 <0>         0.0937
     51 H25         7.2866   -5.8521   -0.8747 H         1 <0>         0.1020
     52 H26         6.3149   -6.1520    0.5894 H         1 <0>         0.0859
     53 H27         6.2087   -9.8138   -2.1724 H         1 <0>         0.1230
     54 H28         6.7622  -10.6586   -0.7067 H         1 <0>         0.1276
     55 H29         5.0985  -10.0324   -0.7983 H         1 <0>         0.1250
     56 H30         8.3143   -7.3822   -0.4853 H         1 <0>         0.1232
     57 H31         8.6082   -9.1372   -0.5270 H         1 <0>         0.1273
     58 H32         8.0547   -8.2924   -1.9927 H         1 <0>         0.1229
     59 H33         2.4738   -5.5523    1.0290 H         1 <0>         0.0706
     60 H34         4.1445   -6.1048    1.2971 H         1 <0>         0.0559
     61 H35         3.7751   -4.3637    1.2779 H         1 <0>         0.0573
     62 H36         1.4462   -2.5280    1.1437 H         1 <0>         0.1322
     63 H37         2.7357   -1.3763    0.7002 H         1 <0>         0.1342
     64 H38         1.1195    1.4035    1.9341 H         1 <0>         0.1302
     65 H39         2.3601    0.2062    2.3765 H         1 <0>         0.1217
     66 H40         2.3568    0.9241    0.7477 H         1 <0>         0.1231
     67 H41         0.2758   -0.8278    1.8537 H         1 <0>         0.4270
     68 H42         6.5156   -8.6091    0.4873 H         1 <0>         0.4242
@<TRIPOS>BOND
     1    1    2 1
     2    1   33 1
     3    1   34 1
     4    1   35 1
     5    2    3 1
     6    2   31 1
     7    2    4 1
     8    4    5 1
     9    4   10 1
    10    4    6 1
    11    6    7 1
    12    6   36 1
    13    6   37 1
    14    7    8 1
    15    7   38 1
    16    7   39 1
    17    8    9 1
    18    8   15 1
    19    8   10 1
    20   10   11 1
    21   10   30 1
    22   11   12 1
    23   11   40 1
    24   11   41 1
    25   12   13 1
    26   12   42 1
    27   12   43 1
    28   13   14 1
    29   13   20 1
    30   13   15 1
    31   15   16 1
    32   15   17 1
    33   17   18 1
    34   17   44 1
    35   17   45 1
    36   18   19 2
    37   18   46 1
    38   19   25 1
    39   19   20 1
    40   20   21 1
    41   20   29 1
    42   21   22 1
    43   21   47 1
    44   21   48 1
    45   22   23 1
    46   22   49 1
    47   22   50 1
    48   23   24 1
    49   23   25 1
    50   23   26 1
    51   25   51 1
    52   25   52 1
    53   26   27 1
    54   26   28 1
    55   26   68 1
    56   27   53 1
    57   27   54 1
    58   27   55 1
    59   28   56 1
    60   28   57 1
    61   28   58 1
    62   29   59 1
    63   29   60 1
    64   29   61 1
    65   30   31 1
    66   30   62 1
    67   30   63 1
    68   31   32 1
    69   31   67 1
    70   32   64 1
    71   32   65 1
    72   32   66 1
@<TRIPOS>MOLECULE
ZINC01854466
   28    29     0     0     0
SMALL
USER_CHARGES

@<TRIPOS>ATOM
      1 H1          0.0021   -0.0041    0.0020 H         1 <0>         0.0820
      2 C1         -0.0127    1.0858    0.0080 C.3       1 <0>         0.0924
      3 C2         -0.6196    1.6075    1.3229 C.3       1 <0>         0.1008
      4 N1          0.4595    2.3889    1.9425 N.pl3     1 <0>        -0.7117
      5 C3          1.5591    2.3519    1.1321 C.2       1 <0>         0.6597
      6 N2          1.3572    1.6172   -0.0022 N.pl3     1 <0>        -0.7559
      7 N3          2.6884    2.9581    1.4128 N.2       1 <0>        -0.6084
      8 C4          3.7474    2.8719    0.5449 C.ar      1 <0>         0.0531
      9 C5          4.6905    1.8355    0.6554 C.ar      1 <0>         0.3458
     10 N4          5.6977    1.7928   -0.2061 N.ar      1 <0>        -0.5581
     11 C6          5.8185    2.7034   -1.1525 C.ar      1 <0>         0.3449
     12 N5          4.9566    3.6903   -1.2902 N.ar      1 <0>        -0.5200
     13 C7          3.9164    3.8082   -0.4778 C.ar      1 <0>         0.2030
     14 Cl1         2.7854    5.1100   -0.6769 Cl        1 <0>        -0.0016
     15 C8          6.9808    2.6123   -2.1074 C.3       1 <0>        -0.0821
     16 O1          4.5727    0.8962    1.6263 O.3       1 <0>        -0.2865
     17 C9          5.5740   -0.1224    1.6683 C.3       1 <0>         0.0363
     18 H2         -1.4807    2.2438    1.1182 H         1 <0>         0.0860
     19 H3         -0.9047    0.7755    1.9667 H         1 <0>         0.0856
     20 H4         -0.5732    1.4625   -0.8476 H         1 <0>         0.0831
     21 H5          2.0129    1.4699   -0.7017 H         1 <0>         0.4237
     22 H6          6.6965    2.0088   -2.9693 H         1 <0>         0.0879
     23 H7          7.2572    3.6129   -2.4398 H         1 <0>         0.0898
     24 H8          7.8294    2.1494   -1.6037 H         1 <0>         0.0876
     25 H9          6.5516    0.3351    1.8206 H         1 <0>         0.0629
     26 H10         5.3615   -0.8071    2.4894 H         1 <0>         0.1006
     27 H11         5.5728   -0.6722    0.7271 H         1 <0>         0.0610
     28 H12         0.4009    2.8557    2.7908 H         1 <0>         0.4381
@<TRIPOS>BOND
     1    1    2 1
     2    2    6 1
     3    2    3 1
     4    2   20 1
     5    3    4 1
     6    3   18 1
     7    3   19 1
     8    4    5 1
     9    4   28 1
    10    5    6 1
    11    5    7 2
    12    6   21 1
    13    7    8 1
    14    8   13 ar
    15    8    9 ar
    16    9   10 ar
    17    9   16 1
    18   10   11 ar
    19   11   12 ar
    20   11   15 1
    21   12   13 ar
    22   13   14 1
    23   15   22 1
    24   15   23 1
    25   15   24 1
    26   16   17 1
    27   17   25 1
    28   17   26 1
    29   17   27 1
@<TRIPOS>MOLECULE
ZINC03828640
   64    68     0     0     0
SMALL
USER_CHARGES

@<TRIPOS>ATOM
      1 C1          2.4030   -3.5768   -2.0092 C.ar      1 <0>        -0.1203
      2 C2          3.6670   -3.0308   -2.2260 C.ar      1 <0>        -0.0806
      3 C3          4.1055   -1.9679   -1.4981 C.ar      1 <0>        -0.1408
      4 C4          3.2737   -1.4096   -0.5123 C.ar      1 <0>         0.0301
      5 C5          1.9881   -1.9645   -0.2921 C.ar      1 <0>        -0.0755
      6 C6          1.5704   -3.0626   -1.0635 C.ar      1 <0>        -0.0905
      7 C7          1.1563   -1.4060    0.6930 C.ar      1 <0>        -0.0358
      8 C8          1.5947   -0.3425    1.4208 C.ar      1 <0>        -0.1522
      9 C9          2.8583    0.2032    1.2041 C.ar      1 <0>         0.0093
     10 C10         3.6914   -0.3118    0.2587 C.ar      1 <0>        -0.6758
     11 S1          5.2853    0.3945    0.0034 S.o2      1 <0>         2.6957
     12 O1          5.3860    1.5007    0.8896 O.2       1 <0>        -0.9606
     13 O2          6.2136   -0.6813    0.0193 O.2       1 <0>        -0.9492
     14 N1          5.3058    1.0147   -1.5320 N.pl3     1 <0>        -1.1160
     15 C11         4.4105    2.1181   -1.8883 C.3       1 <0>         0.1171
     16 C12         4.8902    2.7643   -3.1895 C.3       1 <0>        -0.0952
     17 C13         6.2587    3.4102   -2.9638 C.3       1 <0>        -0.1158
     18 C14         6.1448    4.4793   -1.8752 C.3       1 <0>        -0.1217
     19 C15         5.1422    5.5487   -2.3134 C.3       1 <0>        -0.0956
     20 C16         3.7737    4.9028   -2.5391 C.3       1 <0>        -0.1255
     21 C17         3.8876    3.8337   -3.6277 C.3       1 <0>        -0.1134
     22 C18         5.0283    6.6177   -1.2248 C.3       1 <0>         0.0885
     23 N2          4.1608    7.7013   -1.6934 N.pl3     1 <0>        -0.6662
     24 C19         3.9075    8.7873   -0.8752 C.ar      1 <0>         0.6845
     25 N3          4.4656    8.8219    0.3199 N.ar      1 <0>        -0.5846
     26 C20         4.2448    9.8579    1.1425 C.ar      1 <0>         0.2022
     27 C21         4.8216    9.9274    2.4180 C.ar      1 <0>        -0.1475
     28 C22         4.5652   11.0033    3.2152 C.ar      1 <0>        -0.0186
     29 C23         3.7380   12.0356    2.7823 C.ar      1 <0>        -0.1209
     30 C24         3.1607   11.9993    1.5468 C.ar      1 <0>        -0.0370
     31 C25         3.4039   10.9096    0.7040 C.ar      1 <0>        -0.1948
     32 C26         2.8323   10.8181   -0.5896 C.ar      1 <0>         0.5606
     33 N4          3.1160    9.7554   -1.3282 N.ar      1 <0>        -0.5977
     34 N5          2.0062   11.8119   -1.0692 N.pl3     1 <0>        -0.7694
     35 H1          2.0778   -4.4178   -2.6036 H         1 <0>         0.1319
     36 H2          4.3081   -3.4580   -2.9829 H         1 <0>         0.1328
     37 H3          5.0877   -1.5558   -1.6767 H         1 <0>         0.1313
     38 H4          0.5936   -3.4958   -0.9069 H         1 <0>         0.1342
     39 H5          0.1742   -1.8182    0.8715 H         1 <0>         0.1385
     40 H6          0.9534    0.0849    2.1774 H         1 <0>         0.1364
     41 H7          3.1817    1.0473    1.7952 H         1 <0>         0.1434
     42 H8          5.9106    0.6473   -2.1954 H         1 <0>         0.4207
     43 H9          3.3988    1.7358   -2.0240 H         1 <0>         0.0668
     44 H10         4.4142    2.8611   -1.0907 H         1 <0>         0.0824
     45 H11         4.9714    2.0027   -3.9650 H         1 <0>         0.0867
     46 H12         6.9730    2.6484   -2.6516 H         1 <0>         0.0741
     47 H13         6.6005    3.8706   -3.8908 H         1 <0>         0.0711
     48 H14         5.8030    4.0189   -0.9482 H         1 <0>         0.0792
     49 H15         7.1198    4.9394   -1.7144 H         1 <0>         0.0726
     50 H16         5.4840    6.0090   -3.2404 H         1 <0>         0.0914
     51 H17         3.4319    4.4424   -1.6121 H         1 <0>         0.0729
     52 H18         3.0594    5.6646   -2.8514 H         1 <0>         0.0650
     53 H19         4.2294    4.2941   -4.5547 H         1 <0>         0.0738
     54 H20         2.9127    3.3736   -3.7885 H         1 <0>         0.0731
     55 H21         4.6027    6.1752   -0.3242 H         1 <0>         0.0902
     56 H22         6.0182    7.0156   -1.0013 H         1 <0>         0.0896
     57 H23         3.7641    7.6571   -2.5774 H         1 <0>         0.4405
     58 H24         5.4649    9.1334    2.7674 H         1 <0>         0.1568
     59 H25         5.0104   11.0552    4.1977 H         1 <0>         0.1559
     60 H26         3.5503   12.8765    3.4335 H         1 <0>         0.1526
     61 H27         2.5203   12.8060    1.2219 H         1 <0>         0.1487
     62 H28         1.8096   12.5865   -0.5193 H         1 <0>         0.4311
     63 H29         1.6216   11.7367   -1.9564 H         1 <0>         0.4316
     64 H30         5.0388    8.0933    0.6055 H         1 <0>         0.4384
@<TRIPOS>BOND
     1    1    6 ar
     2    1    2 ar
     3    1   35 1
     4    2    3 ar
     5    2   36 1
     6    3    4 ar
     7    3   37 1
     8    4   10 ar
     9    4    5 ar
    10    5    6 ar
    11    5    7 ar
    12    6   38 1
    13    7    8 ar
    14    7   39 1
    15    8    9 ar
    16    8   40 1
    17    9   10 ar
    18    9   41 1
    19   10   11 1
    20   11   12 2
    21   11   13 2
    22   11   14 1
    23   14   15 1
    24   14   42 1
    25   15   16 1
    26   15   43 1
    27   15   44 1
    28   16   21 1
    29   16   17 1
    30   16   45 1
    31   17   18 1
    32   17   46 1
    33   17   47 1
    34   18   19 1
    35   18   48 1
    36   18   49 1
    37   19   20 1
    38   19   22 1
    39   19   50 1
    40   20   21 1
    41   20   51 1
    42   20   52 1
    43   21   53 1
    44   21   54 1
    45   22   23 1
    46   22   55 1
    47   22   56 1
    48   23   24 1
    49   23   57 1
    50   24   33 ar
    51   24   25 ar
    52   25   26 ar
    53   25   64 1
    54   26   31 ar
    55   26   27 ar
    56   27   28 ar
    57   27   58 1
    58   28   29 ar
    59   28   59 1
    60   29   30 ar
    61   29   60 1
    62   30   31 ar
    63   30   61 1
    64   31   32 ar
    65   32   33 ar
    66   32   34 1
    67   34   62 1
    68   34   63 1
@<TRIPOS>MOLECULE
ZINC06145324
   53    57     0     0     0
SMALL
USER_CHARGES

@<TRIPOS>ATOM
      1 C1         -0.4968    1.4637   -1.3611 C.3       1 <0>        -0.0274
      2 O1         -0.3794    0.0770   -1.6854 O.3       1 <0>        -0.2746
      3 C2          0.6456   -0.5928   -1.1355 C.2       1 <0>         0.4725
      4 O2          1.4789   -0.0000   -0.4921 O.2       1 <0>        -0.4208
      5 C3          0.7570   -2.0843   -1.3206 C.3       1 <0>        -0.0830
      6 H1          1.2705   -2.5190   -0.4629 H         1 <0>         0.1451
      7 C4         -0.6431   -2.6890   -1.4360 C.3       1 <0>         0.1078
      8 H2         -0.5632   -3.7670   -1.5761 H         1 <0>         0.0869
      9 C5         -1.3653   -2.0704   -2.6350 C.3       1 <0>        -0.1818
     10 C6         -0.5780   -2.3733   -3.9113 C.3       1 <0>        -0.1086
     11 C7          0.8274   -1.7851   -3.8022 C.3       1 <0>        -0.0975
     12 H3          1.3907   -2.0299   -4.7027 H         1 <0>         0.0953
     13 C8          1.5515   -2.3817   -2.5946 C.3       1 <0>        -0.0801
     14 H4          1.6493   -3.4598   -2.7219 H         1 <0>         0.1302
     15 C9          2.9384   -1.7360   -2.4765 C.3       1 <0>        -0.1323
     16 C10         2.7651   -0.2206   -2.3622 C.3       1 <0>        -0.0766
     17 H5          2.1557    0.0114   -1.4888 H         1 <0>         0.2620
     18 C11         4.1110    0.4459   -2.2288 C.2       1 <0>         0.0529
     19 C12         4.4280    1.5886   -2.8822 C.2       1 <0>        -0.1773
     20 C13         5.7846    1.9270   -2.5164 C.ar      1 <0>        -0.0960
     21 C14         6.6314    2.9814   -2.8731 C.ar      1 <0>        -0.0681
     22 C15         7.8871    2.9849   -2.3183 C.ar      1 <0>        -0.1361
     23 C16         8.3090    1.9960   -1.4448 C.ar      1 <0>        -0.0858
     24 C17         7.4930    0.9413   -1.0743 C.ar      1 <0>        -0.1270
     25 C18         6.2120    0.9116   -1.6213 C.ar      1 <0>         0.1060
     26 N1          5.1743    0.0358   -1.4726 N.pl3     1 <0>        -0.5639
     27 H6          5.1894   -0.7577   -0.9149 H         1 <0>         0.4201
     28 C19         3.4743    2.3080   -3.8027 C.3       1 <0>        -0.0636
     29 C20         2.0642    1.7521   -3.5564 C.3       1 <0>        -0.0078
     30 N2          2.1024    0.2862   -3.5719 N.4       1 <0>        -0.3582
     31 C21         0.7464   -0.2646   -3.6551 C.3       1 <0>        -0.2013
     32 O3         -1.3800   -2.4166   -0.2423 O.3       1 <0>        -0.5654
     33 H7         -0.7455    1.5701   -0.3052 H         1 <0>         0.0987
     34 H8          0.4493    1.9656   -1.5638 H         1 <0>         0.0751
     35 H9         -1.2837    1.9132   -1.9668 H         1 <0>         0.1326
     36 H10        -2.3660   -2.4947   -2.7155 H         1 <0>         0.0885
     37 H11        -1.4371   -0.9912   -2.4994 H         1 <0>         0.1053
     38 H12        -0.5097   -3.4526   -4.0475 H         1 <0>         0.0871
     39 H13        -1.0902   -1.9324   -4.7665 H         1 <0>         0.0852
     40 H14         3.4435   -2.1144   -1.5878 H         1 <0>         0.1101
     41 H15         3.5278   -1.9709   -3.3628 H         1 <0>         0.0955
     42 H16         6.3122    3.7568   -3.5538 H         1 <0>         0.1332
     43 H17         8.5680    3.7841   -2.5713 H         1 <0>         0.1267
     44 H18         9.3086    2.0497   -1.0394 H         1 <0>         0.1301
     45 H19         7.8338    0.1761   -0.3925 H         1 <0>         0.1342
     46 H20         3.4915    3.3766   -3.5886 H         1 <0>         0.1178
     47 H21         3.7624    2.1349   -4.8397 H         1 <0>         0.0966
     48 H22         1.7034    2.0935   -2.5861 H         1 <0>         0.1220
     49 H23         1.3925    2.1057   -4.3386 H         1 <0>         0.1356
     50 H24         0.2350    0.1581   -4.5200 H         1 <0>         0.1294
     51 H25         0.1957   -0.0154   -2.7481 H         1 <0>         0.2485
     52 H26        -2.2794   -2.7717   -0.2457 H         1 <0>         0.3977
     53 H27         2.6214   -0.0176   -4.3822 H         1 <0>         0.4046
@<TRIPOS>BOND
     1    1    2 1
     2    1   33 1
     3    1   34 1
     4    1   35 1
     5    2    3 1
     6    3    4 2
     7    3    5 1
     8    5    6 1
     9    5   13 1
    10    5    7 1
    11    7    8 1
    12    7    9 1
    13    7   32 1
    14    9   10 1
    15    9   36 1
    16    9   37 1
    17   10   11 1
    18   10   38 1
    19   10   39 1
    20   11   12 1
    21   11   31 1
    22   11   13 1
    23   13   14 1
    24   13   15 1
    25   15   16 1
    26   15   40 1
    27   15   41 1
    28   16   17 1
    29   16   30 1
    30   16   18 1
    31   18   26 1
    32   18   19 2
    33   19   20 1
    34   19   28 1
    35   20   25 ar
    36   20   21 ar
    37   21   22 ar
    38   21   42 1
    39   22   23 ar
    40   22   43 1
    41   23   24 ar
    42   23   44 1
    43   24   25 ar
    44   24   45 1
    45   25   26 1
    46   26   27 1
    47   28   29 1
    48   28   46 1
    49   28   47 1
    50   29   30 1
    51   29   48 1
    52   29   49 1
    53   30   31 1
    54   30   53 1
    55   31   50 1
    56   31   51 1
    57   32   52 1
@<TRIPOS>MOLECULE
ZINC03825965
   61    64     0     0     0
SMALL
USER_CHARGES
2-[4-[4-(7-methoxy-1-naphthyl)piperazin-1-yl]butyl]-4-methyl-1,2,4-triazine-3,5-dione
@<TRIPOS>ATOM
      1 C1         -2.0231    1.8137    0.6582 C.3       1 <0>         0.0742
      2 N1         -0.7874    2.5524    0.3867 N.am      1 <0>        -0.5564
      3 C2         -0.8326    3.8813    0.1583 C.2       1 <0>         0.5084
      4 O1         -1.8956    4.4738    0.1762 O.2       1 <0>        -0.4669
      5 C3          0.4140    4.6017   -0.1163 C.2       1 <0>         0.0634
      6 N2          1.5380    3.9407   -0.1287 N.2       1 <0>        -0.1777
      7 N3          1.5393    2.5628    0.1185 N.am      1 <0>        -0.4527
      8 C4          0.3932    1.9057    0.3704 C.2       1 <0>         0.6789
      9 O2          0.4233    0.7087    0.5818 O.2       1 <0>        -0.5327
     10 C5          2.8060    1.8269    0.1029 C.3       1 <0>         0.1443
     11 C6          3.0823    1.3171   -1.3129 C.3       1 <0>        -0.1367
     12 C7          4.4051    0.5485   -1.3292 C.3       1 <0>        -0.1456
     13 C8          4.6814    0.0387   -2.7450 C.3       1 <0>        -0.0029
     14 C9          7.0843    0.1963   -2.4877 C.3       1 <0>        -0.0008
     15 C10         8.3766   -0.6219   -2.4340 C.3       1 <0>         0.0217
     16 N4          8.5611   -1.3257   -3.7108 N.pl3     1 <0>        -0.4829
     17 C11         7.4284   -2.2213   -3.9837 C.3       1 <0>         0.0173
     18 C12         6.1361   -1.4030   -4.0374 C.3       1 <0>         0.0026
     19 C13         9.7664   -2.0260   -3.7256 C.ar      1 <0>         0.0812
     20 C14        10.4947   -2.1813   -2.5657 C.ar      1 <0>        -0.1408
     21 C15        11.6964   -2.8835   -2.5687 C.ar      1 <0>        -0.1158
     22 C16        12.1912   -3.4252   -3.7158 C.ar      1 <0>        -0.0881
     23 C17        11.4824   -3.2847   -4.9213 C.ar      1 <0>        -0.0708
     24 C18        10.2549   -2.5774   -4.9297 C.ar      1 <0>        -0.0049
     25 C19         9.5469   -2.4379   -6.1332 C.ar      1 <0>        -0.1649
     26 C20        10.0499   -2.9838   -7.2801 C.ar      1 <0>         0.1412
     27 C21        11.2610   -3.6818   -7.2702 C.ar      1 <0>        -0.1852
     28 C22        11.9704   -3.8345   -6.1198 C.ar      1 <0>        -0.0583
     29 O3          9.3633   -2.8476   -8.4452 O.3       1 <0>        -0.3171
     30 C23         9.9390   -3.4413   -9.6106 C.3       1 <0>         0.0231
     31 H1         -2.2167    1.8112    1.7308 H         1 <0>         0.0809
     32 H2         -2.8540    2.2926    0.1401 H         1 <0>         0.0986
     33 H3         -1.9180    0.7877    0.3055 H         1 <0>         0.0965
     34 H4          0.4017    5.6648   -0.3060 H         1 <0>         0.2278
     35 H5          3.6143    2.4882    0.4152 H         1 <0>         0.1043
     36 H6          2.7433    0.9812    0.7878 H         1 <0>         0.1061
     37 H7          2.2740    0.6558   -1.6252 H         1 <0>         0.0811
     38 H8          3.1449    2.1627   -1.9978 H         1 <0>         0.0840
     39 H9          5.2134    1.2098   -1.0169 H         1 <0>         0.0927
     40 H10         4.3425   -0.2971   -0.6443 H         1 <0>         0.0923
     41 H11         3.8731   -0.6226   -3.0573 H         1 <0>         0.1313
     42 H12         4.7441    0.8843   -3.4299 H         1 <0>         0.1342
     43 H13         7.1581    0.9411   -3.2801 H         1 <0>         0.1413
     44 H14         6.9304    0.6962   -1.5314 H         1 <0>         0.1384
     45 H15         8.3135   -1.3486   -1.6240 H         1 <0>         0.0709
     46 H16         9.2218    0.0441   -2.2604 H         1 <0>         0.1291
     47 H17         7.3545   -2.9661   -3.1914 H         1 <0>         0.0693
     48 H18         7.5822   -2.7212   -4.9400 H         1 <0>         0.1333
     49 H19         5.2909   -2.0691   -4.2110 H         1 <0>         0.1378
     50 H20         6.1987   -0.6764   -4.8475 H         1 <0>         0.1413
     51 H21        10.1265   -1.7571   -1.6432 H         1 <0>         0.1270
     52 H22        12.2479   -2.9965   -1.6471 H         1 <0>         0.1296
     53 H23        13.1276   -3.9630   -3.6992 H         1 <0>         0.1330
     54 H24         8.6099   -1.9012   -6.1528 H         1 <0>         0.1365
     55 H25        11.6388   -4.1055   -8.1890 H         1 <0>         0.1364
     56 H26        12.9046   -4.3763   -6.1269 H         1 <0>         0.1387
     57 H27         9.2919   -3.2592  -10.4686 H         1 <0>         0.1058
     58 H28        10.9195   -3.0024   -9.7954 H         1 <0>         0.0600
     59 H29        10.0448   -4.5152   -9.4568 H         1 <0>         0.0595
     60 N5          5.9513   -0.7185   -2.7404 N.4       1 <0>        -0.3980
     61 H30         5.9174   -1.4221   -1.9934 H         1 <0>         0.4253
@<TRIPOS>BOND
     1    1    2 1
     2    1   31 1
     3    1   32 1
     4    1   33 1
     5    2    8 am
     6    2    3 am
     7    3    4 2
     8    3    5 1
     9    5    6 2
    10    5   34 1
    11    6    7 1
    12    7    8 am
    13    7   10 1
    14    8    9 2
    15   10   11 1
    16   10   35 1
    17   10   36 1
    18   11   12 1
    19   11   37 1
    20   11   38 1
    21   12   13 1
    22   12   39 1
    23   12   40 1
    24   13   41 1
    25   13   42 1
    26   13   60 1
    27   14   15 1
    28   14   43 1
    29   14   44 1
    30   14   60 1
    31   15   16 1
    32   15   45 1
    33   15   46 1
    34   16   17 1
    35   16   19 1
    36   17   18 1
    37   17   47 1
    38   17   48 1
    39   18   49 1
    40   18   50 1
    41   18   60 1
    42   19   24 ar
    43   19   20 ar
    44   20   21 ar
    45   20   51 1
    46   21   22 ar
    47   21   52 1
    48   22   23 ar
    49   22   53 1
    50   23   28 ar
    51   23   24 ar
    52   24   25 ar
    53   25   26 ar
    54   25   54 1
    55   26   27 ar
    56   26   29 1
    57   27   28 ar
    58   27   55 1
    59   28   56 1
    60   29   30 1
    61   30   57 1
    62   30   58 1
    63   30   59 1
    64   60   61 1
@<TRIPOS>MOLECULE
ZINC00601304
   50    53     0     0     0
SMALL
USER_CHARGES

@<TRIPOS>ATOM
      1 C1         -0.0848    1.4532   -0.3643 C.3       1 <0>         0.0157
      2 O1         -0.0673    0.0248   -0.4029 O.3       1 <0>        -0.2899
      3 C2         -1.2697   -0.6091   -0.3507 C.ar      1 <0>         0.1141
      4 C3         -2.4181    0.1263   -0.2712 C.ar      1 <0>        -0.1159
      5 C4         -3.6565   -0.5247   -0.2178 C.ar      1 <0>        -0.1900
      6 C5         -3.7118   -1.9398   -0.2465 C.ar      1 <0>         0.2208
      7 C6         -2.5225   -2.6738   -0.3282 C.ar      1 <0>        -0.2298
      8 C7         -1.3169   -2.0092   -0.3848 C.ar      1 <0>         0.2171
      9 O2         -0.1616   -2.7187   -0.4697 O.3       1 <0>        -0.2781
     10 C8         -0.2756   -4.1428   -0.5007 C.3       1 <0>         0.0126
     11 N1         -4.9113   -2.5410   -0.1946 N.ar      1 <0>        -0.5852
     12 C9         -6.0151   -1.8231   -0.1184 C.ar      1 <0>         0.6808
     13 N2         -6.0075   -0.4933   -0.0894 N.ar      1 <0>        -0.5933
     14 C10        -4.8747    0.1928   -0.1354 C.ar      1 <0>         0.5614
     15 N3         -4.8820    1.5717   -0.1036 N.pl3     1 <0>        -0.7723
     16 N4         -7.2317   -2.4807   -0.0668 N.pl3     1 <0>        -0.5638
     17 C11        -7.2984   -3.9422   -0.2055 C.3       1 <0>         0.0875
     18 C12        -8.0309   -4.5172    1.0132 C.3       1 <0>         0.0811
     19 N5         -9.2792   -3.7665    1.2081 N.am      1 <0>        -0.6161
     20 C13        -9.2125   -2.3049    1.3468 C.3       1 <0>         0.0965
     21 C14        -8.4794   -1.7305    0.1337 C.3       1 <0>         0.1036
     22 C15       -10.4640   -4.4068    1.2583 C.2       1 <0>         0.6126
     23 O3        -11.4993   -3.7686    1.3005 O.2       1 <0>        -0.5007
     24 C16       -10.5057   -5.8728    1.2622 C.2       1 <0>        -0.0999
     25 C17       -11.6286   -6.6439    1.1675 C.2       1 <0>        -0.0980
     26 C18       -11.2046   -7.9813    1.2107 C.2       1 <0>        -0.2186
     27 C19        -9.8585   -7.9681    1.3284 C.2       1 <0>        -0.0023
     28 O4         -9.4406   -6.6959    1.3540 O.3       1 <0>        -0.1695
     29 H1          0.9367    1.8304   -0.4129 H         1 <0>         0.1175
     30 H2         -0.6531    1.8327   -1.2135 H         1 <0>         0.0636
     31 H3         -0.5513    1.7859    0.5629 H         1 <0>         0.0637
     32 H4         -2.3709    1.2050   -0.2492 H         1 <0>         0.1589
     33 H5         -2.5500   -3.7532   -0.3508 H         1 <0>         0.1674
     34 H6         -0.7651   -4.4880    0.4100 H         1 <0>         0.0684
     35 H7         -0.8669   -4.4412   -1.3664 H         1 <0>         0.0684
     36 H8          0.7180   -4.5855   -0.5693 H         1 <0>         0.1203
     37 H9         -4.0457    2.0621   -0.1379 H         1 <0>         0.4288
     38 H10        -5.7233    2.0512   -0.0471 H         1 <0>         0.4313
     39 H11        -7.8428   -4.1990   -1.1142 H         1 <0>         0.1106
     40 H12        -6.2893   -4.3517   -0.2526 H         1 <0>         0.0927
     41 H13        -8.2596   -5.5687    0.8400 H         1 <0>         0.1354
     42 H14        -7.4023   -4.4179    1.8982 H         1 <0>         0.0848
     43 H15       -10.2215   -1.8954    1.3938 H         1 <0>         0.1238
     44 H16        -8.6680   -2.0481    2.2555 H         1 <0>         0.0830
     45 H17        -8.2501   -0.6797    0.3105 H         1 <0>         0.1273
     46 H18        -9.1099   -1.8262   -0.7503 H         1 <0>         0.0981
     47 H19       -12.6459   -6.2927    1.0769 H         1 <0>         0.1643
     48 H20       -11.8356   -8.8563    1.1598 H         1 <0>         0.1626
     49 H21        -9.2239   -8.8399    1.3885 H         1 <0>         0.2151
     50 H22        -4.9664   -3.5093   -0.2136 H         1 <0>         0.4337
@<TRIPOS>BOND
     1    1    2 1
     2    1   29 1
     3    1   30 1
     4    1   31 1
     5    2    3 1
     6    3    8 ar
     7    3    4 ar
     8    4    5 ar
     9    4   32 1
    10    5   14 ar
    11    5    6 ar
    12    6    7 ar
    13    6   11 ar
    14    7    8 ar
    15    7   33 1
    16    8    9 1
    17    9   10 1
    18   10   34 1
    19   10   35 1
    20   10   36 1
    21   11   12 ar
    22   11   50 1
    23   12   13 ar
    24   12   16 1
    25   13   14 ar
    26   14   15 1
    27   15   37 1
    28   15   38 1
    29   16   21 1
    30   16   17 1
    31   17   18 1
    32   17   39 1
    33   17   40 1
    34   18   19 1
    35   18   41 1
    36   18   42 1
    37   19   20 1
    38   19   22 am
    39   20   21 1
    40   20   43 1
    41   20   44 1
    42   21   45 1
    43   21   46 1
    44   22   23 2
    45   22   24 1
    46   24   28 1
    47   24   25 2
    48   25   26 1
    49   25   47 1
    50   26   27 2
    51   26   48 1
    52   27   28 1
    53   27   49 1
@<TRIPOS>MOLECULE
ZINC13686849
   24    25     0     0     0
SMALL
USER_CHARGES
(3R)-7-bromo-3-methyl-1,2,3,4-tetrahydroisoquinoline
@<TRIPOS>ATOM
      1 C1          4.7599    4.4131    0.1282 C.3       1 <0>        -0.1492
      2 C2          3.4811    3.6138    0.3865 C.3       1 <0>         0.0710
      3 H1          3.2050    3.6787    1.4493 H         1 <0>         0.0444
      4 C3          3.6897    2.1599   -0.0379 C.3       1 <0>        -0.0751
      5 C4          2.3747    1.4237   -0.0165 C.ar      1 <0>        -0.0545
      6 C5          2.3928    0.0370   -0.0217 C.ar      1 <0>        -0.1147
      7 C6          1.2113   -0.6762   -0.0127 C.ar      1 <0>        -0.0905
      8 C7          0.0021   -0.0041    0.0020 C.ar      1 <0>        -0.0926
      9 C8         -0.0167    1.3768    0.0096 C.ar      1 <0>        -0.0863
     10 C9          1.1705    2.0943    0.0021 C.ar      1 <0>        -0.0753
     11 C10         1.0989    3.5988    0.0200 C.3       1 <0>         0.0865
     12 N1          2.3768    4.1784   -0.4055 N.3       1 <0>        -0.6677
     13 Br1        -1.6212   -0.9739    0.0123 Br        1 <0>        -0.0495
     14 H2          5.5835    3.9890    0.7213 H         1 <0>         0.0645
     15 H3          4.6014    5.4622    0.4184 H         1 <0>         0.0586
     16 H4          5.0141    4.3627   -0.9408 H         1 <0>         0.0675
     17 H5          4.1043    2.1311   -1.0564 H         1 <0>         0.0903
     18 H6          4.3893    1.6719    0.6567 H         1 <0>         0.0821
     19 H7          3.3367   -0.4877   -0.0333 H         1 <0>         0.1322
     20 H8          1.2305   -1.7560   -0.0167 H         1 <0>         0.1336
     21 H9         -0.9609    1.9010    0.0169 H         1 <0>         0.1326
     22 H10         0.3074    3.9364   -0.6653 H         1 <0>         0.0937
     23 H11         0.8722    3.9430    1.0399 H         1 <0>         0.0494
     24 H12         2.3427    5.2685   -0.2621 H         1 <0>         0.3489
@<TRIPOS>BOND
     1    1    2 1
     2    1   14 1
     3    1   15 1
     4    1   16 1
     5    2    3 1
     6    2   12 1
     7    2    4 1
     8    4    5 1
     9    4   17 1
    10    4   18 1
    11    5   10 ar
    12    5    6 ar
    13    6    7 ar
    14    6   19 1
    15    7    8 ar
    16    7   20 1
    17    8    9 ar
    18    8   13 1
    19    9   10 ar
    20    9   21 1
    21   10   11 1
    22   11   12 1
    23   11   22 1
    24   11   23 1
    25   12   24 1
@<TRIPOS>MOLECULE
ZINC13686854
   24    25     0     0     0
SMALL
USER_CHARGES
(3S)-7-bromo-3-methyl-1,2,3,4-tetrahydroisoquinoline
@<TRIPOS>ATOM
      1 C1         -0.1399    0.8736    2.4958 C.3       1 <0>        -0.1428
      2 C2         -0.7242    1.5768    1.2691 C.3       1 <0>         0.0716
      3 H1         -0.6274    2.6673    1.3759 H         1 <0>         0.0838
      4 C3         -0.0127    1.0858    0.0080 C.3       1 <0>        -0.1156
      5 C4         -0.7377    1.5831   -1.2162 C.ar      1 <0>        -0.0656
      6 C5         -0.0755    1.5540   -2.4345 C.ar      1 <0>        -0.1117
      7 C6         -0.7036    1.9973   -3.5807 C.ar      1 <0>        -0.0906
      8 C7         -2.0012    2.4725   -3.5142 C.ar      1 <0>        -0.0916
      9 C8         -2.6610    2.5022   -2.3013 C.ar      1 <0>        -0.0834
     10 C9         -2.0294    2.0595   -1.1484 C.ar      1 <0>        -0.1120
     11 C10        -2.7867    2.1205    0.1522 C.3       1 <0>         0.0852
     12 N1         -2.1543    1.2582    1.1554 N.3       1 <0>        -0.6592
     13 Br1        -2.8697    3.0792   -5.0806 Br        1 <0>        -0.0484
     14 H2          0.9305    1.1126    2.5802 H         1 <0>         0.0614
     15 H3         -0.2655   -0.2140    2.3895 H         1 <0>         0.0575
     16 H4         -0.6646    1.2167    3.3997 H         1 <0>         0.0665
     17 H5          1.0195    1.4658   -0.0021 H         1 <0>         0.0853
     18 H6          0.0014   -0.0141   -0.0004 H         1 <0>         0.0854
     19 H7          0.9373    1.1827   -2.4864 H         1 <0>         0.1317
     20 H8         -0.1834    1.9736   -4.5268 H         1 <0>         0.1337
     21 H9         -3.6740    2.8730   -2.2501 H         1 <0>         0.1337
     22 H10        -2.7938    3.1557    0.5241 H         1 <0>         0.0902
     23 H11        -3.8207    1.7819   -0.0093 H         1 <0>         0.0926
     24 H12        -2.2729    0.2072    0.8531 H         1 <0>         0.3424
@<TRIPOS>BOND
     1    1    2 1
     2    1   14 1
     3    1   15 1
     4    1   16 1
     5    2    3 1
     6    2   12 1
     7    2    4 1
     8    4    5 1
     9    4   17 1
    10    4   18 1
    11    5   10 ar
    12    5    6 ar
    13    6    7 ar
    14    6   19 1
    15    7    8 ar
    16    7   20 1
    17    8    9 ar
    18    8   13 1
    19    9   10 ar
    20    9   21 1
    21   10   11 1
    22   11   12 1
    23   11   22 1
    24   11   23 1
    25   12   24 1
@<TRIPOS>MOLECULE
ZINC52962012
   57    61     0     0     0
SMALL
USER_CHARGES

@<TRIPOS>ATOM
      1 C1          6.4703    2.7179   -7.6999 C.3       1 <0>        -0.1901
      2 C2          6.5768    1.3091   -7.1128 C.3       1 <0>        -0.0111
      3 N1          5.8277    0.3688   -7.9570 N.4       1 <0>        -0.3835
      4 C3          4.4000    0.7098   -7.9185 C.3       1 <0>        -0.0278
      5 C4          3.6331   -0.1969   -8.8868 C.3       1 <0>         0.0997
      6 N2          3.9322   -1.5974   -8.5503 N.pl3     1 <0>        -0.6443
      7 C5          5.3427   -1.9899   -8.4068 C.3       1 <0>         0.1002
      8 C6          6.0289   -0.9985   -7.4612 C.3       1 <0>        -0.0221
      9 C7          2.9044   -2.5298   -8.3722 C.ar      1 <0>         0.1773
     10 C8          1.5788   -2.1162   -8.4019 C.ar      1 <0>        -0.1401
     11 C9          0.5646   -3.0362   -8.2262 C.ar      1 <0>        -0.1108
     12 C10         0.8698   -4.3755   -8.0201 C.ar      1 <0>         0.1465
     13 C11         2.1955   -4.7891   -7.9909 C.ar      1 <0>        -0.1287
     14 C12         3.2095   -3.8698   -8.1714 C.ar      1 <0>        -0.1415
     15 N3         -0.1583   -5.3081   -7.8416 N.pl3     1 <0>        -0.7177
     16 C13         0.1375   -6.6510   -7.7519 C.ar      1 <0>         0.3835
     17 C14         0.3282   -7.2731   -6.5018 C.ar      1 <0>        -0.1320
     18 C15         0.2221   -6.5405   -5.3074 C.ar      1 <0>        -0.0435
     19 C16         0.4107   -7.1663   -4.1139 C.ar      1 <0>        -0.1182
     20 C17         0.7090   -8.5278   -4.0597 C.ar      1 <0>        -0.0012
     21 C18         0.8200   -9.2686   -5.1939 C.ar      1 <0>        -0.1715
     22 C19         0.6312   -8.6592   -6.4512 C.ar      1 <0>         0.2196
     23 N4          0.7358   -9.3745   -7.5701 N.ar      1 <0>        -0.4942
     24 C20         0.5642   -8.8289   -8.7731 C.ar      1 <0>         0.2195
     25 C21         0.2537   -7.4500   -8.9070 C.ar      1 <0>        -0.1309
     26 C22         0.0719   -6.8993  -10.1869 C.ar      1 <0>        -0.0427
     27 C23         0.1903   -7.6936  -11.2854 C.ar      1 <0>        -0.1178
     28 C24         0.4902   -9.0499  -11.1582 C.ar      1 <0>        -0.0003
     29 C25         0.6827   -9.6155   -9.9372 C.ar      1 <0>        -0.1719
     30 H1          6.8858    2.7240   -8.7076 H         1 <0>         0.0820
     31 H2          5.4230    3.0179   -7.7370 H         1 <0>         0.0804
     32 H3          7.0261    3.4156   -7.0735 H         1 <0>         0.1094
     33 H4          7.6241    1.0092   -7.0757 H         1 <0>         0.1328
     34 H5          6.1613    1.3031   -6.1051 H         1 <0>         0.1290
     35 H6          4.0192    0.5662   -6.9073 H         1 <0>         0.1327
     36 H7          4.2669    1.7508   -8.2127 H         1 <0>         0.1443
     37 H8          2.5627   -0.0169   -8.7872 H         1 <0>         0.1263
     38 H9          3.9486    0.0095   -9.9095 H         1 <0>         0.0904
     39 H10         5.4026   -2.9952   -7.9899 H         1 <0>         0.1237
     40 H11         5.8309   -1.9645   -9.3811 H         1 <0>         0.0898
     41 H12         7.0961   -1.2163   -7.4184 H         1 <0>         0.1421
     42 H13         5.5988   -1.0905   -6.4638 H         1 <0>         0.1321
     43 H14         1.3415   -1.0749   -8.5621 H         1 <0>         0.1337
     44 H15        -0.4662   -2.7145   -8.2486 H         1 <0>         0.1373
     45 H16         2.4329   -5.8305   -7.8307 H         1 <0>         0.1167
     46 H17         4.2402   -4.1920   -8.1525 H         1 <0>         0.1293
     47 H18        -1.0791   -5.0091   -7.7808 H         1 <0>         0.4327
     48 H19        -0.0077   -5.4856   -5.3366 H         1 <0>         0.1549
     49 H20         0.3288   -6.6016   -3.1970 H         1 <0>         0.1547
     50 H21         0.8546   -9.0014   -3.1000 H         1 <0>         0.1599
     51 H22         1.0523  -10.3215   -5.1321 H         1 <0>         0.1613
     52 H23        -0.1611   -5.8506  -10.2983 H         1 <0>         0.1549
     53 H24         0.0498   -7.2686  -12.2683 H         1 <0>         0.1550
     54 H25         0.5789   -9.6593  -12.0454 H         1 <0>         0.1602
     55 H26         0.9146  -10.6673   -9.8585 H         1 <0>         0.1613
     56 H27         0.9433  -10.3199   -7.5069 H         1 <0>         0.4451
     57 H28         6.1609    0.4331   -8.9073 H         1 <0>         0.4233
@<TRIPOS>BOND
     1    1    2 1
     2    1   30 1
     3    1   31 1
     4    1   32 1
     5    2    3 1
     6    2   33 1
     7    2   34 1
     8    3    8 1
     9    3    4 1
    10    3   57 1
    11    4    5 1
    12    4   35 1
    13    4   36 1
    14    5    6 1
    15    5   37 1
    16    5   38 1
    17    6    7 1
    18    6    9 1
    19    7    8 1
    20    7   39 1
    21    7   40 1
    22    8   41 1
    23    8   42 1
    24    9   14 ar
    25    9   10 ar
    26   10   11 ar
    27   10   43 1
    28   11   12 ar
    29   11   44 1
    30   12   13 ar
    31   12   15 1
    32   13   14 ar
    33   13   45 1
    34   14   46 1
    35   15   16 1
    36   15   47 1
    37   16   25 ar
    38   16   17 ar
    39   17   22 ar
    40   17   18 ar
    41   18   19 ar
    42   18   48 1
    43   19   20 ar
    44   19   49 1
    45   20   21 ar
    46   20   50 1
    47   21   22 ar
    48   21   51 1
    49   22   23 ar
    50   23   24 ar
    51   23   56 1
    52   24   29 ar
    53   24   25 ar
    54   25   26 ar
    55   26   27 ar
    56   26   52 1
    57   27   28 ar
    58   27   53 1
    59   28   29 ar
    60   28   54 1
    61   29   55 1
@<TRIPOS>MOLECULE
ZINC52962012
   56    60     0     0     0
SMALL
USER_CHARGES

@<TRIPOS>ATOM
      1 C1          3.4513    2.9113    9.5230 C.3       1 <0>        -0.1512
      2 C2          2.8144    1.5439    9.2672 C.3       1 <0>         0.0504
      3 N1          3.8691    0.5482    9.0348 N.3       1 <0>        -0.5377
      4 C3          4.6023    0.8376    7.7952 C.3       1 <0>         0.0354
      5 C4          5.8018   -0.1093    7.6822 C.3       1 <0>         0.1244
      6 N2          5.3189   -1.4926    7.8106 N.pl3     1 <0>        -0.6273
      7 C5          4.4617   -1.8267    8.9582 C.3       1 <0>         0.1258
      8 C6          3.3150   -0.8122    9.0209 C.3       1 <0>         0.0390
      9 C7          5.6660   -2.4650    6.8664 C.ar      1 <0>         0.2075
     10 C8          6.3816   -2.1065    5.7313 C.ar      1 <0>        -0.1588
     11 C9          6.7242   -3.0658    4.7996 C.ar      1 <0>        -0.1028
     12 C10         6.3535   -4.3898    4.9975 C.ar      1 <0>         0.1115
     13 C11         5.6381   -4.7483    6.1330 C.ar      1 <0>        -0.1211
     14 C12         5.2998   -3.7896    7.0670 C.ar      1 <0>        -0.1610
     15 N3          6.7002   -5.3623    4.0529 N.pl3     1 <0>        -0.7215
     16 C13         6.4380   -6.6916    4.3043 C.ar      1 <0>         0.4006
     17 C14         5.2512   -7.2991    3.8477 C.ar      1 <0>        -0.1376
     18 C15         4.2983   -6.5654    3.1209 C.ar      1 <0>        -0.0347
     19 C16         3.1610   -7.1770    2.6916 C.ar      1 <0>        -0.1248
     20 C17         2.9274   -8.5248    2.9639 C.ar      1 <0>        -0.0012
     21 C18         3.8259   -9.2662    3.6643 C.ar      1 <0>        -0.1754
     22 C19         5.0177   -8.6714    4.1267 C.ar      1 <0>         0.2201
     23 N4          5.9069   -9.3875    4.8130 N.ar      1 <0>        -0.4993
     24 C20         7.0416   -8.8554    5.2644 C.ar      1 <0>         0.2199
     25 C21         7.3503   -7.4911    5.0218 C.ar      1 <0>        -0.1365
     26 C22         8.5564   -6.9547    5.5037 C.ar      1 <0>        -0.0336
     27 C23         9.4191   -7.7491    6.1938 C.ar      1 <0>        -0.1246
     28 C24         9.1221   -9.0913    6.4301 C.ar      1 <0>        -0.0007
     29 C25         7.9608   -9.6424    5.9881 C.ar      1 <0>        -0.1758
     30 H1          4.0430    3.2045    8.6558 H         1 <0>         0.0547
     31 H2          2.6687    3.6501    9.6955 H         1 <0>         0.0627
     32 H3          4.0961    2.8535   10.4000 H         1 <0>         0.0651
     33 H4          2.2227    1.2508   10.1345 H         1 <0>         0.0774
     34 H5          2.1696    1.6017    8.3902 H         1 <0>         0.0338
     35 H6          3.9424    0.6922    6.9399 H         1 <0>         0.0378
     36 H7          4.9537    1.8692    7.8128 H         1 <0>         0.0918
     37 H8          6.2822    0.0223    6.7127 H         1 <0>         0.0866
     38 H9          6.5140    0.1053    8.4790 H         1 <0>         0.0741
     39 H10         4.0561   -2.8305    8.8322 H         1 <0>         0.0837
     40 H11         5.0451   -1.7772    9.8776 H         1 <0>         0.0735
     41 H12         2.7327   -0.9770    9.9275 H         1 <0>         0.0877
     42 H13         2.6730   -0.9346    8.1485 H         1 <0>         0.0376
     43 H14         6.6699   -1.0771    5.5774 H         1 <0>         0.1328
     44 H15         7.2800   -2.7869    3.9166 H         1 <0>         0.1299
     45 H16         5.3498   -5.7777    6.2869 H         1 <0>         0.1087
     46 H17         4.7469   -4.0690    7.9517 H         1 <0>         0.1281
     47 H18         7.1252   -5.1007    3.2211 H         1 <0>         0.4294
     48 H19         4.4675   -5.5209    2.9044 H         1 <0>         0.1568
     49 H20         2.4298   -6.6114    2.1332 H         1 <0>         0.1535
     50 H21         2.0168   -8.9872    2.6126 H         1 <0>         0.1573
     51 H22         3.6275  -10.3085    3.8662 H         1 <0>         0.1586
     52 H23         8.7977   -5.9169    5.3268 H         1 <0>         0.1570
     53 H24        10.3457   -7.3351    6.5631 H         1 <0>         0.1537
     54 H25         9.8233   -9.7011    6.9805 H         1 <0>         0.1575
     55 H26         7.7480  -10.6835    6.1808 H         1 <0>         0.1585
     56 H27         5.7226  -10.3233    4.9894 H         1 <0>         0.4427
@<TRIPOS>BOND
     1    1    2 1
     2    1   30 1
     3    1   31 1
     4    1   32 1
     5    2    3 1
     6    2   33 1
     7    2   34 1
     8    3    8 1
     9    3    4 1
    10    4    5 1
    11    4   35 1
    12    4   36 1
    13    5    6 1
    14    5   37 1
    15    5   38 1
    16    6    7 1
    17    6    9 1
    18    7    8 1
    19    7   39 1
    20    7   40 1
    21    8   41 1
    22    8   42 1
    23    9   14 ar
    24    9   10 ar
    25   10   11 ar
    26   10   43 1
    27   11   12 ar
    28   11   44 1
    29   12   13 ar
    30   12   15 1
    31   13   14 ar
    32   13   45 1
    33   14   46 1
    34   15   16 1
    35   15   47 1
    36   16   25 ar
    37   16   17 ar
    38   17   22 ar
    39   17   18 ar
    40   18   19 ar
    41   18   48 1
    42   19   20 ar
    43   19   49 1
    44   20   21 ar
    45   20   50 1
    46   21   22 ar
    47   21   51 1
    48   22   23 ar
    49   23   24 ar
    50   23   56 1
    51   24   29 ar
    52   24   25 ar
    53   25   26 ar
    54   26   27 ar
    55   26   52 1
    56   27   28 ar
    57   27   53 1
    58   28   29 ar
    59   28   54 1
    60   29   55 1
@<TRIPOS>MOLECULE
ZINC52962019
   48    51     0     0     0
SMALL
USER_CHARGES

@<TRIPOS>ATOM
      1 C1          0.9489    1.8187    1.6750 C.3       1 <0>        -0.0482
      2 N1          0.8146    0.3850    1.3849 N.4       1 <0>        -0.3846
      3 C2         -0.6087    0.0409    1.2752 C.3       1 <0>        -0.0237
      4 C3         -0.7477   -1.4275    0.8601 C.3       1 <0>         0.0956
      5 N2          0.0052   -2.2553    1.8150 N.pl3     1 <0>        -0.6417
      6 C4          1.3972   -1.8814    2.1097 C.3       1 <0>         0.0968
      7 C5          1.4349   -0.3915    2.4658 C.3       1 <0>        -0.0233
      8 C6         -0.5858   -3.3673    2.4255 C.ar      1 <0>         0.2130
      9 C7         -1.9318   -3.6395    2.2185 C.ar      1 <0>        -0.1627
     10 C8         -2.5149   -4.7365    2.8208 C.ar      1 <0>        -0.0679
     11 C9         -1.7553   -5.5678    3.6337 C.ar      1 <0>         0.0678
     12 C10        -0.4092   -5.2956    3.8408 C.ar      1 <0>        -0.0842
     13 C11         0.1751   -4.2018    3.2339 C.ar      1 <0>        -0.1649
     14 N3         -2.3467   -6.6800    4.2448 N.pl3     1 <0>        -0.6170
     15 C12        -1.6660   -7.8869    4.2952 C.ar      1 <0>         0.3471
     16 C13        -0.4707   -8.0630    3.6149 C.ar      1 <0>        -0.2678
     17 C14         0.1871   -9.2829    3.6855 C.ar      1 <0>         0.2312
     18 N4         -0.2895  -10.2881    4.3828 N.ar      1 <0>        -0.5029
     19 C15        -1.4369  -10.1894    5.0637 C.ar      1 <0>         0.1698
     20 C16        -2.1663   -8.9766    5.0476 C.ar      1 <0>        -0.1276
     21 C17        -3.3649   -8.8773    5.7674 C.ar      1 <0>        -0.0656
     22 C18        -3.8136   -9.9486    6.4798 C.ar      1 <0>        -0.1021
     23 C19        -3.0959  -11.1419    6.5020 C.ar      1 <0>        -0.0274
     24 C20        -1.9340  -11.2752    5.8052 C.ar      1 <0>        -0.1432
     25 H1          2.0053    2.0770    1.7488 H         1 <0>         0.1277
     26 H2          0.4888    2.3963    0.8733 H         1 <0>         0.1279
     27 H3          0.4524    2.0467    2.6182 H         1 <0>         0.1228
     28 H4         -1.0949    0.1938    2.2387 H         1 <0>         0.1334
     29 H5         -1.0796    0.6767    0.5254 H         1 <0>         0.1452
     30 H6         -1.7991   -1.7146    0.8758 H         1 <0>         0.1277
     31 H7         -0.3425   -1.5646   -0.1425 H         1 <0>         0.0944
     32 H8          1.7638   -2.4686    2.9516 H         1 <0>         0.1266
     33 H9          2.0189   -2.0643    1.2333 H         1 <0>         0.0938
     34 H10         2.4699   -0.0744    2.5933 H         1 <0>         0.1448
     35 H11         0.8868   -0.2256    3.3933 H         1 <0>         0.1333
     36 H12        -2.5225   -2.9928    1.5866 H         1 <0>         0.1379
     37 H13        -3.5617   -4.9480    2.6600 H         1 <0>         0.1398
     38 H14         0.1813   -5.9419    4.4732 H         1 <0>         0.1386
     39 H15         1.2229   -3.9926    3.3913 H         1 <0>         0.1376
     40 H16        -3.2326   -6.6062    4.6330 H         1 <0>         0.4275
     41 H17        -0.0537   -7.2547    3.0326 H         1 <0>         0.1802
     42 H18         1.1173   -9.4092    3.1514 H         1 <0>         0.2065
     43 H19        -3.9294   -7.9566    5.7576 H         1 <0>         0.1450
     44 H20        -4.7371   -9.8713    7.0344 H         1 <0>         0.1538
     45 H21        -3.4714  -11.9774    7.0742 H         1 <0>         0.1576
     46 H22        -1.3895  -12.2075    5.8325 H         1 <0>         0.1589
     47 H23         0.2026  -11.1237    4.4047 H         1 <0>         0.4461
     48 H24         1.2771    0.1746    0.5131 H         1 <0>         0.4263
@<TRIPOS>BOND
     1    1    2 1
     2    1   25 1
     3    1   26 1
     4    1   27 1
     5    2    7 1
     6    2    3 1
     7    2   48 1
     8    3    4 1
     9    3   28 1
    10    3   29 1
    11    4    5 1
    12    4   30 1
    13    4   31 1
    14    5    6 1
    15    5    8 1
    16    6    7 1
    17    6   32 1
    18    6   33 1
    19    7   34 1
    20    7   35 1
    21    8   13 ar
    22    8    9 ar
    23    9   10 ar
    24    9   36 1
    25   10   11 ar
    26   10   37 1
    27   11   12 ar
    28   11   14 1
    29   12   13 ar
    30   12   38 1
    31   13   39 1
    32   14   15 1
    33   14   40 1
    34   15   20 ar
    35   15   16 ar
    36   16   17 ar
    37   16   41 1
    38   17   18 ar
    39   17   42 1
    40   18   19 ar
    41   18   47 1
    42   19   24 ar
    43   19   20 ar
    44   20   21 ar
    45   21   22 ar
    46   21   43 1
    47   22   23 ar
    48   22   44 1
    49   23   24 ar
    50   23   45 1
    51   24   46 1
@<TRIPOS>MOLECULE
ZINC52962019
   47    50     0     0     0
SMALL
USER_CHARGES

@<TRIPOS>ATOM
      1 C1          0.8873    1.7788    1.7209 C.3       1 <0>         0.0230
      2 N1          0.7603    0.3454    1.4257 N.3       1 <0>        -0.5426
      3 C2         -0.6462   -0.0285    1.2266 C.3       1 <0>         0.0368
      4 C3         -0.7219   -1.4814    0.7453 C.3       1 <0>         0.1198
      5 N2          0.0181   -2.3271    1.6942 N.pl3     1 <0>        -0.6197
      6 C4          1.3910   -1.9372    2.0496 C.3       1 <0>         0.1210
      7 C5          1.3835   -0.4663    2.4796 C.3       1 <0>         0.0372
      8 C6         -0.5684   -3.4726    2.2440 C.ar      1 <0>         0.2404
      9 C7         -1.9008   -3.7643    1.9824 C.ar      1 <0>        -0.1803
     10 C8         -2.4794   -4.8944    2.5248 C.ar      1 <0>        -0.0597
     11 C9         -1.7291   -5.7396    3.3320 C.ar      1 <0>         0.0261
     12 C10        -0.3966   -5.4479    3.5936 C.ar      1 <0>        -0.0757
     13 C11         0.1836   -4.3207    3.0465 C.ar      1 <0>        -0.1825
     14 N3         -2.3159   -6.8853    3.8824 N.pl3     1 <0>        -0.5998
     15 C12        -1.6112   -8.0791    3.9122 C.ar      1 <0>         0.3450
     16 C13        -0.3907   -8.2056    3.2665 C.ar      1 <0>        -0.2644
     17 C14         0.2908   -9.4135    3.3151 C.ar      1 <0>         0.2255
     18 N4         -0.1866  -10.4532    3.9594 N.ar      1 <0>        -0.5114
     19 C15        -1.3576  -10.4031    4.6044 C.ar      1 <0>         0.1724
     20 C16        -2.1122   -9.2056    4.6076 C.ar      1 <0>        -0.1298
     21 C17        -3.3356   -9.1574    5.2897 C.ar      1 <0>        -0.0620
     22 C18        -3.7842  -10.2631    5.9477 C.ar      1 <0>        -0.1094
     23 C19        -3.0419  -11.4415    5.9510 C.ar      1 <0>        -0.0313
     24 C20        -1.8551  -11.5252    5.2893 C.ar      1 <0>        -0.1468
     25 H1          1.9424    2.0438    1.7883 H         1 <0>         0.0738
     26 H2          0.4177    2.3567    0.9249 H         1 <0>         0.0736
     27 H3          0.3960    1.9995    2.6685 H         1 <0>         0.0281
     28 H4         -1.1859    0.0712    2.1683 H         1 <0>         0.0398
     29 H5         -1.0943    0.6261    0.4791 H         1 <0>         0.0913
     30 H6         -1.7634   -1.8003    0.7058 H         1 <0>         0.0892
     31 H7         -0.2733   -1.5630   -0.2448 H         1 <0>         0.0792
     32 H8          1.7464   -2.5574    2.8725 H         1 <0>         0.0880
     33 H9          2.0427   -2.0625    1.1850 H         1 <0>         0.0784
     34 H10         2.4074   -0.1293    2.6408 H         1 <0>         0.0911
     35 H11         0.8155   -0.3605    3.4039 H         1 <0>         0.0397
     36 H12        -2.4844   -3.1068    1.3551 H         1 <0>         0.1373
     37 H13        -3.5157   -5.1210    2.3217 H         1 <0>         0.1325
     38 H14         0.1869   -6.1049    4.2215 H         1 <0>         0.1314
     39 H15         1.2209   -4.0962    3.2463 H         1 <0>         0.1367
     40 H16        -3.2155   -6.8440    4.2429 H         1 <0>         0.4240
     41 H17         0.0276   -7.3680    2.7280 H         1 <0>         0.1828
     42 H18         1.2405   -9.5010    2.8084 H         1 <0>         0.2043
     43 H19        -3.9194   -8.2488    5.2942 H         1 <0>         0.1442
     44 H20        -4.7268  -10.2251    6.4734 H         1 <0>         0.1508
     45 H21        -3.4177  -12.3049    6.4798 H         1 <0>         0.1538
     46 H22        -1.2917  -12.4466    5.3013 H         1 <0>         0.1557
     47 H23         0.3225  -11.2787    3.9677 H         1 <0>         0.4429
@<TRIPOS>BOND
     1    1    2 1
     2    1   25 1
     3    1   26 1
     4    1   27 1
     5    2    7 1
     6    2    3 1
     7    3    4 1
     8    3   28 1
     9    3   29 1
    10    4    5 1
    11    4   30 1
    12    4   31 1
    13    5    6 1
    14    5    8 1
    15    6    7 1
    16    6   32 1
    17    6   33 1
    18    7   34 1
    19    7   35 1
    20    8   13 ar
    21    8    9 ar
    22    9   10 ar
    23    9   36 1
    24   10   11 ar
    25   10   37 1
    26   11   12 ar
    27   11   14 1
    28   12   13 ar
    29   12   38 1
    30   13   39 1
    31   14   15 1
    32   14   40 1
    33   15   20 ar
    34   15   16 ar
    35   16   17 ar
    36   16   41 1
    37   17   18 ar
    38   17   42 1
    39   18   19 ar
    40   18   47 1
    41   19   24 ar
    42   19   20 ar
    43   20   21 ar
    44   21   22 ar
    45   21   43 1
    46   22   23 ar
    47   22   44 1
    48   23   24 ar
    49   23   45 1
    50   24   46 1
@<TRIPOS>MOLECULE
ZINC13585593
   41    43     0     0     0
SMALL
USER_CHARGES
2-[(1R)-1-[2-(3-nitrophenyl)phenoxy]ethyl]-4,5-dihydro-1H-imidazole
@<TRIPOS>ATOM
      1 C1         -3.8024    6.3654   -1.8885 C.3       1 <0>        -0.2016
      2 C2         -2.4828    6.1178   -2.6222 C.3       1 <0>         0.1003
      3 H1         -2.0108    7.0728   -2.8531 H         1 <0>         0.1342
      4 C3         -2.7523    5.3683   -3.9015 C.cat     1 <0>         0.5175
      5 C4         -3.8302    4.1361   -5.4590 C.3       1 <0>         0.0508
      6 C5         -2.4229    4.4709   -5.9934 C.3       1 <0>         0.0636
      7 N1         -1.8325    5.2642   -4.9017 N.pl3     1 <0>        -0.6482
      8 O1         -1.6137    5.3453   -1.7916 O.3       1 <0>        -0.2952
      9 C6         -0.8603    6.0241   -0.8877 C.ar      1 <0>         0.1240
     10 C7         -1.0356    7.3887   -0.7211 C.ar      1 <0>        -0.2027
     11 C8         -0.2649    8.0789    0.1949 C.ar      1 <0>        -0.0654
     12 C9          0.6812    7.4128    0.9541 C.ar      1 <0>        -0.1312
     13 C10         0.8628    6.0533    0.8019 C.ar      1 <0>        -0.0602
     14 C11         0.0913    5.3477   -0.1187 C.ar      1 <0>        -0.0710
     15 C12         0.2829    3.8865   -0.2866 C.ar      1 <0>        -0.0405
     16 C13        -0.8153    3.0287   -0.2540 C.ar      1 <0>        -0.0494
     17 C14        -0.6317    1.6706   -0.4151 C.ar      1 <0>        -0.1155
     18 C15         0.6406    1.1589   -0.5986 C.ar      1 <0>        -0.0514
     19 C16         1.7338    2.0054   -0.6323 C.ar      1 <0>        -0.0377
     20 C17         1.5614    3.3661   -0.4770 C.ar      1 <0>        -0.0455
     21 N2          3.0913    1.4511   -0.8347 N.pl3     1 <0>         0.0219
     22 O2          3.2447    0.2506   -0.9714 O.2       1 <0>        -0.1484
     23 O3          4.0548    2.1955   -0.8645 O.3       1 <0>        -0.1514
     24 H2         -3.6075    6.9075   -0.9632 H         1 <0>         0.1079
     25 H3         -4.4654    6.9546   -2.5221 H         1 <0>         0.0952
     26 H4         -4.2745    5.4105   -1.6576 H         1 <0>         0.0846
     27 H5         -4.5968    4.5577   -6.1092 H         1 <0>         0.1333
     28 H6         -3.9574    3.0577   -5.3651 H         1 <0>         0.1325
     29 H7         -2.4881    5.0616   -6.9071 H         1 <0>         0.1274
     30 H8         -1.8482    3.5603   -6.1623 H         1 <0>         0.1260
     31 H9         -0.9414    5.6474   -4.8959 H         1 <0>         0.4598
     32 H10        -1.7726    7.9138   -1.3105 H         1 <0>         0.1350
     33 H11        -0.4018    9.1429    0.3192 H         1 <0>         0.1380
     34 H12         1.2798    7.9590    1.6681 H         1 <0>         0.1396
     35 H13         1.6026    5.5370    1.3956 H         1 <0>         0.1411
     36 H14        -1.8085    3.4267   -0.1071 H         1 <0>         0.1409
     37 H15        -1.4822    1.0054   -0.3938 H         1 <0>         0.1504
     38 H16         0.7801    0.0949   -0.7206 H         1 <0>         0.1575
     39 H17         2.4158    4.0262   -0.5035 H         1 <0>         0.1562
     40 N3         -3.8673    4.7724   -4.1315 N.pl3     1 <0>        -0.5995
     41 H18        -4.6652    4.7440   -3.4859 H         1 <0>         0.4775
@<TRIPOS>BOND
     1    1    2 1
     2    1   24 1
     3    1   25 1
     4    1   26 1
     5    2    3 1
     6    2    4 1
     7    2    8 1
     8    4    7 1
     9    4   40 2
    10    5    6 1
    11    5   27 1
    12    5   28 1
    13    5   40 1
    14    6    7 1
    15    6   29 1
    16    6   30 1
    17    7   31 1
    18    8    9 1
    19    9   14 ar
    20    9   10 ar
    21   10   11 ar
    22   10   32 1
    23   11   12 ar
    24   11   33 1
    25   12   13 ar
    26   12   34 1
    27   13   14 ar
    28   13   35 1
    29   14   15 1
    30   15   20 ar
    31   15   16 ar
    32   16   17 ar
    33   16   36 1
    34   17   18 ar
    35   17   37 1
    36   18   19 ar
    37   18   38 1
    38   19   20 ar
    39   19   21 1
    40   20   39 1
    41   21   22 2
    42   21   23 1
    43   40   41 1
@<TRIPOS>MOLECULE
ZINC04096846
   73    77     0     0     0
SMALL
USER_CHARGES

@<TRIPOS>ATOM
      1 C1          1.0701    1.1532    0.3836 C.3       1 <0>        -0.1507
      2 C2          0.9009   -0.3664    0.3292 C.3       1 <0>         0.0594
      3 H1         -0.1599   -0.6126    0.2822 H         1 <0>         0.0749
      4 C3          1.6077   -0.9147   -0.9132 C.3       1 <0>         0.0905
      5 H2          2.6606   -0.6339   -0.8869 H         1 <0>         0.0793
      6 C4          1.4853   -2.4415   -0.9286 C.3       1 <0>         0.1263
      7 H3          0.4349   -2.7223   -1.0049 H         1 <0>         0.0821
      8 C5          2.0729   -3.0030    0.3698 C.3       1 <0>         0.0635
      9 H4          1.9400   -4.0846    0.3919 H         1 <0>         0.0803
     10 C6          1.3481   -2.3741    1.5626 C.3       1 <0>         0.2160
     11 H5          1.7908   -2.7377    2.4899 H         1 <0>         0.1095
     12 O1          1.4746   -0.9520    1.4997 O.3       1 <0>        -0.3728
     13 O2         -0.0349   -2.7317    1.5225 O.3       1 <0>        -0.3871
     14 C7         -0.7831   -2.2879    2.6561 C.3       1 <0>         0.0806
     15 C8         -2.2420   -2.7241    2.5069 C.3       1 <0>         0.1136
     16 H6         -2.6348   -2.3603    1.5574 H         1 <0>         0.0811
     17 C9         -3.0686   -2.1439    3.6574 C.3       1 <0>         0.0918
     18 H7         -2.6515   -2.4746    4.6086 H         1 <0>         0.0805
     19 C10        -4.5147   -2.6339    3.5346 C.3       1 <0>         0.0866
     20 H8         -4.9482   -2.2618    2.6063 H         1 <0>         0.0780
     21 C11        -4.5242   -4.1657    3.5267 C.3       1 <0>         0.0647
     22 H9         -4.1365   -4.5372    4.4752 H         1 <0>         0.0841
     23 C12        -3.6413   -4.6678    2.3812 C.3       1 <0>         0.2212
     24 H10        -4.0526   -4.3296    1.4301 H         1 <0>         0.0797
     25 O3         -2.3185   -4.1507    2.5390 O.3       1 <0>        -0.3754
     26 O4         -3.6006   -6.0961    2.4018 O.3       1 <0>        -0.2712
     27 C13        -3.0312   -6.7134    1.3309 C.2       1 <0>        -0.0839
     28 C14        -3.6374   -6.6287    0.0508 C.2       1 <0>         0.4099
     29 O5         -4.6734   -6.0063   -0.1204 O.2       1 <0>        -0.4388
     30 C15        -2.9680   -7.3200   -1.0626 C.ar      1 <0>        -0.2615
     31 C16        -3.4962   -7.2886   -2.3601 C.ar      1 <0>         0.2230
     32 C17        -2.8376   -7.9502   -3.3794 C.ar      1 <0>        -0.2028
     33 C18        -1.6594   -8.6415   -3.1170 C.ar      1 <0>         0.1972
     34 C19        -1.1311   -8.6770   -1.8363 C.ar      1 <0>        -0.1809
     35 C20        -1.7771   -8.0194   -0.8003 C.ar      1 <0>         0.1793
     36 O6         -1.2750   -8.0442    0.4521 O.3       1 <0>        -0.2031
     37 C21        -1.8714   -7.4133    1.4781 C.2       1 <0>         0.2017
     38 C22        -1.2508   -7.4861    2.8137 C.ar      1 <0>        -0.0551
     39 C23        -2.0272   -7.8078    3.9305 C.ar      1 <0>        -0.0511
     40 C24        -1.4451   -7.8758    5.1780 C.ar      1 <0>        -0.1346
     41 C25        -0.0883   -7.6255    5.3289 C.ar      1 <0>         0.1099
     42 C26         0.6922   -7.3041    4.2198 C.ar      1 <0>         0.0766
     43 C27         0.1167   -7.2392    2.9653 C.ar      1 <0>        -0.0826
     44 O7          2.0213   -7.0594    4.3716 O.3       1 <0>        -0.4838
     45 O8          0.4805   -7.6934    6.5610 O.3       1 <0>        -0.4855
     46 O9         -1.0210   -9.2883   -4.1255 O.3       1 <0>        -0.4863
     47 O10        -4.6461   -6.6139   -2.6139 O.3       1 <0>        -0.4714
     48 O11        -5.8615   -4.6340    3.3411 O.3       1 <0>        -0.5504
     49 O12        -5.2775   -2.1552    4.6440 O.3       1 <0>        -0.5540
     50 O13        -3.0398   -0.7166    3.5938 O.3       1 <0>        -0.5490
     51 O14         3.4659   -2.6915    0.4375 O.3       1 <0>        -0.5329
     52 O15         2.2032   -2.9673   -2.0468 O.3       1 <0>        -0.5421
     53 O16         0.9984   -0.3736   -2.0870 O.3       1 <0>        -0.5512
     54 H11         2.1310    1.3992    0.4306 H         1 <0>         0.0686
     55 H12         0.6328    1.5997   -0.5094 H         1 <0>         0.0753
     56 H13         0.5672    1.5434    1.2685 H         1 <0>         0.0731
     57 H14        -0.3639   -2.7256    3.5621 H         1 <0>         0.0644
     58 H15        -0.7337   -1.2010    2.7213 H         1 <0>         0.0897
     59 H16        -3.2390   -7.9307   -4.3818 H         1 <0>         0.1523
     60 H17        -0.2156   -9.2171   -1.6450 H         1 <0>         0.1553
     61 H18        -3.0833   -8.0028    3.8159 H         1 <0>         0.1412
     62 H19        -2.0462   -8.1242    6.0401 H         1 <0>         0.1434
     63 H20         0.7212   -6.9942    2.1045 H         1 <0>         0.1387
     64 H21         2.5780   -7.8457    4.2884 H         1 <0>         0.3899
     65 H22         0.8174   -8.5702    6.7909 H         1 <0>         0.3933
     66 H23        -0.3693   -8.7458   -4.5904 H         1 <0>         0.4053
     67 H24        -4.5129   -5.6882   -2.8597 H         1 <0>         0.4039
     68 H25        -5.9422   -5.5975    3.3259 H         1 <0>         0.3947
     69 H26        -6.2051   -2.4283    4.6308 H         1 <0>         0.3960
     70 H27        -3.5443   -0.2814    4.2946 H         1 <0>         0.3955
     71 H28         3.9035   -3.0176    1.2358 H         1 <0>         0.3815
     72 H29         2.1683   -3.9310   -2.1187 H         1 <0>         0.3758
     73 H30         1.0357    0.5912   -2.1405 H         1 <0>         0.3788
@<TRIPOS>BOND
     1    1    2 1
     2    1   54 1
     3    1   55 1
     4    1   56 1
     5    2    3 1
     6    2   12 1
     7    2    4 1
     8    4    5 1
     9    4    6 1
    10    4   53 1
    11    6    7 1
    12    6    8 1
    13    6   52 1
    14    8    9 1
    15    8   10 1
    16    8   51 1
    17   10   11 1
    18   10   12 1
    19   10   13 1
    20   13   14 1
    21   14   15 1
    22   14   57 1
    23   14   58 1
    24   15   16 1
    25   15   25 1
    26   15   17 1
    27   17   18 1
    28   17   19 1
    29   17   50 1
    30   19   20 1
    31   19   21 1
    32   19   49 1
    33   21   22 1
    34   21   23 1
    35   21   48 1
    36   23   24 1
    37   23   25 1
    38   23   26 1
    39   26   27 1
    40   27   37 2
    41   27   28 1
    42   28   29 2
    43   28   30 1
    44   30   35 ar
    45   30   31 ar
    46   31   32 ar
    47   31   47 1
    48   32   33 ar
    49   32   59 1
    50   33   34 ar
    51   33   46 1
    52   34   35 ar
    53   34   60 1
    54   35   36 1
    55   36   37 1
    56   37   38 1
    57   38   43 ar
    58   38   39 ar
    59   39   40 ar
    60   39   61 1
    61   40   41 ar
    62   40   62 1
    63   41   42 ar
    64   41   45 1
    65   42   43 ar
    66   42   44 1
    67   43   63 1
    68   44   64 1
    69   45   65 1
    70   46   66 1
    71   47   67 1
    72   48   68 1
    73   49   69 1
    74   50   70 1
    75   51   71 1
    76   52   72 1
    77   53   73 1
@<TRIPOS>MOLECULE
ZINC03917109
   63    66     0     0     0
SMALL
USER_CHARGES

@<TRIPOS>ATOM
      1 C1         -0.0173    1.4248    0.0099 C.3       1 <0>         0.0228
      2 O1          0.0021   -0.0041    0.0020 O.3       1 <0>        -0.3111
      3 C2          0.6063   -0.6076   -1.0566 C.ar      1 <0>         0.1291
      4 C3          1.1727    0.1584   -2.0619 C.ar      1 <0>        -0.2022
      5 C4          1.7862   -0.4565   -3.1379 C.ar      1 <0>        -0.0669
      6 C5          1.8369   -1.8361   -3.2138 C.ar      1 <0>        -0.1491
      7 C6          1.2745   -2.6077   -2.2144 C.ar      1 <0>        -0.0822
      8 C7          0.6620   -1.9977   -1.1294 C.ar      1 <0>         0.1088
      9 N1          0.0968   -2.7768   -0.1132 N.pl3     1 <0>        -0.6636
     10 C8         -1.3057   -3.2146   -0.1871 C.3       1 <0>         0.1216
     11 C9         -1.3569   -4.7253    0.0636 C.3       1 <0>        -0.0220
     12 N2         -0.6925   -5.0320    1.3366 N.4       1 <0>        -0.3806
     13 C10         0.7338   -4.6939    1.2505 C.3       1 <0>        -0.0274
     14 C11         0.8902   -3.1864    1.0559 C.3       1 <0>         0.1218
     15 C12        -0.8376   -6.4641    1.6301 C.3       1 <0>        -0.0087
     16 C13        -0.2558   -6.7628    3.0132 C.3       1 <0>        -0.1461
     17 C14        -0.4069   -8.2543    3.3189 C.3       1 <0>        -0.1300
     18 C15         0.1750   -8.5530    4.7020 C.3       1 <0>         0.1193
     19 N3          0.0302   -9.9811    4.9947 N.am      1 <0>        -0.7331
     20 C16         0.4752  -10.4775    6.1660 C.2       1 <0>         0.5643
     21 O2          0.9967   -9.7401    6.9797 O.2       1 <0>        -0.5315
     22 C17         0.3293  -11.9181    6.4612 C.ar      1 <0>        -0.1484
     23 C18        -0.2697  -12.7675    5.5136 C.ar      1 <0>        -0.0967
     24 C19        -0.4150  -14.0939    5.7614 C.ar      1 <0>        -0.1051
     25 C20         0.0356  -14.6361    6.9791 C.ar      1 <0>        -0.0320
     26 C21        -0.1038  -16.0058    7.2582 C.ar      1 <0>        -0.1147
     27 C22         0.3421  -16.5017    8.4450 C.ar      1 <0>        -0.0983
     28 C23         0.9368  -15.6705    9.3925 C.ar      1 <0>        -0.1143
     29 C24         1.0892  -14.3386    9.1579 C.ar      1 <0>        -0.0963
     30 C25         0.6411  -13.7901    7.9427 C.ar      1 <0>        -0.0651
     31 C26         0.7884  -12.4225    7.6665 C.ar      1 <0>        -0.0245
     32 H1          1.0053    1.8021    0.0021 H         1 <0>         0.0589
     33 H2         -0.5445    1.7859   -0.8732 H         1 <0>         0.0589
     34 H3         -0.5275    1.7763    0.9067 H         1 <0>         0.1037
     35 H4          1.1348    1.2363   -2.0057 H         1 <0>         0.1341
     36 H5          2.2267    0.1425   -3.9212 H         1 <0>         0.1320
     37 H6          2.3168   -2.3119   -4.0562 H         1 <0>         0.1305
     38 H7          1.3151   -3.6852   -2.2764 H         1 <0>         0.1264
     39 H8         -1.8914   -2.6971    0.5728 H         1 <0>         0.0778
     40 H9         -1.7068   -2.9936   -1.1762 H         1 <0>         0.1138
     41 H10        -2.3961   -5.0513    0.1082 H         1 <0>         0.1357
     42 H11        -0.8470   -5.2457   -0.7471 H         1 <0>         0.1295
     43 H12         1.2353   -4.9969    2.1697 H         1 <0>         0.1375
     44 H13         1.1804   -5.2153    0.4039 H         1 <0>         0.1298
     45 H14         1.9402   -2.9468    0.8881 H         1 <0>         0.1137
     46 H15         0.5300   -2.6661    1.9434 H         1 <0>         0.0774
     47 H16        -1.8938   -6.7330    1.6144 H         1 <0>         0.1318
     48 H17        -0.3036   -7.0450    0.8781 H         1 <0>         0.1294
     49 H18         0.8004   -6.4939    3.0289 H         1 <0>         0.0916
     50 H19        -0.7898   -6.1819    3.7652 H         1 <0>         0.0922
     51 H20        -1.4631   -8.5232    3.3032 H         1 <0>         0.0826
     52 H21         0.1271   -8.8352    2.5669 H         1 <0>         0.0820
     53 H22         1.2312   -8.2841    4.7177 H         1 <0>         0.0723
     54 H23        -0.3590   -7.9721    5.4540 H         1 <0>         0.0726
     55 H24        -0.3859  -10.5695    4.3454 H         1 <0>         0.4021
     56 H25        -0.6188  -12.3588    4.5768 H         1 <0>         0.1223
     57 H26        -0.8770  -14.7335    5.0239 H         1 <0>         0.1343
     58 H27        -0.5632  -16.6627    6.5343 H         1 <0>         0.1320
     59 H28         0.2331  -17.5553    8.6557 H         1 <0>         0.1293
     60 H29         1.2814  -16.0892   10.3264 H         1 <0>         0.1298
     61 H30         1.5515  -13.7060    9.9012 H         1 <0>         0.1331
     62 H31         1.2517  -11.7677    8.3897 H         1 <0>         0.1429
     63 H32        -1.1202   -4.4947    2.0759 H         1 <0>         0.4226
@<TRIPOS>BOND
     1    1    2 1
     2    1   32 1
     3    1   33 1
     4    1   34 1
     5    2    3 1
     6    3    8 ar
     7    3    4 ar
     8    4    5 ar
     9    4   35 1
    10    5    6 ar
    11    5   36 1
    12    6    7 ar
    13    6   37 1
    14    7    8 ar
    15    7   38 1
    16    8    9 1
    17    9   14 1
    18    9   10 1
    19   10   11 1
    20   10   39 1
    21   10   40 1
    22   11   12 1
    23   11   41 1
    24   11   42 1
    25   12   13 1
    26   12   15 1
    27   12   63 1
    28   13   14 1
    29   13   43 1
    30   13   44 1
    31   14   45 1
    32   14   46 1
    33   15   16 1
    34   15   47 1
    35   15   48 1
    36   16   17 1
    37   16   49 1
    38   16   50 1
    39   17   18 1
    40   17   51 1
    41   17   52 1
    42   18   19 1
    43   18   53 1
    44   18   54 1
    45   19   20 am
    46   19   55 1
    47   20   21 2
    48   20   22 1
    49   22   31 ar
    50   22   23 ar
    51   23   24 ar
    52   23   56 1
    53   24   25 ar
    54   24   57 1
    55   25   30 ar
    56   25   26 ar
    57   26   27 ar
    58   26   58 1
    59   27   28 ar
    60   27   59 1
    61   28   29 ar
    62   28   60 1
    63   29   30 ar
    64   29   61 1
    65   30   31 ar
    66   31   62 1
@<TRIPOS>MOLECULE
ZINC03917109
   62    65     0     0     0
SMALL
USER_CHARGES

@<TRIPOS>ATOM
      1 C1         -0.0173    1.4248    0.0099 C.3       1 <0>         0.0251
      2 O1          0.0021   -0.0041    0.0020 O.3       1 <0>        -0.3039
      3 C2         -1.2013   -0.6380    0.0101 C.ar      1 <0>         0.1197
      4 C3         -2.3740    0.0989    0.0195 C.ar      1 <0>        -0.2065
      5 C4         -3.5967   -0.5469    0.0283 C.ar      1 <0>        -0.0836
      6 C5         -3.6532   -1.9283    0.0271 C.ar      1 <0>        -0.1523
      7 C6         -2.4875   -2.6710    0.0173 C.ar      1 <0>        -0.0882
      8 C7         -1.2572   -2.0300    0.0032 C.ar      1 <0>         0.1390
      9 N1         -0.0754   -2.7797   -0.0127 N.pl3     1 <0>        -0.6683
     10 C8          0.5713   -3.1961    1.2410 C.3       1 <0>         0.1532
     11 C9          0.8354   -4.7041    1.1750 C.3       1 <0>         0.0416
     12 N2          1.5913   -5.0126   -0.0462 N.3       1 <0>        -0.5348
     13 C10         0.8175   -4.6811   -1.2500 C.3       1 <0>         0.0379
     14 C11         0.5494   -3.1773   -1.2834 C.3       1 <0>         0.1529
     15 C12         2.0135   -6.4196   -0.0626 C.3       1 <0>         0.0570
     16 C13         2.9994   -6.6428   -1.2111 C.3       1 <0>        -0.1132
     17 C14         3.4391   -8.1081   -1.2283 C.3       1 <0>        -0.1303
     18 C15         4.4250   -8.3314   -2.3768 C.3       1 <0>         0.1194
     19 N3          4.8460   -9.7345   -2.3932 N.am      1 <0>        -0.7276
     20 C16         5.7188  -10.1653   -3.3255 C.2       1 <0>         0.5586
     21 O2          6.1567   -9.3896   -4.1527 O.2       1 <0>        -0.5351
     22 C17         6.1435  -11.5806   -3.3420 C.ar      1 <0>        -0.1394
     23 C18         5.6291  -12.4748   -2.3860 C.ar      1 <0>        -0.0931
     24 C19         6.0037  -13.7793   -2.3806 C.ar      1 <0>        -0.1083
     25 C20         6.9183  -14.2530   -3.3393 C.ar      1 <0>        -0.0339
     26 C21         7.3209  -15.5988   -3.3538 C.ar      1 <0>        -0.1133
     27 C22         8.2070  -16.0282   -4.2939 C.ar      1 <0>        -0.1034
     28 C23         8.7244  -15.1520   -5.2462 C.ar      1 <0>        -0.1183
     29 C24         8.3580  -13.8415   -5.2638 C.ar      1 <0>        -0.0955
     30 C25         7.4441  -13.3613   -4.3084 C.ar      1 <0>        -0.0641
     31 C26         7.0406  -12.0176   -4.3023 C.ar      1 <0>        -0.0303
     32 H1          1.0053    1.8021    0.0021 H         1 <0>         0.0993
     33 H2         -0.5445    1.7859   -0.8732 H         1 <0>         0.0537
     34 H3         -0.5275    1.7763    0.9067 H         1 <0>         0.0537
     35 H4         -2.3335    1.1781    0.0204 H         1 <0>         0.1277
     36 H5         -4.5101    0.0293    0.0363 H         1 <0>         0.1245
     37 H6         -4.6104   -2.4284    0.0343 H         1 <0>         0.1238
     38 H7         -2.5344   -3.7500    0.0168 H         1 <0>         0.1249
     39 H8          1.5150   -2.6639    1.3604 H         1 <0>         0.0581
     40 H9         -0.0855   -2.9758    2.0825 H         1 <0>         0.0690
     41 H10         1.4125   -5.0108    2.0473 H         1 <0>         0.0793
     42 H11        -0.1140   -5.2393    1.1600 H         1 <0>         0.0339
     43 H12         1.3817   -4.9710   -2.1364 H         1 <0>         0.0831
     44 H13        -0.1317   -5.2166   -1.2312 H         1 <0>         0.0333
     45 H14        -0.1219   -2.9447   -2.1101 H         1 <0>         0.0686
     46 H15         1.4910   -2.6433   -1.4113 H         1 <0>         0.0577
     47 H16         2.4960   -6.6652    0.8834 H         1 <0>         0.0748
     48 H17         1.1418   -7.0588   -0.2026 H         1 <0>         0.0322
     49 H18         2.5169   -6.3971   -2.1571 H         1 <0>         0.0668
     50 H19         3.8711   -6.0035   -1.0711 H         1 <0>         0.0766
     51 H20         3.9216   -8.3538   -0.2823 H         1 <0>         0.0712
     52 H21         2.5674   -8.7474   -1.3683 H         1 <0>         0.0684
     53 H22         3.9425   -8.0857   -3.3228 H         1 <0>         0.0696
     54 H23         5.2967   -7.6921   -2.2368 H         1 <0>         0.0713
     55 H24         4.4966  -10.3534   -1.7332 H         1 <0>         0.4001
     56 H25         4.9272  -12.1188   -1.6463 H         1 <0>         0.1252
     57 H26         5.6001  -14.4539   -1.6401 H         1 <0>         0.1336
     58 H27         6.9294  -16.2899   -2.6219 H         1 <0>         0.1303
     59 H28         8.5140  -17.0636   -4.3016 H         1 <0>         0.1266
     60 H29         9.4265  -15.5182   -5.9806 H         1 <0>         0.1272
     61 H30         8.7671  -13.1735   -6.0073 H         1 <0>         0.1318
     62 H31         7.4298  -11.3288   -5.0374 H         1 <0>         0.1429
@<TRIPOS>BOND
     1    1    2 1
     2    1   32 1
     3    1   33 1
     4    1   34 1
     5    2    3 1
     6    3    8 ar
     7    3    4 ar
     8    4    5 ar
     9    4   35 1
    10    5    6 ar
    11    5   36 1
    12    6    7 ar
    13    6   37 1
    14    7    8 ar
    15    7   38 1
    16    8    9 1
    17    9   14 1
    18    9   10 1
    19   10   11 1
    20   10   39 1
    21   10   40 1
    22   11   12 1
    23   11   41 1
    24   11   42 1
    25   12   13 1
    26   12   15 1
    27   13   14 1
    28   13   43 1
    29   13   44 1
    30   14   45 1
    31   14   46 1
    32   15   16 1
    33   15   47 1
    34   15   48 1
    35   16   17 1
    36   16   49 1
    37   16   50 1
    38   17   18 1
    39   17   51 1
    40   17   52 1
    41   18   19 1
    42   18   53 1
    43   18   54 1
    44   19   20 am
    45   19   55 1
    46   20   21 2
    47   20   22 1
    48   22   31 ar
    49   22   23 ar
    50   23   24 ar
    51   23   56 1
    52   24   25 ar
    53   24   57 1
    54   25   30 ar
    55   25   26 ar
    56   26   27 ar
    57   26   58 1
    58   27   28 ar
    59   27   59 1
    60   28   29 ar
    61   28   60 1
    62   29   30 ar
    63   29   61 1
    64   30   31 ar
    65   31   62 1
@<TRIPOS>MOLECULE
ZINC02169422
   49    51     0     0     0
SMALL
USER_CHARGES

@<TRIPOS>ATOM
      1 C1         -0.0173    1.4248    0.0099 C.3       1 <0>         0.0220
      2 O1          0.0021   -0.0041    0.0020 O.3       1 <0>        -0.3158
      3 C2          0.6263   -0.6188    1.0422 C.ar      1 <0>         0.1556
      4 C3          1.2023    0.1379    2.0514 C.ar      1 <0>        -0.2329
      5 C4          1.8370   -0.4860    3.1091 C.ar      1 <0>        -0.0259
      6 C5          1.9002   -1.8657    3.1656 C.ar      1 <0>        -0.2322
      7 C6          1.3266   -2.6296    2.1604 C.ar      1 <0>         0.1603
      8 C7          0.6826   -2.0063    1.0982 C.ar      1 <0>         0.0101
      9 O2          0.1135   -2.7526    0.1126 O.3       1 <0>        -0.3151
     10 C8          0.9387   -3.0899   -1.0043 C.3       1 <0>         0.0248
     11 C9          0.1318   -3.9245   -2.0009 C.3       1 <0>         0.0027
     12 N1         -0.9570   -3.1085   -2.5546 N.4       1 <0>        -0.5070
     13 C10        -1.7317   -3.9098   -3.5115 C.3       1 <0>         0.0060
     14 C11        -2.8656   -3.0599   -4.0881 C.3       1 <0>         0.0197
     15 H1         -2.4506   -2.1903   -4.5978 H         1 <0>         0.1086
     16 C12        -3.6875   -3.8964   -5.0780 C.3       1 <0>         0.0336
     17 O3         -4.7457   -3.0771   -5.5867 O.3       1 <0>        -0.2940
     18 C13        -5.4491   -2.3511   -4.6753 C.ar      1 <0>         0.0502
     19 C14        -6.6865   -1.8324   -5.0268 C.ar      1 <0>        -0.1085
     20 C15        -7.4109   -1.0903   -4.1134 C.ar      1 <0>        -0.1000
     21 C16        -6.9048   -0.8632   -2.8471 C.ar      1 <0>        -0.1093
     22 C17        -5.6732   -1.3784   -2.4899 C.ar      1 <0>        -0.1051
     23 C18        -4.9414   -2.1250   -3.4015 C.ar      1 <0>         0.0395
     24 O4         -3.7333   -2.6322   -3.0325 O.3       1 <0>        -0.3160
     25 O5          1.3897   -3.9870    2.2166 O.3       1 <0>        -0.3070
     26 C19         2.0623   -4.5592    3.3400 C.3       1 <0>         0.0218
     27 H2          1.0053    1.8021    0.0021 H         1 <0>         0.0625
     28 H3         -0.5445    1.7859   -0.8732 H         1 <0>         0.1060
     29 H4         -0.5275    1.7763    0.9067 H         1 <0>         0.0643
     30 H5          1.1554    1.2161    2.0107 H         1 <0>         0.1408
     31 H6          2.2850    0.1061    3.8934 H         1 <0>         0.1398
     32 H7          2.3972   -2.3494    3.9934 H         1 <0>         0.1417
     33 H8          1.2835   -2.1771   -1.4901 H         1 <0>         0.0771
     34 H9          1.7981   -3.6654   -0.6604 H         1 <0>         0.1012
     35 H10         0.7840   -4.2565   -2.8087 H         1 <0>         0.1485
     36 H11        -0.2873   -4.7927   -1.4923 H         1 <0>         0.1435
     37 H12        -1.5607   -2.8012   -1.8068 H         1 <0>         0.4445
     38 H13        -1.0795   -4.2418   -4.3193 H         1 <0>         0.1556
     39 H14        -2.1508   -4.7780   -3.0028 H         1 <0>         0.1460
     40 H15        -3.0503   -4.2255   -5.8989 H         1 <0>         0.1319
     41 H16        -4.1068   -4.7633   -4.5672 H         1 <0>         0.0891
     42 H17        -7.0840   -2.0082   -6.0155 H         1 <0>         0.1416
     43 H18        -8.3743   -0.6875   -4.3892 H         1 <0>         0.1408
     44 H19        -7.4727   -0.2818   -2.1359 H         1 <0>         0.1399
     45 H20        -5.2800   -1.1994   -1.5001 H         1 <0>         0.1376
     46 H21         2.0404   -5.6461    3.2617 H         1 <0>         0.1081
     47 H22         3.0971   -4.2169    3.3570 H         1 <0>         0.0620
     48 H23         1.5626   -4.2509    4.2584 H         1 <0>         0.0634
     49 H24        -0.5690   -2.3048   -3.0254 H         1 <0>         0.4279
@<TRIPOS>BOND
     1    1    2 1
     2    1   27 1
     3    1   28 1
     4    1   29 1
     5    2    3 1
     6    3    8 ar
     7    3    4 ar
     8    4    5 ar
     9    4   30 1
    10    5    6 ar
    11    5   31 1
    12    6    7 ar
    13    6   32 1
    14    7    8 ar
    15    7   25 1
    16    8    9 1
    17    9   10 1
    18   10   11 1
    19   10   33 1
    20   10   34 1
    21   11   12 1
    22   11   35 1
    23   11   36 1
    24   12   13 1
    25   12   37 1
    26   12   49 1
    27   13   14 1
    28   13   38 1
    29   13   39 1
    30   14   15 1
    31   14   24 1
    32   14   16 1
    33   16   17 1
    34   16   40 1
    35   16   41 1
    36   17   18 1
    37   18   23 ar
    38   18   19 ar
    39   19   20 ar
    40   19   42 1
    41   20   21 ar
    42   20   43 1
    43   21   22 ar
    44   21   44 1
    45   22   23 ar
    46   22   45 1
    47   23   24 1
    48   25   26 1
    49   26   46 1
    50   26   47 1
    51   26   48 1
@<TRIPOS>MOLECULE
ZINC02169424
   49    51     0     0     0
SMALL
USER_CHARGES

@<TRIPOS>ATOM
      1 C1         -0.0173    1.4248    0.0099 C.3       1 <0>         0.0220
      2 O1          0.0021   -0.0041    0.0020 O.3       1 <0>        -0.3161
      3 C2          0.6263   -0.6188    1.0422 C.ar      1 <0>         0.1555
      4 C3          1.2023    0.1379    2.0514 C.ar      1 <0>        -0.2328
      5 C4          1.8370   -0.4860    3.1091 C.ar      1 <0>        -0.0256
      6 C5          1.9002   -1.8657    3.1656 C.ar      1 <0>        -0.2321
      7 C6          1.3266   -2.6296    2.1604 C.ar      1 <0>         0.1604
      8 C7          0.6826   -2.0063    1.0982 C.ar      1 <0>         0.0097
      9 O2          0.1135   -2.7526    0.1126 O.3       1 <0>        -0.3164
     10 C8          0.9387   -3.0899   -1.0043 C.3       1 <0>         0.0247
     11 C9          0.1318   -3.9245   -2.0009 C.3       1 <0>         0.0033
     12 N1         -0.9570   -3.1085   -2.5546 N.4       1 <0>        -0.5074
     13 C10        -1.7317   -3.9098   -3.5115 C.3       1 <0>         0.0060
     14 C11        -2.8656   -3.0599   -4.0881 C.3       1 <0>         0.0198
     15 H1         -3.4690   -2.6528   -3.2767 H         1 <0>         0.1089
     16 C12        -3.7445   -3.9223   -5.0040 C.3       1 <0>         0.0338
     17 O3         -4.7846   -3.0948   -5.5364 O.3       1 <0>        -0.2938
     18 C13        -4.4107   -1.8796   -6.0222 C.ar      1 <0>         0.0506
     19 C14        -5.2702   -1.1893   -6.8640 C.ar      1 <0>        -0.1082
     20 C15        -4.9061    0.0471   -7.3627 C.ar      1 <0>        -0.0999
     21 C16        -3.6849    0.5995   -7.0236 C.ar      1 <0>        -0.1096
     22 C17        -2.8233   -0.0837   -6.1866 C.ar      1 <0>        -0.1058
     23 C18        -3.1817   -1.3259   -5.6843 C.ar      1 <0>         0.0388
     24 O4         -2.3191   -1.9901   -4.8670 O.3       1 <0>        -0.3164
     25 O5          1.3897   -3.9870    2.2166 O.3       1 <0>        -0.3071
     26 C19         2.0623   -4.5592    3.3400 C.3       1 <0>         0.0218
     27 H2          1.0053    1.8021    0.0021 H         1 <0>         0.0628
     28 H3         -0.5445    1.7859   -0.8732 H         1 <0>         0.1064
     29 H4         -0.5275    1.7763    0.9067 H         1 <0>         0.0642
     30 H5          1.1554    1.2161    2.0107 H         1 <0>         0.1409
     31 H6          2.2850    0.1061    3.8934 H         1 <0>         0.1399
     32 H7          2.3972   -2.3494    3.9934 H         1 <0>         0.1418
     33 H8          1.2835   -2.1771   -1.4901 H         1 <0>         0.0775
     34 H9          1.7981   -3.6654   -0.6604 H         1 <0>         0.1014
     35 H10         0.7840   -4.2565   -2.8087 H         1 <0>         0.1483
     36 H11        -0.2873   -4.7927   -1.4923 H         1 <0>         0.1439
     37 H12        -1.5607   -2.8012   -1.8068 H         1 <0>         0.4373
     38 H13        -1.0795   -4.2418   -4.3193 H         1 <0>         0.1463
     39 H14        -2.1508   -4.7780   -3.0028 H         1 <0>         0.1563
     40 H15        -3.1423   -4.3253   -5.8184 H         1 <0>         0.0892
     41 H16        -4.1822   -4.7395   -4.4306 H         1 <0>         0.1322
     42 H17        -6.2248   -1.6185   -7.1302 H         1 <0>         0.1418
     43 H18        -5.5768    0.5828   -8.0181 H         1 <0>         0.1409
     44 H19        -3.4037    1.5665   -7.4138 H         1 <0>         0.1399
     45 H20        -1.8699    0.3501   -5.9233 H         1 <0>         0.1368
     46 H21         2.0404   -5.6461    3.2617 H         1 <0>         0.1082
     47 H22         3.0971   -4.2169    3.3570 H         1 <0>         0.0621
     48 H23         1.5626   -4.2509    4.2584 H         1 <0>         0.0634
     49 H24        -0.5690   -2.3048   -3.0254 H         1 <0>         0.4346
@<TRIPOS>BOND
     1    1    2 1
     2    1   27 1
     3    1   28 1
     4    1   29 1
     5    2    3 1
     6    3    8 ar
     7    3    4 ar
     8    4    5 ar
     9    4   30 1
    10    5    6 ar
    11    5   31 1
    12    6    7 ar
    13    6   32 1
    14    7    8 ar
    15    7   25 1
    16    8    9 1
    17    9   10 1
    18   10   11 1
    19   10   33 1
    20   10   34 1
    21   11   12 1
    22   11   35 1
    23   11   36 1
    24   12   13 1
    25   12   37 1
    26   12   49 1
    27   13   14 1
    28   13   38 1
    29   13   39 1
    30   14   15 1
    31   14   24 1
    32   14   16 1
    33   16   17 1
    34   16   40 1
    35   16   41 1
    36   17   18 1
    37   18   23 ar
    38   18   19 ar
    39   19   20 ar
    40   19   42 1
    41   20   21 ar
    42   20   43 1
    43   21   22 ar
    44   21   44 1
    45   22   23 ar
    46   22   45 1
    47   23   24 1
    48   25   26 1
    49   26   46 1
    50   26   47 1
    51   26   48 1
