@<TRIPOS>MOLECULE
ZINC03814313
   34    36     0     0     0
SMALL
USER_CHARGES

@<TRIPOS>ATOM
      1 C1         -0.0168    1.3861    0.0097 C.ar      1 <0>        -0.2443
      2 C2          1.1782    2.0824    0.0020 C.ar      1 <0>         0.2226
      3 N1          2.3382    1.4569   -0.0129 N.ar      1 <0>        -0.4888
      4 C3          2.4172    0.1336   -0.0208 C.ar      1 <0>         0.2727
      5 C4          1.2518   -0.6475   -0.0134 C.ar      1 <0>        -0.0190
      6 C5          0.0021   -0.0041    0.0020 C.ar      1 <0>         0.3894
      7 N2         -1.1804   -0.7364    0.0098 N.pl3     1 <0>        -0.7887
      8 N3          1.6393   -1.9475   -0.0242 N.2       1 <0>        -0.4459
      9 C6          2.9384   -2.0127   -0.0374 C.2       1 <0>         0.3051
     10 N4          3.4679   -0.7577   -0.0360 N.pl3     1 <0>        -0.4678
     11 C7          4.8929   -0.4179   -0.0487 C.3       1 <0>         0.2942
     12 H1          5.0627    0.4803   -0.6424 H         1 <0>         0.1255
     13 C8          5.4104   -0.2158    1.3927 C.3       1 <0>         0.0729
     14 H2          4.7848   -0.7569    2.1025 H         1 <0>         0.0952
     15 C9          6.8368   -0.8092    1.3661 C.3       1 <0>         0.0502
     16 H3          6.9163   -1.6437    2.0628 H         1 <0>         0.0952
     17 C10         7.0122   -1.2997   -0.0882 C.3       1 <0>         0.0495
     18 H4          7.5089   -0.5374   -0.6884 H         1 <0>         0.1065
     19 O1          5.6677   -1.5194   -0.5705 O.3       1 <0>        -0.3359
     20 C11         7.8117   -2.6039   -0.1177 C.3       1 <0>         0.0798
     21 O2          8.0625   -2.9783   -1.4737 O.3       1 <0>        -0.5648
     22 O3          7.8032    0.1960    1.6784 O.3       1 <0>        -0.5394
     23 O4          5.4496    1.1746    1.7202 O.3       1 <0>        -0.5452
     24 H5         -0.9567    1.9179    0.0260 H         1 <0>         0.1890
     25 H6          1.1605    3.1623    0.0080 H         1 <0>         0.2169
     26 H7         -2.0350   -0.2775    0.0208 H         1 <0>         0.4265
     27 H8         -1.1505   -1.7059    0.0043 H         1 <0>         0.4297
     28 H9          3.5127   -2.9273   -0.0481 H         1 <0>         0.2433
     29 H10         8.7596   -2.4607    0.4010 H         1 <0>         0.0733
     30 H11         7.2420   -3.3905    0.3770 H         1 <0>         0.0636
     31 H12         8.5663   -3.7982   -1.5686 H         1 <0>         0.3935
     32 H13         8.7164   -0.1220    1.6760 H         1 <0>         0.3967
     33 H14         5.7674    1.3592    2.6147 H         1 <0>         0.4072
     34 H15         3.1559    1.9787   -0.0185 H         1 <0>         0.4414
@<TRIPOS>BOND
     1    1    6 ar
     2    1    2 ar
     3    1   24 1
     4    2    3 ar
     5    2   25 1
     6    3    4 ar
     7    3   34 1
     8    4   10 1
     9    4    5 ar
    10    5    6 ar
    11    5    8 1
    12    6    7 1
    13    7   26 1
    14    7   27 1
    15    8    9 2
    16    9   10 1
    17    9   28 1
    18   10   11 1
    19   11   12 1
    20   11   19 1
    21   11   13 1
    22   13   14 1
    23   13   15 1
    24   13   23 1
    25   15   16 1
    26   15   17 1
    27   15   22 1
    28   17   18 1
    29   17   19 1
    30   17   20 1
    31   20   21 1
    32   20   29 1
    33   20   30 1
    34   21   31 1
    35   22   32 1
    36   23   33 1
@<TRIPOS>MOLECULE
ZINC03814313
   33    35     0     0     0
SMALL
USER_CHARGES

@<TRIPOS>ATOM
      1 C1         -0.0168    1.3861    0.0097 C.ar      1 <0>        -0.2828
      2 C2          1.1782    2.0824    0.0020 C.ar      1 <0>         0.1858
      3 N1          2.3382    1.4569   -0.0129 N.ar      1 <0>        -0.5191
      4 C3          2.4172    0.1336   -0.0208 C.ar      1 <0>         0.2915
      5 C4          1.2518   -0.6475   -0.0134 C.ar      1 <0>        -0.0681
      6 C5          0.0021   -0.0041    0.0020 C.ar      1 <0>         0.3135
      7 N2         -1.1804   -0.7364    0.0098 N.pl3     1 <0>        -0.8493
      8 N3          1.6393   -1.9475   -0.0242 N.2       1 <0>        -0.4750
      9 C6          2.9384   -2.0127   -0.0374 C.2       1 <0>         0.2645
     10 N4          3.4679   -0.7577   -0.0360 N.pl3     1 <0>        -0.4800
     11 C7          4.8929   -0.4179   -0.0487 C.3       1 <0>         0.3160
     12 H1          5.0627    0.4803   -0.6424 H         1 <0>         0.1211
     13 C8          5.4104   -0.2158    1.3927 C.3       1 <0>         0.0798
     14 H2          4.7848   -0.7569    2.1025 H         1 <0>         0.0847
     15 C9          6.8368   -0.8092    1.3661 C.3       1 <0>         0.0468
     16 H3          6.9163   -1.6437    2.0628 H         1 <0>         0.0862
     17 C10         7.0122   -1.2997   -0.0882 C.3       1 <0>         0.0504
     18 H4          7.5089   -0.5374   -0.6884 H         1 <0>         0.0994
     19 O1          5.6677   -1.5194   -0.5705 O.3       1 <0>        -0.3480
     20 C11         7.8117   -2.6039   -0.1177 C.3       1 <0>         0.0821
     21 O2          8.0625   -2.9783   -1.4737 O.3       1 <0>        -0.5634
     22 O3          7.8032    0.1960    1.6784 O.3       1 <0>        -0.5390
     23 O4          5.4496    1.1746    1.7202 O.3       1 <0>        -0.5251
     24 H5         -0.9567    1.9179    0.0260 H         1 <0>         0.1407
     25 H6          1.1605    3.1623    0.0080 H         1 <0>         0.1653
     26 H7         -2.0350   -0.2775    0.0208 H         1 <0>         0.4044
     27 H8         -1.1505   -1.7059    0.0043 H         1 <0>         0.4091
     28 H9          3.5127   -2.9273   -0.0481 H         1 <0>         0.2186
     29 H10         8.7596   -2.4607    0.4010 H         1 <0>         0.0665
     30 H11         7.2420   -3.3905    0.3770 H         1 <0>         0.0607
     31 H12         8.5663   -3.7982   -1.5686 H         1 <0>         0.3864
     32 H13         8.7164   -0.1220    1.6760 H         1 <0>         0.3867
     33 H14         5.7674    1.3592    2.6147 H         1 <0>         0.3895
@<TRIPOS>BOND
     1    1    6 ar
     2    1    2 ar
     3    1   24 1
     4    2    3 ar
     5    2   25 1
     6    3    4 ar
     7    4   10 1
     8    4    5 ar
     9    5    6 ar
    10    5    8 1
    11    6    7 1
    12    7   26 1
    13    7   27 1
    14    8    9 2
    15    9   10 1
    16    9   28 1
    17   10   11 1
    18   11   12 1
    19   11   19 1
    20   11   13 1
    21   13   14 1
    22   13   15 1
    23   13   23 1
    24   15   16 1
    25   15   17 1
    26   15   22 1
    27   17   18 1
    28   17   19 1
    29   17   20 1
    30   20   21 1
    31   20   29 1
    32   20   30 1
    33   21   31 1
    34   22   32 1
    35   23   33 1
@<TRIPOS>MOLECULE
ZINC03806262
   35    37     0     0     0
SMALL
USER_CHARGES

@<TRIPOS>ATOM
      1 C1         -0.0163    1.3522    0.0095 C.2       1 <0>         0.2156
      2 N1          1.2103    1.7869    0.0001 N.2       1 <0>        -0.4640
      3 C2          2.0633    0.7434   -0.0126 C.2       1 <0>        -0.0272
      4 C3          1.3317   -0.3961   -0.0166 C.2       1 <0>         0.2217
      5 N2          0.0021   -0.0041    0.0020 N.pl3     1 <0>        -0.4628
      6 C4         -1.1651   -0.8893    0.0125 C.3       1 <0>         0.3110
      7 H1         -0.9730   -1.7765   -0.5908 H         1 <0>         0.1110
      8 C5         -1.5224   -1.2909    1.4608 C.3       1 <0>        -0.1897
      9 C6         -3.0672   -1.3227    1.4714 C.3       1 <0>         0.0811
     10 H2         -3.4593   -0.5949    2.1818 H         1 <0>         0.0816
     11 C7         -3.4604   -0.9365    0.0282 C.3       1 <0>         0.0891
     12 H3         -3.6223   -1.8310   -0.5732 H         1 <0>         0.0971
     13 O1         -2.3304   -0.1908   -0.4774 O.3       1 <0>        -0.3562
     14 C8         -4.7180   -0.0651    0.0340 C.3       1 <0>         0.0857
     15 O2         -5.1311    0.1840   -1.3112 O.3       1 <0>        -0.5651
     16 O3         -3.5389   -2.6339    1.7879 O.3       1 <0>        -0.5539
     17 N3          1.7149   -1.6930   -0.0407 N.2       1 <0>        -0.5678
     18 C9          2.8881   -2.1890   -0.0979 C.2       1 <0>         0.4230
     19 N4          4.0487   -1.5019   -0.1101 N.pl3     1 <0>        -0.7538
     20 C10         4.2371   -0.2273   -0.7738 C.3       1 <0>         0.0866
     21 C11         3.5586    0.8968   -0.0151 C.3       1 <0>         0.1771
     22 H4          3.9174    0.8982    1.0141 H         1 <0>         0.0655
     23 O4          3.8981    2.1429   -0.6266 O.3       1 <0>        -0.5404
     24 H5         -0.9025    1.9694    0.0253 H         1 <0>         0.2106
     25 H6         -1.1186   -2.2760    1.6947 H         1 <0>         0.1029
     26 H7         -1.1509   -0.5475    2.1660 H         1 <0>         0.0892
     27 H8         -5.5151   -0.5810    0.5692 H         1 <0>         0.0702
     28 H9         -4.5017    0.8817    0.5288 H         1 <0>         0.0581
     29 H10        -5.9246    0.7318   -1.3839 H         1 <0>         0.3854
     30 H11        -3.2688   -2.9488    2.6614 H         1 <0>         0.3886
     31 H12         2.9595   -3.2658   -0.1405 H         1 <0>         0.1785
     32 H13         4.8074   -1.8862    0.3565 H         1 <0>         0.4034
     33 H14         5.3042   -0.0164   -0.8447 H         1 <0>         0.0970
     34 H15         3.8183   -0.2831   -1.7786 H         1 <0>         0.0743
     35 H16         4.8487    2.3156   -0.6661 H         1 <0>         0.3768
@<TRIPOS>BOND
     1    1    5 1
     2    1    2 2
     3    1   24 1
     4    2    3 1
     5    3   21 1
     6    3    4 2
     7    4    5 1
     8    4   17 1
     9    5    6 1
    10    6    7 1
    11    6   13 1
    12    6    8 1
    13    8    9 1
    14    8   25 1
    15    8   26 1
    16    9   10 1
    17    9   11 1
    18    9   16 1
    19   11   12 1
    20   11   13 1
    21   11   14 1
    22   14   15 1
    23   14   27 1
    24   14   28 1
    25   15   29 1
    26   16   30 1
    27   17   18 2
    28   18   19 1
    29   18   31 1
    30   19   20 1
    31   19   32 1
    32   20   21 1
    33   20   33 1
    34   20   34 1
    35   21   22 1
    36   21   23 1
    37   23   35 1
@<TRIPOS>MOLECULE
ZINC03806262
   36    38     0     0     0
SMALL
USER_CHARGES

@<TRIPOS>ATOM
      1 C1         -0.0163    1.3522    0.0095 C.cat     1 <0>         0.3211
      2 N1          1.2103    1.7869    0.0001 N.pl3     1 <0>        -0.4546
      3 C2          2.0633    0.7434   -0.0126 C.2       1 <0>        -0.0381
      4 C3          1.3317   -0.3961   -0.0166 C.2       1 <0>         0.3236
      5 N2          0.0021   -0.0041    0.0020 N.pl3     1 <0>        -0.4196
      6 C4         -1.1651   -0.8893    0.0125 C.3       1 <0>         0.3016
      7 H1         -0.9730   -1.7765   -0.5908 H         1 <0>         0.1414
      8 C5         -1.5224   -1.2909    1.4608 C.3       1 <0>        -0.1940
      9 C6         -3.0672   -1.3227    1.4714 C.3       1 <0>         0.0828
     10 H2         -3.4593   -0.5949    2.1818 H         1 <0>         0.0891
     11 C7         -3.4604   -0.9365    0.0282 C.3       1 <0>         0.0900
     12 H3         -3.6223   -1.8310   -0.5732 H         1 <0>         0.1080
     13 O1         -2.3304   -0.1908   -0.4774 O.3       1 <0>        -0.3585
     14 C8         -4.7180   -0.0651    0.0340 C.3       1 <0>         0.0840
     15 O2         -5.1311    0.1840   -1.3112 O.3       1 <0>        -0.5665
     16 O3         -3.5389   -2.6339    1.7879 O.3       1 <0>        -0.5478
     17 N3          1.7149   -1.6930   -0.0407 N.2       1 <0>        -0.5854
     18 C9          2.8881   -2.1890   -0.0979 C.2       1 <0>         0.4820
     19 N4          4.0487   -1.5019   -0.1101 N.pl3     1 <0>        -0.7398
     20 C10         4.2371   -0.2273   -0.7738 C.3       1 <0>         0.0771
     21 C11         3.5586    0.8968   -0.0151 C.3       1 <0>         0.1597
     22 H4          3.9174    0.8982    1.0141 H         1 <0>         0.0964
     23 O4          3.8981    2.1429   -0.6266 O.3       1 <0>        -0.5609
     24 H5         -0.9025    1.9694    0.0253 H         1 <0>         0.2637
     25 H6         -1.1186   -2.2760    1.6947 H         1 <0>         0.1166
     26 H7         -1.1509   -0.5475    2.1660 H         1 <0>         0.0937
     27 H8         -5.5151   -0.5810    0.5692 H         1 <0>         0.0782
     28 H9         -4.5017    0.8817    0.5288 H         1 <0>         0.0589
     29 H10        -5.9246    0.7318   -1.3839 H         1 <0>         0.3922
     30 H11        -3.2688   -2.9488    2.6614 H         1 <0>         0.3949
     31 H12         2.9595   -3.2658   -0.1405 H         1 <0>         0.2040
     32 H13         4.8074   -1.8862    0.3565 H         1 <0>         0.4204
     33 H14         5.3042   -0.0164   -0.8447 H         1 <0>         0.1208
     34 H15         3.8183   -0.2831   -1.7786 H         1 <0>         0.0902
     35 H16         4.8487    2.3156   -0.6661 H         1 <0>         0.4096
     36 H17         1.4713    2.7211    0.0020 H         1 <0>         0.4651
@<TRIPOS>BOND
     1    1    5 1
     2    1    2 2
     3    1   24 1
     4    2    3 1
     5    2   36 1
     6    3   21 1
     7    3    4 2
     8    4    5 1
     9    4   17 1
    10    5    6 1
    11    6    7 1
    12    6   13 1
    13    6    8 1
    14    8    9 1
    15    8   25 1
    16    8   26 1
    17    9   10 1
    18    9   11 1
    19    9   16 1
    20   11   12 1
    21   11   13 1
    22   11   14 1
    23   14   15 1
    24   14   27 1
    25   14   28 1
    26   15   29 1
    27   16   30 1
    28   17   18 2
    29   18   19 1
    30   18   31 1
    31   19   20 1
    32   19   32 1
    33   20   21 1
    34   20   33 1
    35   20   34 1
    36   21   22 1
    37   21   23 1
    38   23   35 1
@<TRIPOS>MOLECULE
ZINC40442819
   32    34     0     0     0
SMALL
USER_CHARGES

@<TRIPOS>ATOM
      1 C1         -0.0158    1.3173    0.0093 C.ar      1 <0>         0.2678
      2 C2          1.1991    2.0048    0.0014 C.ar      1 <0>        -0.1080
      3 C3          2.3919    1.2548   -0.0140 C.ar      1 <0>         0.3354
      4 N1          2.3213   -0.0697   -0.0195 N.ar      1 <0>        -0.5668
      5 C4          1.1460   -0.6774   -0.0105 C.ar      1 <0>         0.5877
      6 N2          0.0021   -0.0041    0.0020 N.ar      1 <0>        -0.5606
      7 N3          1.1080   -2.0623   -0.0170 N.pl3     1 <0>        -0.8163
      8 N4          3.4137    2.1706   -0.0193 N.pl3     1 <0>        -0.4794
      9 C5          2.8503    3.4126   -0.0075 C.2       1 <0>         0.2712
     10 N5          1.5532    3.3143    0.0046 N.2       1 <0>        -0.4562
     11 C6          4.8473    1.8695   -0.0344 C.3       1 <0>         0.3143
     12 H1          5.0529    0.9765    0.5559 H         1 <0>         0.1209
     13 C7          5.3419    1.6806   -1.4856 C.3       1 <0>         0.0789
     14 H2          4.6882    2.2043   -2.1831 H         1 <0>         0.0860
     15 C8          6.7520    2.3124   -1.4868 C.3       1 <0>         0.0474
     16 H3          6.7953    3.1483   -2.1850 H         1 <0>         0.0876
     17 C9          6.9424    2.8082   -0.0362 C.3       1 <0>         0.0504
     18 H4          7.4711    2.0599    0.5542 H         1 <0>         0.0997
     19 O1          5.6021    2.9918    0.4722 O.3       1 <0>        -0.3461
     20 C10         7.7068    4.1335   -0.0224 C.3       1 <0>         0.0821
     21 O2          7.9738    4.5153    1.3285 O.3       1 <0>        -0.5635
     22 O3          7.7389    1.3335   -1.8179 O.3       1 <0>        -0.5393
     23 O4          5.4123    0.2916   -1.8138 O.3       1 <0>        -0.5269
     24 H5         -0.9524    1.8550    0.0256 H         1 <0>         0.1824
     25 H6          1.9343   -2.5702   -0.0279 H         1 <0>         0.4157
     26 H7          0.2550   -2.5241   -0.0106 H         1 <0>         0.4179
     27 H8          3.4006    4.3419   -0.0085 H         1 <0>         0.2241
     28 H9          8.6479    4.0158   -0.5595 H         1 <0>         0.0670
     29 H10         7.1065    4.9042   -0.5059 H         1 <0>         0.0615
     30 H11         8.4570    5.3486    1.4136 H         1 <0>         0.3870
     31 H12         8.6431    1.6761   -1.8333 H         1 <0>         0.3875
     32 H13         5.7174    0.1152   -2.7143 H         1 <0>         0.3905
@<TRIPOS>BOND
     1    1    6 ar
     2    1    2 ar
     3    1   24 1
     4    2   10 1
     5    2    3 ar
     6    3    4 ar
     7    3    8 1
     8    4    5 ar
     9    5    6 ar
    10    5    7 1
    11    7   25 1
    12    7   26 1
    13    8    9 1
    14    8   11 1
    15    9   10 2
    16    9   27 1
    17   11   12 1
    18   11   19 1
    19   11   13 1
    20   13   14 1
    21   13   15 1
    22   13   23 1
    23   15   16 1
    24   15   17 1
    25   15   22 1
    26   17   18 1
    27   17   19 1
    28   17   20 1
    29   20   21 1
    30   20   28 1
    31   20   29 1
    32   21   30 1
    33   22   31 1
    34   23   32 1
@<TRIPOS>MOLECULE
ZINC01681688
   30    31     0     0     0
SMALL
USER_CHARGES
2-[1-(6-aminopurin-9-yl)-2-oxo-ethoxy]-3-hydroxy-propanal
@<TRIPOS>ATOM
      1 C1          1.1618   -2.0348    0.2925 C.ar      1 <0>         0.3527
      2 N1          1.1391   -0.7154    0.3469 N.ar      1 <0>        -0.5462
      3 C2         -0.0084   -0.0456    0.3298 C.ar      1 <0>         0.4595
      4 C3         -1.2081   -0.7742    0.2579 C.ar      1 <0>        -0.0955
      5 C4         -1.1302   -2.1756    0.1959 C.ar      1 <0>         0.2932
      6 N2          0.0645   -2.7578    0.2186 N.ar      1 <0>        -0.5433
      7 N3         -2.4251   -2.6236    0.1258 N.pl3     1 <0>        -0.4720
      8 C5         -3.2381   -1.5298    0.1569 C.2       1 <0>         0.2939
      9 N4         -2.5219   -0.4455    0.2268 N.2       1 <0>        -0.4646
     10 C6         -2.8556   -4.0218    0.0490 C.3       1 <0>         0.2660
     11 H1         -2.1947   -4.5450   -0.4891 H         1 <0>         0.1072
     12 C7         -2.9405   -4.5983    1.4388 C.2       1 <0>         0.3152
     13 O1         -3.9690   -5.1024    1.8216 O.2       1 <0>        -0.4051
     14 O2         -4.1393   -4.0914   -0.5748 O.3       1 <0>        -0.3358
     15 C8         -4.3488   -5.2781   -1.3429 C.3       1 <0>         0.0364
     16 H2         -3.8505   -6.0378   -0.9251 H         1 <0>         0.0998
     17 C9         -3.8414   -5.0585   -2.7695 C.3       1 <0>         0.0553
     18 O3         -4.6309   -4.0518   -3.4062 O.3       1 <0>        -0.5599
     19 C10        -5.8204   -5.6010   -1.3773 C.2       1 <0>         0.3533
     20 O4         -6.5975   -4.9470   -0.7241 O.2       1 <0>        -0.4185
     21 N5         -0.0221    1.3371    0.3871 N.pl3     1 <0>        -0.7501
     22 H3          2.1165   -2.5394    0.3090 H         1 <0>         0.2120
     23 H4         -4.3171   -1.5584    0.1189 H         1 <0>         0.2297
     24 H5         -2.0816   -4.5607    2.0925 H         1 <0>         0.1214
     25 H6         -2.7999   -4.7384   -2.7394 H         1 <0>         0.0569
     26 H7         -3.9192   -5.9899   -3.3302 H         1 <0>         0.0743
     27 H8         -4.3649   -3.8602   -4.3159 H         1 <0>         0.3874
     28 H9         -6.1800   -6.4173   -1.9861 H         1 <0>         0.1231
     29 H10         0.4095    1.6398    1.2369 H         1 <0>         0.3691
     30 H11        -0.8661    1.8149    0.3698 H         1 <0>         0.3847
@<TRIPOS>BOND
     1    1    6 ar
     2    1    2 ar
     3    1   22 1
     4    2    3 ar
     5    3    4 ar
     6    3   21 1
     7    4    9 1
     8    4    5 ar
     9    5    6 ar
    10    5    7 1
    11    7    8 1
    12    7   10 1
    13    8    9 2
    14    8   23 1
    15   10   11 1
    16   10   12 1
    17   10   14 1
    18   12   13 2
    19   12   24 1
    20   14   15 1
    21   15   16 1
    22   15   17 1
    23   15   19 1
    24   17   18 1
    25   17   25 1
    26   17   26 1
    27   18   27 1
    28   19   20 2
    29   19   28 1
    30   21   29 1
    31   21   30 1
@<TRIPOS>MOLECULE
ZINC03814297
   41    41     0     0     0
SMALL
USER_CHARGES
1-[1-(1-hydroxyethyl)heptyl]imidazole-4-carboxamide
@<TRIPOS>ATOM
      1 C1         -3.0445    3.9662   -3.8719 C.3       1 <0>        -0.1550
      2 C2         -2.0109    3.4890   -2.8496 C.3       1 <0>        -0.1250
      3 C3         -1.8445    1.9723   -2.9626 C.3       1 <0>        -0.1215
      4 C4         -0.8110    1.4951   -1.9404 C.3       1 <0>        -0.1181
      5 C5         -0.6445   -0.0216   -2.0534 C.3       1 <0>        -0.1197
      6 C6          0.3890   -0.4989   -1.0311 C.3       1 <0>        -0.1359
      7 C7          0.4570   -2.0272   -1.0501 C.3       1 <0>         0.0966
      8 H1         -0.5404   -2.4373   -0.8920 H         1 <0>         0.1131
      9 C8          1.3892   -2.5101    0.0629 C.3       1 <0>         0.0953
     10 H2          1.0246   -2.1489    1.0245 H         1 <0>         0.0799
     11 C9          1.4230   -4.0397    0.0721 C.3       1 <0>        -0.1514
     12 O1          2.7065   -2.0059   -0.1668 O.3       1 <0>        -0.5555
     13 N1          0.9702   -2.4771   -2.3464 N.pl3     1 <0>        -0.4393
     14 C10         0.3241   -3.2773   -3.2267 C.2       1 <0>         0.0346
     15 C11         1.1563   -3.4444   -4.2946 C.2       1 <0>        -0.0701
     16 N2          2.2910   -2.7429   -4.0425 N.2       1 <0>        -0.4694
     17 C12         2.1775   -2.1615   -2.8833 C.2       1 <0>         0.2091
     18 C13         0.8749   -4.2405   -5.5019 C.2       1 <0>         0.6091
     19 O2         -0.1854   -4.8264   -5.6104 O.2       1 <0>        -0.5516
     20 N3          1.7924   -4.3196   -6.4860 N.am      1 <0>        -0.8420
     21 H3         -3.1630    5.0467   -3.7913 H         1 <0>         0.0543
     22 H4         -2.7064    3.7116   -4.8763 H         1 <0>         0.0538
     23 H5         -4.0003    3.4802   -3.6762 H         1 <0>         0.0536
     24 H6         -2.3491    3.7436   -1.8451 H         1 <0>         0.0605
     25 H7         -1.0551    3.9750   -3.0453 H         1 <0>         0.0606
     26 H8         -1.5064    1.7177   -3.9671 H         1 <0>         0.0613
     27 H9         -2.8003    1.4863   -2.7669 H         1 <0>         0.0613
     28 H10        -1.1491    1.7496   -0.9359 H         1 <0>         0.0629
     29 H11         0.1449    1.9811   -2.1361 H         1 <0>         0.0625
     30 H12        -1.6004   -0.5076   -1.8577 H         1 <0>         0.0649
     31 H13        -0.3064   -0.2762   -3.0578 H         1 <0>         0.0647
     32 H14         1.3666   -0.0885   -1.2841 H         1 <0>         0.0756
     33 H15         0.0992   -0.1604   -0.0363 H         1 <0>         0.0890
     34 H16         1.8559   -4.3992   -0.8614 H         1 <0>         0.0653
     35 H17         2.0286   -4.3847    0.9102 H         1 <0>         0.0706
     36 H18         0.4084   -4.4249    0.1742 H         1 <0>         0.0732
     37 H19         2.7605   -1.0406   -0.1855 H         1 <0>         0.3774
     38 H20        -0.6617   -3.7019   -3.1066 H         1 <0>         0.1843
     39 H21         2.9239   -1.5319   -2.4218 H         1 <0>         0.2087
     40 H22         2.6380   -3.8524   -6.3994 H         1 <0>         0.4092
     41 H23         1.6070   -4.8438   -7.2808 H         1 <0>         0.4034
@<TRIPOS>BOND
     1    1    2 1
     2    1   21 1
     3    1   22 1
     4    1   23 1
     5    2    3 1
     6    2   24 1
     7    2   25 1
     8    3    4 1
     9    3   26 1
    10    3   27 1
    11    4    5 1
    12    4   28 1
    13    4   29 1
    14    5    6 1
    15    5   30 1
    16    5   31 1
    17    6    7 1
    18    6   32 1
    19    6   33 1
    20    7    8 1
    21    7    9 1
    22    7   13 1
    23    9   10 1
    24    9   11 1
    25    9   12 1
    26   11   34 1
    27   11   35 1
    28   11   36 1
    29   12   37 1
    30   13   17 1
    31   13   14 1
    32   14   15 2
    33   14   38 1
    34   15   16 1
    35   15   18 1
    36   16   17 2
    37   17   39 1
    38   18   19 2
    39   18   20 am
    40   20   40 1
    41   20   41 1
@<TRIPOS>MOLECULE
ZINC03814297
   42    42     0     0     0
SMALL
USER_CHARGES
1-[1-(1-hydroxyethyl)heptyl]imidazole-4-carboxamide
@<TRIPOS>ATOM
      1 C1         -3.0445    3.9662   -3.8719 C.3       1 <0>        -0.1568
      2 C2         -2.0109    3.4890   -2.8496 C.3       1 <0>        -0.1263
      3 C3         -1.8445    1.9723   -2.9626 C.3       1 <0>        -0.1214
      4 C4         -0.8110    1.4951   -1.9404 C.3       1 <0>        -0.1212
      5 C5         -0.6445   -0.0216   -2.0534 C.3       1 <0>        -0.1248
      6 C6          0.3890   -0.4989   -1.0311 C.3       1 <0>        -0.1451
      7 C7          0.4570   -2.0272   -1.0501 C.3       1 <0>         0.0872
      8 H1         -0.5404   -2.4373   -0.8920 H         1 <0>         0.1450
      9 C8          1.3892   -2.5101    0.0629 C.3       1 <0>         0.0900
     10 H2          1.0246   -2.1489    1.0245 H         1 <0>         0.1046
     11 C9          1.4230   -4.0397    0.0721 C.3       1 <0>        -0.1587
     12 O1          2.7065   -2.0059   -0.1668 O.3       1 <0>        -0.5607
     13 N1          0.9702   -2.4771   -2.3464 N.pl3     1 <0>        -0.3980
     14 C10         0.3241   -3.2773   -3.2267 C.2       1 <0>         0.1148
     15 C11         1.1563   -3.4444   -4.2946 C.2       1 <0>        -0.0351
     16 C12         2.1775   -2.1615   -2.8833 C.cat     1 <0>         0.3233
     17 C13         0.8749   -4.2405   -5.5019 C.2       1 <0>         0.5941
     18 O2         -0.1854   -4.8264   -5.6104 O.2       1 <0>        -0.4905
     19 N2          1.7924   -4.3196   -6.4860 N.am      1 <0>        -0.8375
     20 H3         -3.1630    5.0467   -3.7913 H         1 <0>         0.0581
     21 H4         -2.7064    3.7116   -4.8763 H         1 <0>         0.0534
     22 H5         -4.0003    3.4802   -3.6762 H         1 <0>         0.0552
     23 H6         -2.3491    3.7436   -1.8451 H         1 <0>         0.0634
     24 H7         -1.0551    3.9750   -3.0453 H         1 <0>         0.0611
     25 H8         -1.5064    1.7177   -3.9671 H         1 <0>         0.0593
     26 H9         -2.8003    1.4863   -2.7669 H         1 <0>         0.0640
     27 H10        -1.1491    1.7496   -0.9359 H         1 <0>         0.0701
     28 H11         0.1449    1.9811   -2.1361 H         1 <0>         0.0646
     29 H12        -1.6004   -0.5076   -1.8577 H         1 <0>         0.0747
     30 H13        -0.3064   -0.2762   -3.0578 H         1 <0>         0.0574
     31 H14         1.3666   -0.0885   -1.2841 H         1 <0>         0.0812
     32 H15         0.0992   -0.1604   -0.0363 H         1 <0>         0.1123
     33 H16         1.8559   -4.3992   -0.8614 H         1 <0>         0.0573
     34 H17         2.0286   -4.3847    0.9102 H         1 <0>         0.0848
     35 H18         0.4084   -4.4249    0.1742 H         1 <0>         0.0839
     36 H19         2.7605   -1.0406   -0.1855 H         1 <0>         0.3853
     37 H20        -0.6617   -3.7019   -3.1066 H         1 <0>         0.2333
     38 H21         2.9239   -1.5319   -2.4218 H         1 <0>         0.2638
     39 H22         2.6380   -3.8524   -6.3994 H         1 <0>         0.3995
     40 H23         1.6070   -4.8438   -7.2808 H         1 <0>         0.4276
     41 N3          2.2879   -2.7432   -4.0402 N.pl3     1 <0>        -0.4725
     42 H24         3.1025   -2.6813   -4.6622 H         1 <0>         0.4792
@<TRIPOS>BOND
     1    1    2 1
     2    1   20 1
     3    1   21 1
     4    1   22 1
     5    2    3 1
     6    2   23 1
     7    2   24 1
     8    3    4 1
     9    3   25 1
    10    3   26 1
    11    4    5 1
    12    4   27 1
    13    4   28 1
    14    5    6 1
    15    5   29 1
    16    5   30 1
    17    6    7 1
    18    6   31 1
    19    6   32 1
    20    7    8 1
    21    7    9 1
    22    7   13 1
    23    9   10 1
    24    9   11 1
    25    9   12 1
    26   11   33 1
    27   11   34 1
    28   11   35 1
    29   12   36 1
    30   13   16 1
    31   13   14 1
    32   14   15 2
    33   14   37 1
    34   15   17 1
    35   15   41 1
    36   16   38 1
    37   16   41 2
    38   17   18 2
    39   17   19 am
    40   19   39 1
    41   19   40 1
    42   41   42 1
@<TRIPOS>MOLECULE
ZINC05114634
   41    41     0     0     0
SMALL
USER_CHARGES
1-[(1R)-1-(1-hydroxyethyl)heptyl]imidazole-4-carboxamide
@<TRIPOS>ATOM
      1 C1         -8.3209    0.2018    5.4641 C.3       1 <0>        -0.1547
      2 C2         -6.9835    0.9349    5.3428 C.3       1 <0>        -0.1252
      3 C3         -6.2498    0.4534    4.0896 C.3       1 <0>        -0.1209
      4 C4         -4.9123    1.1865    3.9682 C.3       1 <0>        -0.1177
      5 C5         -4.1786    0.7049    2.7150 C.3       1 <0>        -0.1221
      6 C6         -2.8412    1.4380    2.5937 C.3       1 <0>        -0.1272
      7 C7         -2.1455    1.0187    1.2971 C.3       1 <0>         0.0996
      8 H1         -2.0565   -0.0672    1.2673 H         1 <0>         0.1061
      9 C8         -0.7514    1.6465    1.2402 C.3       1 <0>         0.0981
     10 H2         -0.8420    2.7327    1.2336 H         1 <0>         0.1079
     11 C9         -0.0365    1.1867   -0.0319 C.3       1 <0>        -0.1897
     12 O1          0.0018    1.2383    2.3839 O.3       1 <0>        -0.5475
     13 N1         -2.9340    1.4757    0.1500 N.pl3     1 <0>        -0.4410
     14 C10        -3.4724    0.6904   -0.8124 C.2       1 <0>         0.0413
     15 C11        -4.1225    1.5178   -1.6807 C.2       1 <0>        -0.0690
     16 N2         -3.9597    2.7892   -1.2335 N.2       1 <0>        -0.4611
     17 C12        -3.2510    2.7640   -0.1419 C.2       1 <0>         0.1901
     18 C13        -4.8620    1.1068   -2.8868 C.2       1 <0>         0.6089
     19 O2         -4.9360   -0.0705   -3.1830 O.2       1 <0>        -0.5500
     20 N3         -5.4564    2.0354   -3.6619 N.am      1 <0>        -0.8415
     21 H3         -8.9300    0.4091    4.5843 H         1 <0>         0.0536
     22 H4         -8.1419   -0.8709    5.5375 H         1 <0>         0.0535
     23 H5         -8.8436    0.5449    6.3570 H         1 <0>         0.0542
     24 H6         -6.3744    0.7276    6.2226 H         1 <0>         0.0608
     25 H7         -7.1625    2.0076    5.2694 H         1 <0>         0.0605
     26 H8         -6.8589    0.6607    3.2097 H         1 <0>         0.0605
     27 H9         -6.0707   -0.6193    4.1630 H         1 <0>         0.0609
     28 H10        -4.3032    0.9791    4.8481 H         1 <0>         0.0633
     29 H11        -5.0913    2.2592    3.8948 H         1 <0>         0.0620
     30 H12        -4.7877    0.9123    1.8351 H         1 <0>         0.0622
     31 H13        -3.9996   -0.3678    2.7884 H         1 <0>         0.0634
     32 H14        -2.2088    1.1833    3.4441 H         1 <0>         0.0950
     33 H15        -3.0164    2.5138    2.5805 H         1 <0>         0.0745
     34 H16         0.0541    0.1004   -0.0253 H         1 <0>         0.0624
     35 H17         0.9567    1.6339   -0.0724 H         1 <0>         0.0732
     36 H18        -0.6110    1.4980   -0.9043 H         1 <0>         0.0682
     37 H19         0.1224    0.2814    2.4544 H         1 <0>         0.3793
     38 H20        -3.4023   -0.3852   -0.8789 H         1 <0>         0.1862
     39 H21        -2.9620    3.6279    0.4382 H         1 <0>         0.2085
     40 H22        -5.3974    2.9743   -3.4256 H         1 <0>         0.4093
     41 H23        -5.9433    1.7648   -4.4560 H         1 <0>         0.4041
@<TRIPOS>BOND
     1    1    2 1
     2    1   21 1
     3    1   22 1
     4    1   23 1
     5    2    3 1
     6    2   24 1
     7    2   25 1
     8    3    4 1
     9    3   26 1
    10    3   27 1
    11    4    5 1
    12    4   28 1
    13    4   29 1
    14    5    6 1
    15    5   30 1
    16    5   31 1
    17    6    7 1
    18    6   32 1
    19    6   33 1
    20    7    8 1
    21    7    9 1
    22    7   13 1
    23    9   10 1
    24    9   11 1
    25    9   12 1
    26   11   34 1
    27   11   35 1
    28   11   36 1
    29   12   37 1
    30   13   17 1
    31   13   14 1
    32   14   15 2
    33   14   38 1
    34   15   16 1
    35   15   18 1
    36   16   17 2
    37   17   39 1
    38   18   19 2
    39   18   20 am
    40   20   40 1
    41   20   41 1
@<TRIPOS>MOLECULE
ZINC05114634
   42    42     0     0     0
SMALL
USER_CHARGES
1-[(1R)-1-(1-hydroxyethyl)heptyl]imidazole-4-carboxamide
@<TRIPOS>ATOM
      1 C1         -8.3209    0.2018    5.4641 C.3       1 <0>        -0.1566
      2 C2         -6.9835    0.9349    5.3428 C.3       1 <0>        -0.1263
      3 C3         -6.2498    0.4534    4.0896 C.3       1 <0>        -0.1210
      4 C4         -4.9123    1.1865    3.9682 C.3       1 <0>        -0.1208
      5 C5         -4.1786    0.7049    2.7150 C.3       1 <0>        -0.1266
      6 C6         -2.8412    1.4380    2.5937 C.3       1 <0>        -0.1359
      7 C7         -2.1455    1.0187    1.2971 C.3       1 <0>         0.0862
      8 H1         -2.0565   -0.0672    1.2673 H         1 <0>         0.1371
      9 C8         -0.7514    1.6465    1.2402 C.3       1 <0>         0.0979
     10 H2         -0.8420    2.7327    1.2336 H         1 <0>         0.1120
     11 C9         -0.0365    1.1867   -0.0319 C.3       1 <0>        -0.1990
     12 O1          0.0018    1.2383    2.3839 O.3       1 <0>        -0.5337
     13 N1         -2.9340    1.4757    0.1500 N.pl3     1 <0>        -0.3976
     14 C10        -3.4724    0.6904   -0.8124 C.2       1 <0>         0.1185
     15 C11        -4.1225    1.5178   -1.6807 C.2       1 <0>        -0.0318
     16 C12        -3.2510    2.7640   -0.1419 C.cat     1 <0>         0.3068
     17 C13        -4.8620    1.1068   -2.8868 C.2       1 <0>         0.5936
     18 O2         -4.9360   -0.0705   -3.1830 O.2       1 <0>        -0.4888
     19 N2         -5.4564    2.0354   -3.6619 N.am      1 <0>        -0.8369
     20 H3         -8.9300    0.4091    4.5843 H         1 <0>         0.0530
     21 H4         -8.1419   -0.8709    5.5375 H         1 <0>         0.0553
     22 H5         -8.8436    0.5449    6.3570 H         1 <0>         0.0580
     23 H6         -6.3744    0.7276    6.2226 H         1 <0>         0.0638
     24 H7         -7.1625    2.0076    5.2694 H         1 <0>         0.0607
     25 H8         -6.8589    0.6607    3.2097 H         1 <0>         0.0583
     26 H9         -6.0707   -0.6193    4.1630 H         1 <0>         0.0641
     27 H10        -4.3032    0.9791    4.8481 H         1 <0>         0.0707
     28 H11        -5.0913    2.2592    3.8948 H         1 <0>         0.0632
     29 H12        -4.7877    0.9123    1.8351 H         1 <0>         0.0538
     30 H13        -3.9996   -0.3678    2.7884 H         1 <0>         0.0741
     31 H14        -2.2088    1.1833    3.4441 H         1 <0>         0.1172
     32 H15        -3.0164    2.5138    2.5805 H         1 <0>         0.0813
     33 H16         0.0541    0.1004   -0.0253 H         1 <0>         0.0729
     34 H17         0.9567    1.6339   -0.0724 H         1 <0>         0.0869
     35 H18        -0.6110    1.4980   -0.9043 H         1 <0>         0.0600
     36 H19         0.1224    0.2814    2.4544 H         1 <0>         0.3889
     37 H20        -3.4023   -0.3852   -0.8789 H         1 <0>         0.2344
     38 H21        -2.9620    3.6279    0.4382 H         1 <0>         0.2658
     39 H22        -5.3974    2.9743   -3.4256 H         1 <0>         0.3996
     40 H23        -5.9433    1.7648   -4.4560 H         1 <0>         0.4282
     41 N3         -3.9583    2.7861   -1.2319 N.pl3     1 <0>        -0.4678
     42 H24        -4.3331    3.6297   -1.6813 H         1 <0>         0.4807
@<TRIPOS>BOND
     1    1    2 1
     2    1   20 1
     3    1   21 1
     4    1   22 1
     5    2    3 1
     6    2   23 1
     7    2   24 1
     8    3    4 1
     9    3   25 1
    10    3   26 1
    11    4    5 1
    12    4   27 1
    13    4   28 1
    14    5    6 1
    15    5   29 1
    16    5   30 1
    17    6    7 1
    18    6   31 1
    19    6   32 1
    20    7    8 1
    21    7    9 1
    22    7   13 1
    23    9   10 1
    24    9   11 1
    25    9   12 1
    26   11   33 1
    27   11   34 1
    28   11   35 1
    29   12   36 1
    30   13   16 1
    31   13   14 1
    32   14   15 2
    33   14   37 1
    34   15   17 1
    35   15   41 1
    36   16   38 1
    37   16   41 2
    38   17   18 2
    39   17   19 am
    40   19   39 1
    41   19   40 1
    42   41   42 1
@<TRIPOS>MOLECULE
ZINC12405523
   41    41     0     0     0
SMALL
USER_CHARGES
1-[(1S)-1-(1-hydroxyethyl)heptyl]imidazole-4-carboxamide
@<TRIPOS>ATOM
      1 C1         -7.7220   -1.8810   -4.2259 C.3       1 <0>        -0.1544
      2 C2         -6.2337   -1.5438   -4.1156 C.3       1 <0>        -0.1265
      3 C3         -5.9695   -0.8303   -2.7882 C.3       1 <0>        -0.1192
      4 C4         -4.4812   -0.4930   -2.6779 C.3       1 <0>        -0.1198
      5 C5         -4.2170    0.2205   -1.3505 C.3       1 <0>        -0.1264
      6 C6         -2.7287    0.5577   -1.2401 C.3       1 <0>        -0.1241
      7 C7         -2.4871    1.3935    0.0184 C.3       1 <0>         0.0994
      8 H1         -3.1521    2.2572    0.0143 H         1 <0>         0.1062
      9 C8         -2.7660    0.5411    1.2580 C.3       1 <0>         0.1001
     10 H2         -2.1811   -0.3772    1.2065 H         1 <0>         0.1084
     11 C9         -2.3766    1.3241    2.5135 C.3       1 <0>        -0.1906
     12 O1         -4.1569    0.2177    1.3106 O.3       1 <0>        -0.5426
     13 N1         -1.0950    1.8492    0.0422 N.pl3     1 <0>        -0.4447
     14 C10        -0.6766    3.1366    0.0608 C.2       1 <0>         0.0404
     15 C11         0.6873    3.1095    0.0732 C.2       1 <0>        -0.0690
     16 N2          1.0705    1.8071    0.0678 N.2       1 <0>        -0.4615
     17 C12         0.0076    1.0557    0.0529 C.2       1 <0>         0.1901
     18 C13         1.5815    4.2802    0.0898 C.2       1 <0>         0.6090
     19 O2          1.1135    5.4028    0.0936 O.2       1 <0>        -0.5497
     20 N3          2.9181    4.1072    0.1009 N.am      1 <0>        -0.8413
     21 H3         -8.3068   -0.9622   -4.1846 H         1 <0>         0.0533
     22 H4         -7.9102   -2.3893   -5.1716 H         1 <0>         0.0535
     23 H5         -8.0092   -2.5319   -3.4001 H         1 <0>         0.0539
     24 H6         -5.9465   -0.8929   -4.9414 H         1 <0>         0.0597
     25 H7         -5.6489   -2.4627   -4.1569 H         1 <0>         0.0604
     26 H8         -6.2567   -1.4812   -1.9624 H         1 <0>         0.0630
     27 H9         -6.5543    0.0886   -2.7469 H         1 <0>         0.0603
     28 H10        -4.1940    0.1579   -3.5037 H         1 <0>         0.0580
     29 H11        -3.8964   -1.4119   -2.7192 H         1 <0>         0.0613
     30 H12        -4.5042   -0.4304   -0.5247 H         1 <0>         0.0977
     31 H13        -4.8018    1.1394   -1.3091 H         1 <0>         0.0594
     32 H14        -2.4186    1.1248   -2.1179 H         1 <0>         0.0708
     33 H15        -2.1506   -0.3644   -1.1804 H         1 <0>         0.0737
     34 H16        -3.0212    2.1976    2.6114 H         1 <0>         0.0622
     35 H17        -2.4930    0.6866    3.3899 H         1 <0>         0.0725
     36 H18        -1.3382    1.6459    2.4336 H         1 <0>         0.0680
     37 H19        -4.7385    0.9888    1.3578 H         1 <0>         0.3784
     38 H20        -1.3026    4.0166    0.0610 H         1 <0>         0.1871
     39 H21         0.0031   -0.0243    0.0455 H         1 <0>         0.2094
     40 H22         3.2913    3.2119    0.0980 H         1 <0>         0.4094
     41 H23         3.5068    4.8781    0.1119 H         1 <0>         0.4043
@<TRIPOS>BOND
     1    1    2 1
     2    1   21 1
     3    1   22 1
     4    1   23 1
     5    2    3 1
     6    2   24 1
     7    2   25 1
     8    3    4 1
     9    3   26 1
    10    3   27 1
    11    4    5 1
    12    4   28 1
    13    4   29 1
    14    5    6 1
    15    5   30 1
    16    5   31 1
    17    6    7 1
    18    6   32 1
    19    6   33 1
    20    7    8 1
    21    7    9 1
    22    7   13 1
    23    9   10 1
    24    9   11 1
    25    9   12 1
    26   11   34 1
    27   11   35 1
    28   11   36 1
    29   12   37 1
    30   13   17 1
    31   13   14 1
    32   14   15 2
    33   14   38 1
    34   15   16 1
    35   15   18 1
    36   16   17 2
    37   17   39 1
    38   18   19 2
    39   18   20 am
    40   20   40 1
    41   20   41 1
@<TRIPOS>MOLECULE
ZINC12405523
   42    42     0     0     0
SMALL
USER_CHARGES
1-[(1S)-1-(1-hydroxyethyl)heptyl]imidazole-4-carboxamide
@<TRIPOS>ATOM
      1 C1         -7.7220   -1.8810   -4.2259 C.3       1 <0>        -0.1565
      2 C2         -6.2337   -1.5438   -4.1156 C.3       1 <0>        -0.1263
      3 C3         -5.9695   -0.8303   -2.7882 C.3       1 <0>        -0.1207
      4 C4         -4.4812   -0.4930   -2.6779 C.3       1 <0>        -0.1196
      5 C5         -4.2170    0.2205   -1.3505 C.3       1 <0>        -0.1285
      6 C6         -2.7287    0.5577   -1.2401 C.3       1 <0>        -0.1307
      7 C7         -2.4871    1.3935    0.0184 C.3       1 <0>         0.0849
      8 H1         -3.1521    2.2572    0.0143 H         1 <0>         0.1367
      9 C8         -2.7660    0.5411    1.2580 C.3       1 <0>         0.0987
     10 H2         -2.1811   -0.3772    1.2065 H         1 <0>         0.1143
     11 C9         -2.3766    1.3241    2.5135 C.3       1 <0>        -0.1991
     12 O1         -4.1569    0.2177    1.3106 O.3       1 <0>        -0.5284
     13 N1         -1.0950    1.8492    0.0422 N.pl3     1 <0>        -0.4003
     14 C10        -0.6766    3.1366    0.0608 C.2       1 <0>         0.1182
     15 C11         0.6873    3.1095    0.0732 C.2       1 <0>        -0.0319
     16 C12         0.0076    1.0557    0.0529 C.cat     1 <0>         0.3073
     17 C13         1.5815    4.2802    0.0898 C.2       1 <0>         0.5935
     18 O2          1.1135    5.4028    0.0936 O.2       1 <0>        -0.4888
     19 N2          2.9181    4.1072    0.1009 N.am      1 <0>        -0.8368
     20 H3         -8.3068   -0.9622   -4.1846 H         1 <0>         0.0545
     21 H4         -7.9102   -2.3893   -5.1716 H         1 <0>         0.0563
     22 H5         -8.0092   -2.5319   -3.4001 H         1 <0>         0.0550
     23 H6         -5.9465   -0.8929   -4.9414 H         1 <0>         0.0602
     24 H7         -5.6489   -2.4627   -4.1569 H         1 <0>         0.0609
     25 H8         -6.2567   -1.4812   -1.9624 H         1 <0>         0.0649
     26 H9         -6.5543    0.0886   -2.7469 H         1 <0>         0.0624
     27 H10        -4.1940    0.1579   -3.5037 H         1 <0>         0.0601
     28 H11        -3.8964   -1.4119   -2.7192 H         1 <0>         0.0632
     29 H12        -4.5042   -0.4304   -0.5247 H         1 <0>         0.1028
     30 H13        -4.8018    1.1394   -1.3091 H         1 <0>         0.0664
     31 H14        -2.4186    1.1248   -2.1179 H         1 <0>         0.0801
     32 H15        -2.1506   -0.3644   -1.1804 H         1 <0>         0.0813
     33 H16        -3.0212    2.1976    2.6114 H         1 <0>         0.0733
     34 H17        -2.4930    0.6866    3.3899 H         1 <0>         0.0868
     35 H18        -1.3382    1.6459    2.4336 H         1 <0>         0.0563
     36 H19        -4.7385    0.9888    1.3578 H         1 <0>         0.3875
     37 H20        -1.3026    4.0166    0.0610 H         1 <0>         0.2349
     38 H21         0.0031   -0.0243    0.0455 H         1 <0>         0.2663
     39 H22         3.2913    3.2119    0.0980 H         1 <0>         0.3997
     40 H23         3.5068    4.8781    0.1119 H         1 <0>         0.4283
     41 N3          1.0669    1.8084    0.0678 N.pl3     1 <0>        -0.4680
     42 H24         2.0367    1.4712    0.0744 H         1 <0>         0.4809
@<TRIPOS>BOND
     1    1    2 1
     2    1   20 1
     3    1   21 1
     4    1   22 1
     5    2    3 1
     6    2   23 1
     7    2   24 1
     8    3    4 1
     9    3   25 1
    10    3   26 1
    11    4    5 1
    12    4   27 1
    13    4   28 1
    14    5    6 1
    15    5   29 1
    16    5   30 1
    17    6    7 1
    18    6   31 1
    19    6   32 1
    20    7    8 1
    21    7    9 1
    22    7   13 1
    23    9   10 1
    24    9   11 1
    25    9   12 1
    26   11   33 1
    27   11   34 1
    28   11   35 1
    29   12   36 1
    30   13   16 1
    31   13   14 1
    32   14   15 2
    33   14   37 1
    34   15   17 1
    35   15   41 1
    36   16   38 1
    37   16   41 2
    38   17   18 2
    39   17   19 am
    40   19   39 1
    41   19   40 1
    42   41   42 1
@<TRIPOS>MOLECULE
ZINC34633627
   41    41     0     0     0
SMALL
USER_CHARGES

@<TRIPOS>ATOM
      1 C1         -0.0187    1.5258    0.0104 C.3       1 <0>        -0.1546
      2 C2          0.0021   -0.0041    0.0020 C.3       1 <0>        -0.1264
      3 C3         -1.4333   -0.5336    0.0129 C.3       1 <0>        -0.1206
      4 C4         -1.4126   -2.0635    0.0045 C.3       1 <0>        -0.1195
      5 C5         -2.8479   -2.5931    0.0153 C.3       1 <0>        -0.1176
      6 C6         -2.8272   -4.1229    0.0069 C.3       1 <0>        -0.1290
      7 C7         -4.2626   -4.6525    0.0178 C.3       1 <0>         0.1402
      8 H1         -4.7994   -4.2298    0.8670 H         1 <0>         0.1137
      9 C8         -4.9645   -4.2501   -1.2808 C.3       1 <0>         0.0922
     10 H2         -4.9009   -3.1694   -1.4084 H         1 <0>         0.0807
     11 C9         -6.4342   -4.6705   -1.2175 C.3       1 <0>        -0.1915
     12 O1         -4.3308   -4.8982   -2.3855 O.3       1 <0>        -0.5620
     13 N1         -4.2434   -6.1130    0.1301 N.pl3     1 <0>        -0.4444
     14 C10        -4.8037   -6.8449    1.1217 C.2       1 <0>         0.0295
     15 C11        -4.5523   -8.1552    0.8373 C.2       1 <0>        -0.0708
     16 N2         -3.8447   -8.1938   -0.3207 N.2       1 <0>        -0.4746
     17 C12        -3.6653   -6.9763   -0.7451 C.2       1 <0>         0.2188
     18 C13        -4.9717   -9.3167    1.6406 C.2       1 <0>         0.6094
     19 O2         -5.6053   -9.1505    2.6654 O.2       1 <0>        -0.5522
     20 N3         -4.6534  -10.5635    1.2399 N.am      1 <0>        -0.8420
     21 H3          1.0039    1.9031    0.0027 H         1 <0>         0.0541
     22 H4         -0.5459    1.8868   -0.8726 H         1 <0>         0.0534
     23 H5         -0.5289    1.8773    0.9072 H         1 <0>         0.0535
     24 H6          0.5123   -0.3556   -0.8948 H         1 <0>         0.0610
     25 H7          0.5293   -0.3651    0.8851 H         1 <0>         0.0609
     26 H8         -1.9435   -0.1821    0.9097 H         1 <0>         0.0614
     27 H9         -1.9605   -0.1726   -0.8702 H         1 <0>         0.0613
     28 H10        -0.9024   -2.4150   -0.8923 H         1 <0>         0.0642
     29 H11        -0.8854   -2.4246    0.8875 H         1 <0>         0.0629
     30 H12        -3.3581   -2.2415    0.9121 H         1 <0>         0.0652
     31 H13        -3.3751   -2.2320   -0.8677 H         1 <0>         0.0675
     32 H14        -2.3170   -4.4744   -0.8899 H         1 <0>         0.0840
     33 H15        -2.3000   -4.4840    0.8900 H         1 <0>         0.0733
     34 H16        -6.9343   -4.3838   -2.1427 H         1 <0>         0.0663
     35 H17        -6.4978   -5.7511   -1.0900 H         1 <0>         0.0655
     36 H18        -6.9176   -4.1761   -0.3749 H         1 <0>         0.0688
     37 H19        -4.7247   -4.6885   -3.2433 H         1 <0>         0.3863
     38 H20        -5.3458   -6.4642    1.9747 H         1 <0>         0.1846
     39 H21        -3.1391   -6.6974   -1.6461 H         1 <0>         0.2138
     40 H22        -4.1481  -10.6961    0.4226 H         1 <0>         0.4093
     41 H23        -4.9296  -11.3283    1.7688 H         1 <0>         0.4032
@<TRIPOS>BOND
     1    1    2 1
     2    1   21 1
     3    1   22 1
     4    1   23 1
     5    2    3 1
     6    2   24 1
     7    2   25 1
     8    3    4 1
     9    3   26 1
    10    3   27 1
    11    4    5 1
    12    4   28 1
    13    4   29 1
    14    5    6 1
    15    5   30 1
    16    5   31 1
    17    6    7 1
    18    6   32 1
    19    6   33 1
    20    7    8 1
    21    7    9 1
    22    7   13 1
    23    9   10 1
    24    9   11 1
    25    9   12 1
    26   11   34 1
    27   11   35 1
    28   11   36 1
    29   12   37 1
    30   13   17 1
    31   13   14 1
    32   14   15 2
    33   14   38 1
    34   15   16 1
    35   15   18 1
    36   16   17 2
    37   17   39 1
    38   18   19 2
    39   18   20 am
    40   20   40 1
    41   20   41 1
@<TRIPOS>MOLECULE
ZINC12405544
   44    45     0     0     0
SMALL
USER_CHARGES
(2S,3R)-3-(4-aminoimidazo[4,5-c]pyridin-1-yl)nonan-2-ol
@<TRIPOS>ATOM
      1 C1          0.1018   -7.5458   -4.7339 C.3       1 <0>        -0.1554
      2 C2         -0.1434   -6.0701   -4.4131 C.3       1 <0>        -0.1270
      3 C3          0.6849   -5.6694   -3.1907 C.3       1 <0>        -0.1186
      4 C4          0.4396   -4.1936   -2.8699 C.3       1 <0>        -0.1209
      5 C5          1.2680   -3.7929   -1.6476 C.3       1 <0>        -0.1167
      6 C6          1.0227   -2.3172   -1.3268 C.3       1 <0>        -0.1235
      7 C7          1.9535   -1.8800   -0.1939 C.3       1 <0>         0.1509
      8 H1          3.0034   -2.0749   -0.4580 H         1 <0>         0.1062
      9 C8          1.5749   -2.6191    1.0912 C.3       1 <0>         0.1088
     10 H2          0.4980   -2.5333    1.2983 H         1 <0>         0.0603
     11 C9          2.4082   -2.0784    2.2548 C.3       1 <0>        -0.1870
     12 O1          1.8310   -4.0158    0.9304 O.3       1 <0>        -0.5853
     13 N1          1.8221   -0.4362    0.0164 N.pl3     1 <0>        -0.4754
     14 C10         0.6836    0.2297    0.3591 C.2       1 <0>         0.2339
     15 N2          0.9266    1.5040    0.4624 N.2       1 <0>        -0.4676
     16 C11         2.2341    1.7404    0.1936 C.ar      1 <0>        -0.0698
     17 C12         2.8241    0.4977   -0.0958 C.ar      1 <0>         0.1255
     18 C13         4.1806    0.4592   -0.4101 C.ar      1 <0>        -0.2394
     19 C14         4.8918    1.6260   -0.4269 C.ar      1 <0>         0.1612
     20 N3          4.3209    2.7880   -0.1519 N.ar      1 <0>        -0.5693
     21 C15         3.0382    2.8896    0.1534 C.ar      1 <0>         0.4859
     22 N4          2.4873    4.1329    0.4344 N.pl3     1 <0>        -0.8563
     23 H3         -0.4937   -7.8338   -5.6128 H         1 <0>         0.0535
     24 H4         -0.1941   -8.1624   -3.8724 H         1 <0>         0.0539
     25 H5          1.1695   -7.7021   -4.9472 H         1 <0>         0.0538
     26 H6          0.1525   -5.4535   -5.2746 H         1 <0>         0.0599
     27 H7         -1.2111   -5.9137   -4.1998 H         1 <0>         0.0602
     28 H8          0.3890   -6.2860   -2.3292 H         1 <0>         0.0621
     29 H9          1.7526   -5.8257   -3.4040 H         1 <0>         0.0608
     30 H10         0.7354   -3.5770   -3.7315 H         1 <0>         0.0574
     31 H11        -0.6281   -4.0373   -2.6565 H         1 <0>         0.0595
     32 H12         0.9722   -4.4095   -0.7860 H         1 <0>         0.0953
     33 H13         2.3357   -3.9492   -1.8610 H         1 <0>         0.0605
     34 H14         1.2232   -1.7093   -2.2214 H         1 <0>         0.0691
     35 H15        -0.0234   -2.1784   -1.0161 H         1 <0>         0.0698
     36 H16         2.1360   -2.6098    3.1787 H         1 <0>         0.0644
     37 H17         2.2111   -1.0033    2.3785 H         1 <0>         0.0636
     38 H18         3.4766   -2.2334    2.0438 H         1 <0>         0.0658
     39 H19         1.6192   -4.7123    1.7550 H         1 <0>         0.4127
     40 H20        -0.2791   -0.2323    0.5208 H         1 <0>         0.2090
     41 H21         4.6635   -0.4797   -0.6375 H         1 <0>         0.1260
     42 H22         5.9438    1.5993   -0.6698 H         1 <0>         0.1591
     43 H23         3.1178    5.0337    0.4028 H         1 <0>         0.4263
     44 H24         1.4204    4.2170    0.6886 H         1 <0>         0.4368
@<TRIPOS>BOND
     1    1    2 1
     2    1   23 1
     3    1   24 1
     4    1   25 1
     5    2    3 1
     6    2   26 1
     7    2   27 1
     8    3    4 1
     9    3   28 1
    10    3   29 1
    11    4    5 1
    12    4   30 1
    13    4   31 1
    14    5    6 1
    15    5   32 1
    16    5   33 1
    17    6    7 1
    18    6   34 1
    19    6   35 1
    20    7    8 1
    21    7    9 1
    22    7   13 1
    23    9   10 1
    24    9   11 1
    25    9   12 1
    26   11   36 1
    27   11   37 1
    28   11   38 1
    29   12   39 1
    30   13   17 1
    31   13   14 1
    32   14   15 2
    33   14   40 1
    34   15   16 1
    35   16   21 ar
    36   16   17 ar
    37   17   18 ar
    38   18   19 ar
    39   18   41 1
    40   19   20 ar
    41   19   42 1
    42   20   21 ar
    43   21   22 1
    44   22   43 1
    45   22   44 1
@<TRIPOS>MOLECULE
ZINC13821002
   44    45     0     0     0
SMALL
USER_CHARGES
(2R,3S)-3-(4-aminoimidazo[4,5-c]pyridin-1-yl)nonan-2-ol
@<TRIPOS>ATOM
      1 C1         -7.9548   -2.1953    3.6541 C.3       1 <0>        -0.1560
      2 C2         -6.7102   -1.3057    3.6284 C.3       1 <0>        -0.1267
      3 C3         -5.7587   -1.7914    2.5331 C.3       1 <0>        -0.1215
      4 C4         -4.5141   -0.9018    2.5074 C.3       1 <0>        -0.1204
      5 C5         -3.5626   -1.3875    1.4122 C.3       1 <0>        -0.1196
      6 C6         -2.3181   -0.4979    1.3865 C.3       1 <0>        -0.1309
      7 C7         -1.3756   -0.9712    0.2780 C.3       1 <0>         0.1510
      8 H1         -1.1143   -2.0306    0.4176 H         1 <0>         0.1045
      9 C8         -2.0400   -0.7549   -1.0831 C.3       1 <0>         0.1017
     10 H2         -2.9360   -1.3834   -1.1939 H         1 <0>         0.0729
     11 C9         -2.3772    0.7274   -1.2563 C.3       1 <0>        -0.2060
     12 O1         -1.1460   -1.1643   -2.1200 O.3       1 <0>        -0.5940
     13 N1         -0.1273   -0.2070    0.3390 N.pl3     1 <0>        -0.4673
     14 C10        -0.0114    1.1507    0.3511 C.2       1 <0>         0.2292
     15 N2          1.2436    1.4903    0.4095 N.2       1 <0>        -0.4712
     16 C11         2.0149    0.3758    0.4388 C.ar      1 <0>        -0.0709
     17 C12         1.1438   -0.7265    0.3939 C.ar      1 <0>         0.1325
     18 C13         1.6877   -2.0089    0.4114 C.ar      1 <0>        -0.2335
     19 C14         3.0452   -2.1537    0.4714 C.ar      1 <0>         0.1568
     20 N3          3.8515   -1.1049    0.5135 N.ar      1 <0>        -0.5705
     21 C15         3.3961    0.1366    0.4998 C.ar      1 <0>         0.4842
     22 N4          4.2844    1.2029    0.5458 N.pl3     1 <0>        -0.8577
     23 H3         -8.6389   -1.8461    4.4416 H         1 <0>         0.0545
     24 H4         -7.6585   -3.2344    3.8600 H         1 <0>         0.0541
     25 H5         -8.4617   -2.1449    2.6792 H         1 <0>         0.0539
     26 H6         -7.0065   -0.2666    3.4225 H         1 <0>         0.0611
     27 H7         -6.2033   -1.3561    4.6033 H         1 <0>         0.0613
     28 H8         -5.4625   -2.8306    2.7391 H         1 <0>         0.0624
     29 H9         -6.2656   -1.7410    1.5582 H         1 <0>         0.0620
     30 H10        -4.8104    0.1373    2.3014 H         1 <0>         0.0639
     31 H11        -4.0072   -0.9521    3.4823 H         1 <0>         0.0641
     32 H12        -3.2664   -2.4266    1.6182 H         1 <0>         0.0686
     33 H13        -4.0695   -1.3372    0.4373 H         1 <0>         0.0686
     34 H14        -2.6158    0.5436    1.1948 H         1 <0>         0.0804
     35 H15        -1.8033   -0.5595    2.3566 H         1 <0>         0.0799
     36 H16        -2.8549    0.8828   -2.2349 H         1 <0>         0.0665
     37 H17        -1.4537    1.3225   -1.2004 H         1 <0>         0.0746
     38 H18        -3.0654    1.0426   -0.4581 H         1 <0>         0.0739
     39 H19        -1.4514   -1.0825   -3.1736 H         1 <0>         0.4116
     40 H20        -0.8392    1.8433    0.3130 H         1 <0>         0.2094
     41 H21         1.0454   -2.8765    0.3776 H         1 <0>         0.1241
     42 H22         3.4698   -3.1467    0.4851 H         1 <0>         0.1576
     43 H23         5.3672    1.0150    0.5936 H         1 <0>         0.4251
     44 H24         3.9053    2.2354    0.5344 H         1 <0>         0.4358
@<TRIPOS>BOND
     1    1    2 1
     2    1   23 1
     3    1   24 1
     4    1   25 1
     5    2    3 1
     6    2   26 1
     7    2   27 1
     8    3    4 1
     9    3   28 1
    10    3   29 1
    11    4    5 1
    12    4   30 1
    13    4   31 1
    14    5    6 1
    15    5   32 1
    16    5   33 1
    17    6    7 1
    18    6   34 1
    19    6   35 1
    20    7    8 1
    21    7    9 1
    22    7   13 1
    23    9   10 1
    24    9   11 1
    25    9   12 1
    26   11   36 1
    27   11   37 1
    28   11   38 1
    29   12   39 1
    30   13   17 1
    31   13   14 1
    32   14   15 2
    33   14   40 1
    34   15   16 1
    35   16   21 ar
    36   16   17 ar
    37   17   18 ar
    38   18   19 ar
    39   18   41 1
    40   19   20 ar
    41   19   42 1
    42   20   21 ar
    43   21   22 1
    44   22   43 1
    45   22   44 1
@<TRIPOS>MOLECULE
ZINC28220264
   44    45     0     0     0
SMALL
USER_CHARGES
(2R,3R)-3-(4-aminoimidazo[4,5-c]pyridin-1-yl)nonan-2-ol
@<TRIPOS>ATOM
      1 C1          6.5452    1.3030    3.7113 C.3       1 <0>        -0.1559
      2 C2          5.7828    1.8320    2.4949 C.3       1 <0>        -0.1254
      3 C3          4.3926    1.1948    2.4476 C.3       1 <0>        -0.1215
      4 C4          3.6302    1.7239    1.2312 C.3       1 <0>        -0.1177
      5 C5          2.2399    1.0867    1.1840 C.3       1 <0>        -0.1201
      6 C6          1.4775    1.6158   -0.0325 C.3       1 <0>        -0.1310
      7 C7          0.0474    1.0722   -0.0140 C.3       1 <0>         0.1509
      8 H1          0.0505   -0.0232    0.0869 H         1 <0>         0.1050
      9 C8         -0.6748    1.4933   -1.2954 C.3       1 <0>         0.1028
     10 H2         -0.6843    2.5876   -1.4067 H         1 <0>         0.0594
     11 C9         -0.0131    0.8189   -2.4989 C.3       1 <0>        -0.1865
     12 O1         -2.0458    1.0972   -1.2216 O.3       1 <0>        -0.5931
     13 N1         -0.6647    1.6109    1.1474 N.pl3     1 <0>        -0.4647
     14 C10        -0.8908    2.9274    1.4169 C.2       1 <0>         0.2361
     15 N2         -1.5561    3.0467    2.5290 N.2       1 <0>        -0.4711
     16 C11        -1.7928    1.8182    3.0509 C.ar      1 <0>        -0.0699
     17 C12        -1.2233    0.8823    2.1700 C.ar      1 <0>         0.1323
     18 C13        -1.3266   -0.4726    2.4767 C.ar      1 <0>        -0.2353
     19 C14        -1.9757   -0.8472    3.6195 C.ar      1 <0>         0.1566
     20 N3         -2.5064    0.0470    4.4383 N.ar      1 <0>        -0.5709
     21 C15        -2.4414    1.3466    4.2022 C.ar      1 <0>         0.4842
     22 N4         -3.0148    2.2441    5.0933 N.pl3     1 <0>        -0.8579
     23 H3          7.5447    1.7611    3.7453 H         1 <0>         0.0545
     24 H4          6.6451    0.2102    3.6346 H         1 <0>         0.0540
     25 H5          5.9939    1.5573    4.6286 H         1 <0>         0.0539
     26 H6          5.6829    2.9248    2.5716 H         1 <0>         0.0607
     27 H7          6.3341    1.5777    1.5776 H         1 <0>         0.0609
     28 H8          4.4926    0.1020    2.3708 H         1 <0>         0.0617
     29 H9          3.8413    1.4490    3.3649 H         1 <0>         0.0608
     30 H10         3.5303    2.8167    1.3080 H         1 <0>         0.0622
     31 H11         4.1814    1.4696    0.3139 H         1 <0>         0.0633
     32 H12         2.3398   -0.0061    1.1073 H         1 <0>         0.0654
     33 H13         1.6886    1.3410    2.1013 H         1 <0>         0.0638
     34 H14         1.4524    2.7150    0.0002 H         1 <0>         0.0763
     35 H15         1.9826    1.2878   -0.9530 H         1 <0>         0.0909
     36 H16        -0.5323    1.1217   -3.4202 H         1 <0>         0.0671
     37 H17        -0.0735   -0.2736   -2.3860 H         1 <0>         0.0686
     38 H18         1.0423    1.1239   -2.5557 H         1 <0>         0.0723
     39 H19        -2.7273    1.3162   -2.0568 H         1 <0>         0.4121
     40 H20        -0.5674    3.7507    0.7973 H         1 <0>         0.2045
     41 H21        -0.9000   -1.2166    1.8204 H         1 <0>         0.1230
     42 H22        -2.0577   -1.8970    3.8598 H         1 <0>         0.1569
     43 H23        -3.5232    1.8741    5.9959 H         1 <0>         0.4248
     44 H24        -2.9606    3.3250    4.8966 H         1 <0>         0.4358
@<TRIPOS>BOND
     1    1    2 1
     2    1   23 1
     3    1   24 1
     4    1   25 1
     5    2    3 1
     6    2   26 1
     7    2   27 1
     8    3    4 1
     9    3   28 1
    10    3   29 1
    11    4    5 1
    12    4   30 1
    13    4   31 1
    14    5    6 1
    15    5   32 1
    16    5   33 1
    17    6    7 1
    18    6   34 1
    19    6   35 1
    20    7    8 1
    21    7    9 1
    22    7   13 1
    23    9   10 1
    24    9   11 1
    25    9   12 1
    26   11   36 1
    27   11   37 1
    28   11   38 1
    29   12   39 1
    30   13   17 1
    31   13   14 1
    32   14   15 2
    33   14   40 1
    34   15   16 1
    35   16   21 ar
    36   16   17 ar
    37   17   18 ar
    38   18   19 ar
    39   18   41 1
    40   19   20 ar
    41   19   42 1
    42   20   21 ar
    43   21   22 1
    44   22   43 1
    45   22   44 1
@<TRIPOS>MOLECULE
ZINC28220268
   44    45     0     0     0
SMALL
USER_CHARGES
(2S,3S)-3-(4-aminoimidazo[4,5-c]pyridin-1-yl)nonan-2-ol
@<TRIPOS>ATOM
      1 C1         -4.7470    5.2456    7.2048 C.3       1 <0>        -0.1560
      2 C2         -4.1534    6.1651    6.1356 C.3       1 <0>        -0.1254
      3 C3         -4.2450    5.4836    4.7688 C.3       1 <0>        -0.1216
      4 C4         -3.6515    6.4031    3.6997 C.3       1 <0>        -0.1180
      5 C5         -3.7431    5.7216    2.3329 C.3       1 <0>        -0.1189
      6 C6         -3.1495    6.6411    1.2638 C.3       1 <0>        -0.1310
      7 C7         -3.3447    6.0108   -0.1166 C.3       1 <0>         0.1510
      8 H1         -4.4017    5.7530   -0.2788 H         1 <0>         0.1051
      9 C8         -2.8553    6.9806   -1.1940 C.3       1 <0>         0.1028
     10 H2         -1.7915    7.2248   -1.0574 H         1 <0>         0.0593
     11 C9         -3.7208    8.2421   -1.1758 C.3       1 <0>        -0.1866
     12 O1         -2.9504    6.3561   -2.4758 O.3       1 <0>        -0.5934
     13 N1         -2.5788    4.7645   -0.1970 N.pl3     1 <0>        -0.4652
     14 C10        -1.2299    4.6350   -0.0539 C.2       1 <0>         0.2355
     15 N2         -0.8856    3.3869   -0.1854 N.2       1 <0>        -0.4710
     16 C11        -1.9887    2.6331   -0.4154 C.ar      1 <0>        -0.0702
     17 C12        -3.0876    3.5096   -0.4313 C.ar      1 <0>         0.1326
     18 C13        -4.3581    2.9840   -0.6556 C.ar      1 <0>        -0.2352
     19 C14        -4.4943    1.6394   -0.8577 C.ar      1 <0>         0.1567
     20 N3         -3.4481    0.8286   -0.8454 N.ar      1 <0>        -0.5710
     21 C15        -2.2178    1.2669   -0.6380 C.ar      1 <0>         0.4843
     22 N4         -1.1538    0.3746   -0.6348 N.pl3     1 <0>        -0.8579
     23 H3         -4.6811    5.7356    8.1874 H         1 <0>         0.0544
     24 H4         -4.1854    4.3001    7.2281 H         1 <0>         0.0539
     25 H5         -5.8012    5.0401    6.9675 H         1 <0>         0.0540
     26 H6         -4.7150    7.1106    6.1123 H         1 <0>         0.0609
     27 H7         -3.0992    6.3706    6.3729 H         1 <0>         0.0607
     28 H8         -3.6833    4.5381    4.7922 H         1 <0>         0.0609
     29 H9         -5.2992    5.2780    4.5315 H         1 <0>         0.0617
     30 H10        -4.2132    7.3486    3.6764 H         1 <0>         0.0633
     31 H11        -2.5973    6.6087    3.9370 H         1 <0>         0.0625
     32 H12        -3.1815    4.7761    2.3563 H         1 <0>         0.0634
     33 H13        -4.7973    5.5161    2.0956 H         1 <0>         0.0647
     34 H14        -3.6567    7.6166    1.2965 H         1 <0>         0.0914
     35 H15        -2.0752    6.7799    1.4549 H         1 <0>         0.0761
     36 H16        -3.3689    8.9394   -1.9504 H         1 <0>         0.0671
     37 H17        -3.6475    8.7228   -0.1891 H         1 <0>         0.0725
     38 H18        -4.7682    7.9711   -1.3748 H         1 <0>         0.0687
     39 H19        -2.6414    6.9034   -3.3785 H         1 <0>         0.4122
     40 H20        -0.5467    5.4488    0.1396 H         1 <0>         0.2047
     41 H21        -5.2234    3.6302   -0.6692 H         1 <0>         0.1230
     42 H22        -5.4779    1.2289   -1.0319 H         1 <0>         0.1569
     43 H23        -1.3337   -0.6965   -0.8093 H         1 <0>         0.4248
     44 H24        -0.1311    0.7388   -0.4577 H         1 <0>         0.4358
@<TRIPOS>BOND
     1    1    2 1
     2    1   23 1
     3    1   24 1
     4    1   25 1
     5    2    3 1
     6    2   26 1
     7    2   27 1
     8    3    4 1
     9    3   28 1
    10    3   29 1
    11    4    5 1
    12    4   30 1
    13    4   31 1
    14    5    6 1
    15    5   32 1
    16    5   33 1
    17    6    7 1
    18    6   34 1
    19    6   35 1
    20    7    8 1
    21    7    9 1
    22    7   13 1
    23    9   10 1
    24    9   11 1
    25    9   12 1
    26   11   36 1
    27   11   37 1
    28   11   38 1
    29   12   39 1
    30   13   17 1
    31   13   14 1
    32   14   15 2
    33   14   40 1
    34   15   16 1
    35   16   21 ar
    36   16   17 ar
    37   17   18 ar
    38   18   19 ar
    39   18   41 1
    40   19   20 ar
    41   19   42 1
    42   20   21 ar
    43   21   22 1
    44   22   43 1
    45   22   44 1
@<TRIPOS>MOLECULE
ZINC01558334
   43    44     0     0     0
SMALL
USER_CHARGES
3-(6-aminopurin-9-yl)nonan-2-ol
@<TRIPOS>ATOM
      1 C1         -2.5792    5.4900    7.5230 C.3       1 <0>        -0.1546
      2 C2         -3.4664    5.7632    6.3068 C.3       1 <0>        -0.1248
      3 C3         -2.6847    5.4605    5.0269 C.3       1 <0>        -0.1207
      4 C4         -3.5719    5.7336    3.8107 C.3       1 <0>        -0.1176
      5 C5         -2.7901    5.4309    2.5308 C.3       1 <0>        -0.1182
      6 C6         -3.6774    5.7041    1.3146 C.3       1 <0>        -0.1274
      7 C7         -2.8586    5.5228    0.0350 C.3       1 <0>         0.1077
      8 H1         -1.9697    6.1521    0.0801 H         1 <0>         0.1111
      9 C8         -3.7063    5.9235   -1.1740 C.3       1 <0>         0.0984
     10 H2         -4.5712    5.2640   -1.2460 H         1 <0>         0.1065
     11 C9         -2.8668    5.8044   -2.4476 C.3       1 <0>        -0.1859
     12 O1         -4.1484    7.2735   -1.0194 O.3       1 <0>        -0.5468
     13 N1         -2.4574    4.1196   -0.0934 N.pl3     1 <0>        -0.4588
     14 C10        -3.2934    3.0461   -0.1775 C.2       1 <0>         0.2624
     15 N2         -2.6001    1.9497   -0.2817 N.2       1 <0>        -0.4645
     16 C11        -1.2789    2.2495   -0.2766 C.ar      1 <0>        -0.1052
     17 C12        -1.1714    3.6449   -0.1502 C.ar      1 <0>         0.2983
     18 N3          0.0359    4.1992   -0.1160 N.ar      1 <0>        -0.5401
     19 C13         1.1186    3.4544   -0.1940 C.ar      1 <0>         0.3489
     20 N4          1.0679    2.1399   -0.3085 N.ar      1 <0>        -0.5500
     21 C14        -0.0946    1.4970   -0.3510 C.ar      1 <0>         0.4564
     22 N5         -0.1377    0.1190   -0.4717 N.pl3     1 <0>        -0.7516
     23 H3         -2.2741    4.4436    7.5225 H         1 <0>         0.0532
     24 H4         -1.6952    6.1262    7.4781 H         1 <0>         0.0536
     25 H5         -3.1361    5.7057    8.4348 H         1 <0>         0.0545
     26 H6         -3.7715    6.8096    6.3073 H         1 <0>         0.0612
     27 H7         -4.3503    5.1270    6.3517 H         1 <0>         0.0605
     28 H8         -2.3796    4.4141    5.0264 H         1 <0>         0.0589
     29 H9         -1.8007    6.0967    4.9820 H         1 <0>         0.0610
     30 H10        -3.8770    6.7801    3.8112 H         1 <0>         0.0643
     31 H11        -4.4558    5.0974    3.8556 H         1 <0>         0.0619
     32 H12        -2.4851    4.3845    2.5303 H         1 <0>         0.0561
     33 H13        -1.9062    6.0671    2.4859 H         1 <0>         0.0640
     34 H14        -4.0552    6.7254    1.3626 H         1 <0>         0.0965
     35 H15        -4.5150    5.0066    1.3119 H         1 <0>         0.0729
     36 H16        -2.5296    4.7746   -2.5655 H         1 <0>         0.0616
     37 H17        -3.4708    6.0898   -3.3089 H         1 <0>         0.0728
     38 H18        -2.0020    6.4639   -2.3756 H         1 <0>         0.0636
     39 H19        -3.4300    7.9170   -0.9488 H         1 <0>         0.3802
     40 H20        -4.3720    3.0980   -0.1607 H         1 <0>         0.2213
     41 H21         2.0845    3.9365   -0.1628 H         1 <0>         0.2081
     42 H22         0.3132   -0.1555   -1.3210 H         1 <0>         0.3673
     43 H23        -0.9924   -0.3387   -0.5016 H         1 <0>         0.3831
@<TRIPOS>BOND
     1    1    2 1
     2    1   23 1
     3    1   24 1
     4    1   25 1
     5    2    3 1
     6    2   26 1
     7    2   27 1
     8    3    4 1
     9    3   28 1
    10    3   29 1
    11    4    5 1
    12    4   30 1
    13    4   31 1
    14    5    6 1
    15    5   32 1
    16    5   33 1
    17    6    7 1
    18    6   34 1
    19    6   35 1
    20    7    8 1
    21    7    9 1
    22    7   13 1
    23    9   10 1
    24    9   11 1
    25    9   12 1
    26   11   36 1
    27   11   37 1
    28   11   38 1
    29   12   39 1
    30   13   17 1
    31   13   14 1
    32   14   15 2
    33   14   40 1
    34   15   16 1
    35   16   21 ar
    36   16   17 ar
    37   17   18 ar
    38   18   19 ar
    39   19   20 ar
    40   19   41 1
    41   20   21 ar
    42   21   22 1
    43   22   42 1
    44   22   43 1
@<TRIPOS>MOLECULE
ZINC01681689
   30    31     0     0     0
SMALL
USER_CHARGES
2-[1-(6-aminopurin-9-yl)-2-oxo-ethoxy]-3-hydroxy-propanal
@<TRIPOS>ATOM
      1 C1          1.1072    2.0112    0.0023 C.ar      1 <0>         0.3495
      2 N1          2.2931    1.4299   -0.0114 N.ar      1 <0>        -0.5728
      3 C2          2.4106    0.1063   -0.0200 C.ar      1 <0>         0.4508
      4 C3          1.2390   -0.6701   -0.0134 C.ar      1 <0>        -0.0608
      5 C4          0.0021   -0.0041    0.0020 C.ar      1 <0>         0.2917
      6 N2         -0.0159    1.3250    0.0093 N.ar      1 <0>        -0.5408
      7 N3         -0.9561   -0.9859    0.0059 N.pl3     1 <0>        -0.4688
      8 C5         -0.3109   -2.1866   -0.0067 C.2       1 <0>         0.2908
      9 N4          0.9769   -1.9991   -0.0180 N.2       1 <0>        -0.4534
     10 C6         -2.4067   -0.7814    0.0201 C.3       1 <0>         0.2703
     11 H1         -2.6338    0.0325   -0.5146 H         1 <0>         0.1032
     12 C7         -2.8740   -0.5957    1.4408 C.2       1 <0>         0.3180
     13 O1         -3.6783   -1.3604    1.9167 O.2       1 <0>        -0.4103
     14 O2         -3.0541   -1.9212   -0.5490 O.3       1 <0>        -0.3374
     15 C8         -4.2905   -1.6225   -1.2002 C.3       1 <0>         0.0404
     16 H2         -4.7191   -0.8353   -0.7568 H         1 <0>         0.0981
     17 C9         -5.2226   -2.8320   -1.1042 C.3       1 <0>         0.0872
     18 O3         -4.6634   -3.9238   -1.8372 O.3       1 <0>        -0.5641
     19 C10        -4.0304   -1.3026   -2.6497 C.2       1 <0>         0.3200
     20 O4         -2.9025   -1.3278   -3.0806 O.2       1 <0>        -0.4268
     21 N5          3.6575   -0.4937   -0.0346 N.pl3     1 <0>        -0.7423
     22 H3          1.0572    3.0900    0.0082 H         1 <0>         0.2086
     23 H4         -0.7967   -3.1512   -0.0078 H         1 <0>         0.2284
     24 H5         -2.4895    0.2214    2.0332 H         1 <0>         0.1227
     25 H6         -5.3399   -3.1182   -0.0590 H         1 <0>         0.0739
     26 H7         -6.1960   -2.5746   -1.5219 H         1 <0>         0.0770
     27 H8         -5.2026   -4.7263   -1.8200 H         1 <0>         0.3888
     28 H9         -4.8526   -1.0509   -3.3031 H         1 <0>         0.1120
     29 H10         3.7609   -1.0673    0.7780 H         1 <0>         0.3710
     30 H11         4.4588    0.0529   -0.0391 H         1 <0>         0.3748
@<TRIPOS>BOND
     1    1    6 ar
     2    1    2 ar
     3    1   22 1
     4    2    3 ar
     5    3    4 ar
     6    3   21 1
     7    4    9 1
     8    4    5 ar
     9    5    6 ar
    10    5    7 1
    11    7    8 1
    12    7   10 1
    13    8    9 2
    14    8   23 1
    15   10   11 1
    16   10   12 1
    17   10   14 1
    18   12   13 2
    19   12   24 1
    20   14   15 1
    21   15   16 1
    22   15   17 1
    23   15   19 1
    24   17   18 1
    25   17   25 1
    26   17   26 1
    27   18   27 1
    28   19   20 2
    29   19   28 1
    30   21   29 1
    31   21   30 1
@<TRIPOS>MOLECULE
ZINC01614354
   43    44     0     0     0
SMALL
USER_CHARGES

@<TRIPOS>ATOM
      1 C1          4.1428   -3.7780   -3.3773 C.3       1 <0>        -0.1547
      2 C2          3.0380   -3.6341   -2.3287 C.3       1 <0>        -0.1247
      3 C3          3.5761   -4.0550   -0.9598 C.3       1 <0>        -0.1208
      4 C4          2.4713   -3.9110    0.0888 C.3       1 <0>        -0.1177
      5 C5          3.0094   -4.3320    1.4578 C.3       1 <0>        -0.1165
      6 C6          1.9046   -4.1880    2.5064 C.3       1 <0>        -0.1347
      7 C7          2.4214   -4.6744    3.8618 C.3       1 <0>         0.1082
      8 H1          3.3342   -4.1360    4.1171 H         1 <0>         0.1174
      9 C8          1.3608   -4.4172    4.9342 C.3       1 <0>         0.0986
     10 H2          0.4308   -4.9103    4.6511 H         1 <0>         0.0649
     11 C9          1.8454   -4.9733    6.2746 C.3       1 <0>        -0.1477
     12 O1          1.1367   -3.0110    5.0549 O.3       1 <0>        -0.5512
     13 N1          2.7050   -6.1098    3.7899 N.pl3     1 <0>        -0.4573
     14 C10         1.8112   -7.0946    3.4906 C.2       1 <0>         0.2467
     15 N2          2.4021   -8.2539    3.5151 N.2       1 <0>        -0.4590
     16 C11         3.7089   -8.0873    3.8308 C.ar      1 <0>        -0.1137
     17 C12         3.9202   -6.7091    4.0055 C.ar      1 <0>         0.3081
     18 N3          5.1371   -6.2769    4.3193 N.ar      1 <0>        -0.5588
     19 C13         6.1340   -7.1247    4.4625 C.ar      1 <0>         0.3653
     20 N4          5.9848   -8.4272    4.3052 N.ar      1 <0>        -0.5936
     21 C14         4.8028   -8.9528    3.9995 C.ar      1 <0>         0.5091
     22 N5          4.6566  -10.3191    3.8356 N.pl3     1 <0>        -0.8178
     23 H3          4.4706   -4.8168   -3.4195 H         1 <0>         0.0531
     24 H4          3.7595   -3.4781   -4.3526 H         1 <0>         0.0544
     25 H5          4.9856   -3.1418   -3.1069 H         1 <0>         0.0538
     26 H6          2.7103   -2.5954   -2.2865 H         1 <0>         0.0611
     27 H7          2.1953   -4.2703   -2.5992 H         1 <0>         0.0602
     28 H8          3.9039   -5.0937   -1.0019 H         1 <0>         0.0591
     29 H9          4.4189   -3.4188   -0.6893 H         1 <0>         0.0616
     30 H10         2.1436   -2.8723    0.1310 H         1 <0>         0.0637
     31 H11         1.6286   -4.5472   -0.1816 H         1 <0>         0.0614
     32 H12         3.3372   -5.3707    1.4156 H         1 <0>         0.0589
     33 H13         3.8522   -3.6958    1.7282 H         1 <0>         0.0665
     34 H14         1.6113   -3.1411    2.5837 H         1 <0>         0.0873
     35 H15         1.0426   -4.7859    2.2104 H         1 <0>         0.0744
     36 H16         2.7754   -4.4803    6.5577 H         1 <0>         0.0671
     37 H17         1.0898   -4.7901    7.0385 H         1 <0>         0.0701
     38 H18         2.0163   -6.0459    6.1824 H         1 <0>         0.0664
     39 H19         0.7398   -2.6072    4.2710 H         1 <0>         0.3801
     40 H20         0.7666   -6.9362    3.2665 H         1 <0>         0.2172
     41 H21         7.1105   -6.7405    4.7178 H         1 <0>         0.2041
     42 H22         3.7912  -10.6897    3.6015 H         1 <0>         0.4188
     43 H23         5.4194  -10.9063    3.9548 H         1 <0>         0.4107
@<TRIPOS>BOND
     1    1    2 1
     2    1   23 1
     3    1   24 1
     4    1   25 1
     5    2    3 1
     6    2   26 1
     7    2   27 1
     8    3    4 1
     9    3   28 1
    10    3   29 1
    11    4    5 1
    12    4   30 1
    13    4   31 1
    14    5    6 1
    15    5   32 1
    16    5   33 1
    17    6    7 1
    18    6   34 1
    19    6   35 1
    20    7    8 1
    21    7    9 1
    22    7   13 1
    23    9   10 1
    24    9   11 1
    25    9   12 1
    26   11   36 1
    27   11   37 1
    28   11   38 1
    29   12   39 1
    30   13   17 1
    31   13   14 1
    32   14   15 2
    33   14   40 1
    34   15   16 1
    35   16   21 ar
    36   16   17 ar
    37   17   18 ar
    38   18   19 ar
    39   19   20 ar
    40   19   41 1
    41   20   21 ar
    42   21   22 1
    43   22   42 1
    44   22   43 1
@<TRIPOS>MOLECULE
ZINC03814314
   30    32     0     0     0
SMALL
USER_CHARGES

@<TRIPOS>ATOM
      1 C1         -0.0159    1.3180    0.0093 C.ar      1 <0>         0.2239
      2 C2          1.2004    2.0027    0.0014 C.ar      1 <0>        -0.0528
      3 C3          2.3904    1.2471   -0.0141 C.ar      1 <0>         0.2838
      4 N1          2.3119   -0.0765   -0.0200 N.ar      1 <0>        -0.5042
      5 C4          1.1395   -0.6756   -0.0117 C.ar      1 <0>         0.3142
      6 N2          0.0021   -0.0041    0.0020 N.ar      1 <0>        -0.5193
      7 N3          3.4159    2.1589   -0.0190 N.pl3     1 <0>        -0.4758
      8 C5          2.8581    3.4019   -0.0070 C.2       1 <0>         0.2907
      9 N4          1.5600    3.3094    0.0049 N.2       1 <0>        -0.4673
     10 C6          4.8483    1.8519   -0.0336 C.3       1 <0>         0.3119
     11 H1          5.0501    0.9580    0.5567 H         1 <0>         0.1239
     12 C7          5.3426    1.6611   -1.4846 C.3       1 <0>         0.0790
     13 H2          4.6912    2.1874   -2.1823 H         1 <0>         0.0858
     14 C8          6.7552    2.2871   -1.4854 C.3       1 <0>         0.0477
     15 H3          6.8022    3.1229   -2.1835 H         1 <0>         0.0882
     16 C9          6.9472    2.7820   -0.0347 C.3       1 <0>         0.0504
     17 H4          7.4727    2.0316    0.5559 H         1 <0>         0.1009
     18 O1          5.6075    2.9710    0.4733 O.3       1 <0>        -0.3467
     19 C10         7.7169    4.1042   -0.0206 C.3       1 <0>         0.0820
     20 O2          7.9851    4.4849    1.3305 O.3       1 <0>        -0.5636
     21 O3          7.7383    1.3041   -1.8162 O.3       1 <0>        -0.5386
     22 O4          5.4074    0.2718   -1.8129 O.3       1 <0>        -0.5266
     23 H5         -0.9518    1.8566    0.0256 H         1 <0>         0.1803
     24 H6          1.1065   -1.7550   -0.0172 H         1 <0>         0.2074
     25 H7          3.4124    4.3288   -0.0073 H         1 <0>         0.2280
     26 H8          8.6578    3.9827   -0.5574 H         1 <0>         0.0678
     27 H9          7.1199    4.8774   -0.5042 H         1 <0>         0.0615
     28 H10         8.4717    5.3162    1.4157 H         1 <0>         0.3874
     29 H11         8.6438    1.6431   -1.8313 H         1 <0>         0.3882
     30 H12         5.7121    0.0942   -2.7133 H         1 <0>         0.3919
@<TRIPOS>BOND
     1    1    6 ar
     2    1    2 ar
     3    1   23 1
     4    2    9 1
     5    2    3 ar
     6    3    4 ar
     7    3    7 1
     8    4    5 ar
     9    5    6 ar
    10    5   24 1
    11    7    8 1
    12    7   10 1
    13    8    9 2
    14    8   25 1
    15   10   11 1
    16   10   18 1
    17   10   12 1
    18   12   13 1
    19   12   14 1
    20   12   22 1
    21   14   15 1
    22   14   16 1
    23   14   21 1
    24   16   17 1
    25   16   18 1
    26   16   19 1
    27   19   20 1
    28   19   26 1
    29   19   27 1
    30   20   28 1
    31   21   29 1
    32   22   30 1
