@<TRIPOS>MOLECULE
ZINC03814313
   34    36     0     0     0
SMALL
USER_CHARGES

@<TRIPOS>ATOM
      1 C1         -0.0168    1.3861    0.0097 C.ar      1 <0>        -0.2443
      2 C2          1.1782    2.0824    0.0020 C.ar      1 <0>         0.2226
      3 N1          2.3382    1.4569   -0.0129 N.ar      1 <0>        -0.4888
      4 C3          2.4172    0.1336   -0.0208 C.ar      1 <0>         0.2727
      5 C4          1.2518   -0.6475   -0.0134 C.ar      1 <0>        -0.0190
      6 C5          0.0021   -0.0041    0.0020 C.ar      1 <0>         0.3894
      7 N2         -1.1804   -0.7364    0.0098 N.pl3     1 <0>        -0.7887
      8 N3          1.6393   -1.9475   -0.0242 N.2       1 <0>        -0.4459
      9 C6          2.9384   -2.0127   -0.0374 C.2       1 <0>         0.3051
     10 N4          3.4679   -0.7577   -0.0360 N.pl3     1 <0>        -0.4678
     11 C7          4.8929   -0.4179   -0.0487 C.3       1 <0>         0.2942
     12 H1          5.0627    0.4803   -0.6424 H         1 <0>         0.1255
     13 C8          5.4104   -0.2158    1.3927 C.3       1 <0>         0.0729
     14 H2          4.7848   -0.7569    2.1025 H         1 <0>         0.0952
     15 C9          6.8368   -0.8092    1.3661 C.3       1 <0>         0.0502
     16 H3          6.9163   -1.6437    2.0628 H         1 <0>         0.0952
     17 C10         7.0122   -1.2997   -0.0882 C.3       1 <0>         0.0495
     18 H4          7.5089   -0.5374   -0.6884 H         1 <0>         0.1065
     19 O1          5.6677   -1.5194   -0.5705 O.3       1 <0>        -0.3359
     20 C11         7.8117   -2.6039   -0.1177 C.3       1 <0>         0.0798
     21 O2          8.0625   -2.9783   -1.4737 O.3       1 <0>        -0.5648
     22 O3          7.8032    0.1960    1.6784 O.3       1 <0>        -0.5394
     23 O4          5.4496    1.1746    1.7202 O.3       1 <0>        -0.5452
     24 H5         -0.9567    1.9179    0.0260 H         1 <0>         0.1890
     25 H6          1.1605    3.1623    0.0080 H         1 <0>         0.2169
     26 H7         -2.0350   -0.2775    0.0208 H         1 <0>         0.4265
     27 H8         -1.1505   -1.7059    0.0043 H         1 <0>         0.4297
     28 H9          3.5127   -2.9273   -0.0481 H         1 <0>         0.2433
     29 H10         8.7596   -2.4607    0.4010 H         1 <0>         0.0733
     30 H11         7.2420   -3.3905    0.3770 H         1 <0>         0.0636
     31 H12         8.5663   -3.7982   -1.5686 H         1 <0>         0.3935
     32 H13         8.7164   -0.1220    1.6760 H         1 <0>         0.3967
     33 H14         5.7674    1.3592    2.6147 H         1 <0>         0.4072
     34 H15         3.1559    1.9787   -0.0185 H         1 <0>         0.4414
@<TRIPOS>BOND
     1    1    6 ar
     2    1    2 ar
     3    1   24 1
     4    2    3 ar
     5    2   25 1
     6    3    4 ar
     7    3   34 1
     8    4   10 1
     9    4    5 ar
    10    5    6 ar
    11    5    8 1
    12    6    7 1
    13    7   26 1
    14    7   27 1
    15    8    9 2
    16    9   10 1
    17    9   28 1
    18   10   11 1
    19   11   12 1
    20   11   19 1
    21   11   13 1
    22   13   14 1
    23   13   15 1
    24   13   23 1
    25   15   16 1
    26   15   17 1
    27   15   22 1
    28   17   18 1
    29   17   19 1
    30   17   20 1
    31   20   21 1
    32   20   29 1
    33   20   30 1
    34   21   31 1
    35   22   32 1
    36   23   33 1
@<TRIPOS>MOLECULE
ZINC03814313
   33    35     0     0     0
SMALL
USER_CHARGES

@<TRIPOS>ATOM
      1 C1         -0.0168    1.3861    0.0097 C.ar      1 <0>        -0.2828
      2 C2          1.1782    2.0824    0.0020 C.ar      1 <0>         0.1858
      3 N1          2.3382    1.4569   -0.0129 N.ar      1 <0>        -0.5191
      4 C3          2.4172    0.1336   -0.0208 C.ar      1 <0>         0.2915
      5 C4          1.2518   -0.6475   -0.0134 C.ar      1 <0>        -0.0681
      6 C5          0.0021   -0.0041    0.0020 C.ar      1 <0>         0.3135
      7 N2         -1.1804   -0.7364    0.0098 N.pl3     1 <0>        -0.8493
      8 N3          1.6393   -1.9475   -0.0242 N.2       1 <0>        -0.4750
      9 C6          2.9384   -2.0127   -0.0374 C.2       1 <0>         0.2645
     10 N4          3.4679   -0.7577   -0.0360 N.pl3     1 <0>        -0.4800
     11 C7          4.8929   -0.4179   -0.0487 C.3       1 <0>         0.3160
     12 H1          5.0627    0.4803   -0.6424 H         1 <0>         0.1211
     13 C8          5.4104   -0.2158    1.3927 C.3       1 <0>         0.0798
     14 H2          4.7848   -0.7569    2.1025 H         1 <0>         0.0847
     15 C9          6.8368   -0.8092    1.3661 C.3       1 <0>         0.0468
     16 H3          6.9163   -1.6437    2.0628 H         1 <0>         0.0862
     17 C10         7.0122   -1.2997   -0.0882 C.3       1 <0>         0.0504
     18 H4          7.5089   -0.5374   -0.6884 H         1 <0>         0.0994
     19 O1          5.6677   -1.5194   -0.5705 O.3       1 <0>        -0.3480
     20 C11         7.8117   -2.6039   -0.1177 C.3       1 <0>         0.0821
     21 O2          8.0625   -2.9783   -1.4737 O.3       1 <0>        -0.5634
     22 O3          7.8032    0.1960    1.6784 O.3       1 <0>        -0.5390
     23 O4          5.4496    1.1746    1.7202 O.3       1 <0>        -0.5251
     24 H5         -0.9567    1.9179    0.0260 H         1 <0>         0.1407
     25 H6          1.1605    3.1623    0.0080 H         1 <0>         0.1653
     26 H7         -2.0350   -0.2775    0.0208 H         1 <0>         0.4044
     27 H8         -1.1505   -1.7059    0.0043 H         1 <0>         0.4091
     28 H9          3.5127   -2.9273   -0.0481 H         1 <0>         0.2186
     29 H10         8.7596   -2.4607    0.4010 H         1 <0>         0.0665
     30 H11         7.2420   -3.3905    0.3770 H         1 <0>         0.0607
     31 H12         8.5663   -3.7982   -1.5686 H         1 <0>         0.3864
     32 H13         8.7164   -0.1220    1.6760 H         1 <0>         0.3867
     33 H14         5.7674    1.3592    2.6147 H         1 <0>         0.3895
@<TRIPOS>BOND
     1    1    6 ar
     2    1    2 ar
     3    1   24 1
     4    2    3 ar
     5    2   25 1
     6    3    4 ar
     7    4   10 1
     8    4    5 ar
     9    5    6 ar
    10    5    8 1
    11    6    7 1
    12    7   26 1
    13    7   27 1
    14    8    9 2
    15    9   10 1
    16    9   28 1
    17   10   11 1
    18   11   12 1
    19   11   19 1
    20   11   13 1
    21   13   14 1
    22   13   15 1
    23   13   23 1
    24   15   16 1
    25   15   17 1
    26   15   22 1
    27   17   18 1
    28   17   19 1
    29   17   20 1
    30   20   21 1
    31   20   29 1
    32   20   30 1
    33   21   31 1
    34   22   32 1
    35   23   33 1
@<TRIPOS>MOLECULE
ZINC03806262
   35    37     0     0     0
SMALL
USER_CHARGES

@<TRIPOS>ATOM
      1 C1         -0.0163    1.3522    0.0095 C.2       1 <0>         0.2156
      2 N1          1.2103    1.7869    0.0001 N.2       1 <0>        -0.4640
      3 C2          2.0633    0.7434   -0.0126 C.2       1 <0>        -0.0272
      4 C3          1.3317   -0.3961   -0.0166 C.2       1 <0>         0.2217
      5 N2          0.0021   -0.0041    0.0020 N.pl3     1 <0>        -0.4628
      6 C4         -1.1651   -0.8893    0.0125 C.3       1 <0>         0.3110
      7 H1         -0.9730   -1.7765   -0.5908 H         1 <0>         0.1110
      8 C5         -1.5224   -1.2909    1.4608 C.3       1 <0>        -0.1897
      9 C6         -3.0672   -1.3227    1.4714 C.3       1 <0>         0.0811
     10 H2         -3.4593   -0.5949    2.1818 H         1 <0>         0.0816
     11 C7         -3.4604   -0.9365    0.0282 C.3       1 <0>         0.0891
     12 H3         -3.6223   -1.8310   -0.5732 H         1 <0>         0.0971
     13 O1         -2.3304   -0.1908   -0.4774 O.3       1 <0>        -0.3562
     14 C8         -4.7180   -0.0651    0.0340 C.3       1 <0>         0.0857
     15 O2         -5.1311    0.1840   -1.3112 O.3       1 <0>        -0.5651
     16 O3         -3.5389   -2.6339    1.7879 O.3       1 <0>        -0.5539
     17 N3          1.7149   -1.6930   -0.0407 N.2       1 <0>        -0.5678
     18 C9          2.8881   -2.1890   -0.0979 C.2       1 <0>         0.4230
     19 N4          4.0487   -1.5019   -0.1101 N.pl3     1 <0>        -0.7538
     20 C10         4.2371   -0.2273   -0.7738 C.3       1 <0>         0.0866
     21 C11         3.5586    0.8968   -0.0151 C.3       1 <0>         0.1771
     22 H4          3.9174    0.8982    1.0141 H         1 <0>         0.0655
     23 O4          3.8981    2.1429   -0.6266 O.3       1 <0>        -0.5404
     24 H5         -0.9025    1.9694    0.0253 H         1 <0>         0.2106
     25 H6         -1.1186   -2.2760    1.6947 H         1 <0>         0.1029
     26 H7         -1.1509   -0.5475    2.1660 H         1 <0>         0.0892
     27 H8         -5.5151   -0.5810    0.5692 H         1 <0>         0.0702
     28 H9         -4.5017    0.8817    0.5288 H         1 <0>         0.0581
     29 H10        -5.9246    0.7318   -1.3839 H         1 <0>         0.3854
     30 H11        -3.2688   -2.9488    2.6614 H         1 <0>         0.3886
     31 H12         2.9595   -3.2658   -0.1405 H         1 <0>         0.1785
     32 H13         4.8074   -1.8862    0.3565 H         1 <0>         0.4034
     33 H14         5.3042   -0.0164   -0.8447 H         1 <0>         0.0970
     34 H15         3.8183   -0.2831   -1.7786 H         1 <0>         0.0743
     35 H16         4.8487    2.3156   -0.6661 H         1 <0>         0.3768
@<TRIPOS>BOND
     1    1    5 1
     2    1    2 2
     3    1   24 1
     4    2    3 1
     5    3   21 1
     6    3    4 2
     7    4    5 1
     8    4   17 1
     9    5    6 1
    10    6    7 1
    11    6   13 1
    12    6    8 1
    13    8    9 1
    14    8   25 1
    15    8   26 1
    16    9   10 1
    17    9   11 1
    18    9   16 1
    19   11   12 1
    20   11   13 1
    21   11   14 1
    22   14   15 1
    23   14   27 1
    24   14   28 1
    25   15   29 1
    26   16   30 1
    27   17   18 2
    28   18   19 1
    29   18   31 1
    30   19   20 1
    31   19   32 1
    32   20   21 1
    33   20   33 1
    34   20   34 1
    35   21   22 1
    36   21   23 1
    37   23   35 1
@<TRIPOS>MOLECULE
ZINC03806262
   36    38     0     0     0
SMALL
USER_CHARGES

@<TRIPOS>ATOM
      1 C1         -0.0163    1.3522    0.0095 C.cat     1 <0>         0.3211
      2 N1          1.2103    1.7869    0.0001 N.pl3     1 <0>        -0.4546
      3 C2          2.0633    0.7434   -0.0126 C.2       1 <0>        -0.0381
      4 C3          1.3317   -0.3961   -0.0166 C.2       1 <0>         0.3236
      5 N2          0.0021   -0.0041    0.0020 N.pl3     1 <0>        -0.4196
      6 C4         -1.1651   -0.8893    0.0125 C.3       1 <0>         0.3016
      7 H1         -0.9730   -1.7765   -0.5908 H         1 <0>         0.1414
      8 C5         -1.5224   -1.2909    1.4608 C.3       1 <0>        -0.1940
      9 C6         -3.0672   -1.3227    1.4714 C.3       1 <0>         0.0828
     10 H2         -3.4593   -0.5949    2.1818 H         1 <0>         0.0891
     11 C7         -3.4604   -0.9365    0.0282 C.3       1 <0>         0.0900
     12 H3         -3.6223   -1.8310   -0.5732 H         1 <0>         0.1080
     13 O1         -2.3304   -0.1908   -0.4774 O.3       1 <0>        -0.3585
     14 C8         -4.7180   -0.0651    0.0340 C.3       1 <0>         0.0840
     15 O2         -5.1311    0.1840   -1.3112 O.3       1 <0>        -0.5665
     16 O3         -3.5389   -2.6339    1.7879 O.3       1 <0>        -0.5478
     17 N3          1.7149   -1.6930   -0.0407 N.2       1 <0>        -0.5854
     18 C9          2.8881   -2.1890   -0.0979 C.2       1 <0>         0.4820
     19 N4          4.0487   -1.5019   -0.1101 N.pl3     1 <0>        -0.7398
     20 C10         4.2371   -0.2273   -0.7738 C.3       1 <0>         0.0771
     21 C11         3.5586    0.8968   -0.0151 C.3       1 <0>         0.1597
     22 H4          3.9174    0.8982    1.0141 H         1 <0>         0.0964
     23 O4          3.8981    2.1429   -0.6266 O.3       1 <0>        -0.5609
     24 H5         -0.9025    1.9694    0.0253 H         1 <0>         0.2637
     25 H6         -1.1186   -2.2760    1.6947 H         1 <0>         0.1166
     26 H7         -1.1509   -0.5475    2.1660 H         1 <0>         0.0937
     27 H8         -5.5151   -0.5810    0.5692 H         1 <0>         0.0782
     28 H9         -4.5017    0.8817    0.5288 H         1 <0>         0.0589
     29 H10        -5.9246    0.7318   -1.3839 H         1 <0>         0.3922
     30 H11        -3.2688   -2.9488    2.6614 H         1 <0>         0.3949
     31 H12         2.9595   -3.2658   -0.1405 H         1 <0>         0.2040
     32 H13         4.8074   -1.8862    0.3565 H         1 <0>         0.4204
     33 H14         5.3042   -0.0164   -0.8447 H         1 <0>         0.1208
     34 H15         3.8183   -0.2831   -1.7786 H         1 <0>         0.0902
     35 H16         4.8487    2.3156   -0.6661 H         1 <0>         0.4096
     36 H17         1.4713    2.7211    0.0020 H         1 <0>         0.4651
@<TRIPOS>BOND
     1    1    5 1
     2    1    2 2
     3    1   24 1
     4    2    3 1
     5    2   36 1
     6    3   21 1
     7    3    4 2
     8    4    5 1
     9    4   17 1
    10    5    6 1
    11    6    7 1
    12    6   13 1
    13    6    8 1
    14    8    9 1
    15    8   25 1
    16    8   26 1
    17    9   10 1
    18    9   11 1
    19    9   16 1
    20   11   12 1
    21   11   13 1
    22   11   14 1
    23   14   15 1
    24   14   27 1
    25   14   28 1
    26   15   29 1
    27   16   30 1
    28   17   18 2
    29   18   19 1
    30   18   31 1
    31   19   20 1
    32   19   32 1
    33   20   21 1
    34   20   33 1
    35   20   34 1
    36   21   22 1
    37   21   23 1
    38   23   35 1
@<TRIPOS>MOLECULE
ZINC12405544
   44    45     0     0     0
SMALL
USER_CHARGES
(2S,3R)-3-(4-aminoimidazo[4,5-c]pyridin-1-yl)nonan-2-ol
@<TRIPOS>ATOM
      1 C1          0.1018   -7.5458   -4.7339 C.3       1 <0>        -0.1554
      2 C2         -0.1434   -6.0701   -4.4131 C.3       1 <0>        -0.1270
      3 C3          0.6849   -5.6694   -3.1907 C.3       1 <0>        -0.1186
      4 C4          0.4396   -4.1936   -2.8699 C.3       1 <0>        -0.1209
      5 C5          1.2680   -3.7929   -1.6476 C.3       1 <0>        -0.1167
      6 C6          1.0227   -2.3172   -1.3268 C.3       1 <0>        -0.1235
      7 C7          1.9535   -1.8800   -0.1939 C.3       1 <0>         0.1509
      8 H1          3.0034   -2.0749   -0.4580 H         1 <0>         0.1062
      9 C8          1.5749   -2.6191    1.0912 C.3       1 <0>         0.1088
     10 H2          0.4980   -2.5333    1.2983 H         1 <0>         0.0603
     11 C9          2.4082   -2.0784    2.2548 C.3       1 <0>        -0.1870
     12 O1          1.8310   -4.0158    0.9304 O.3       1 <0>        -0.5853
     13 N1          1.8221   -0.4362    0.0164 N.pl3     1 <0>        -0.4754
     14 C10         0.6836    0.2297    0.3591 C.2       1 <0>         0.2339
     15 N2          0.9266    1.5040    0.4624 N.2       1 <0>        -0.4676
     16 C11         2.2341    1.7404    0.1936 C.ar      1 <0>        -0.0698
     17 C12         2.8241    0.4977   -0.0958 C.ar      1 <0>         0.1255
     18 C13         4.1806    0.4592   -0.4101 C.ar      1 <0>        -0.2394
     19 C14         4.8918    1.6260   -0.4269 C.ar      1 <0>         0.1612
     20 N3          4.3209    2.7880   -0.1519 N.ar      1 <0>        -0.5693
     21 C15         3.0382    2.8896    0.1534 C.ar      1 <0>         0.4859
     22 N4          2.4873    4.1329    0.4344 N.pl3     1 <0>        -0.8563
     23 H3         -0.4937   -7.8338   -5.6128 H         1 <0>         0.0535
     24 H4         -0.1941   -8.1624   -3.8724 H         1 <0>         0.0539
     25 H5          1.1695   -7.7021   -4.9472 H         1 <0>         0.0538
     26 H6          0.1525   -5.4535   -5.2746 H         1 <0>         0.0599
     27 H7         -1.2111   -5.9137   -4.1998 H         1 <0>         0.0602
     28 H8          0.3890   -6.2860   -2.3292 H         1 <0>         0.0621
     29 H9          1.7526   -5.8257   -3.4040 H         1 <0>         0.0608
     30 H10         0.7354   -3.5770   -3.7315 H         1 <0>         0.0574
     31 H11        -0.6281   -4.0373   -2.6565 H         1 <0>         0.0595
     32 H12         0.9722   -4.4095   -0.7860 H         1 <0>         0.0953
     33 H13         2.3357   -3.9492   -1.8610 H         1 <0>         0.0605
     34 H14         1.2232   -1.7093   -2.2214 H         1 <0>         0.0691
     35 H15        -0.0234   -2.1784   -1.0161 H         1 <0>         0.0698
     36 H16         2.1360   -2.6098    3.1787 H         1 <0>         0.0644
     37 H17         2.2111   -1.0033    2.3785 H         1 <0>         0.0636
     38 H18         3.4766   -2.2334    2.0438 H         1 <0>         0.0658
     39 H19         1.6192   -4.7123    1.7550 H         1 <0>         0.4127
     40 H20        -0.2791   -0.2323    0.5208 H         1 <0>         0.2090
     41 H21         4.6635   -0.4797   -0.6375 H         1 <0>         0.1260
     42 H22         5.9438    1.5993   -0.6698 H         1 <0>         0.1591
     43 H23         3.1178    5.0337    0.4028 H         1 <0>         0.4263
     44 H24         1.4204    4.2170    0.6886 H         1 <0>         0.4368
@<TRIPOS>BOND
     1    1    2 1
     2    1   23 1
     3    1   24 1
     4    1   25 1
     5    2    3 1
     6    2   26 1
     7    2   27 1
     8    3    4 1
     9    3   28 1
    10    3   29 1
    11    4    5 1
    12    4   30 1
    13    4   31 1
    14    5    6 1
    15    5   32 1
    16    5   33 1
    17    6    7 1
    18    6   34 1
    19    6   35 1
    20    7    8 1
    21    7    9 1
    22    7   13 1
    23    9   10 1
    24    9   11 1
    25    9   12 1
    26   11   36 1
    27   11   37 1
    28   11   38 1
    29   12   39 1
    30   13   17 1
    31   13   14 1
    32   14   15 2
    33   14   40 1
    34   15   16 1
    35   16   21 ar
    36   16   17 ar
    37   17   18 ar
    38   18   19 ar
    39   18   41 1
    40   19   20 ar
    41   19   42 1
    42   20   21 ar
    43   21   22 1
    44   22   43 1
    45   22   44 1
@<TRIPOS>MOLECULE
ZINC13821002
   44    45     0     0     0
SMALL
USER_CHARGES
(2R,3S)-3-(4-aminoimidazo[4,5-c]pyridin-1-yl)nonan-2-ol
@<TRIPOS>ATOM
      1 C1         -7.9548   -2.1953    3.6541 C.3       1 <0>        -0.1560
      2 C2         -6.7102   -1.3057    3.6284 C.3       1 <0>        -0.1267
      3 C3         -5.7587   -1.7914    2.5331 C.3       1 <0>        -0.1215
      4 C4         -4.5141   -0.9018    2.5074 C.3       1 <0>        -0.1204
      5 C5         -3.5626   -1.3875    1.4122 C.3       1 <0>        -0.1196
      6 C6         -2.3181   -0.4979    1.3865 C.3       1 <0>        -0.1309
      7 C7         -1.3756   -0.9712    0.2780 C.3       1 <0>         0.1510
      8 H1         -1.1143   -2.0306    0.4176 H         1 <0>         0.1045
      9 C8         -2.0400   -0.7549   -1.0831 C.3       1 <0>         0.1017
     10 H2         -2.9360   -1.3834   -1.1939 H         1 <0>         0.0729
     11 C9         -2.3772    0.7274   -1.2563 C.3       1 <0>        -0.2060
     12 O1         -1.1460   -1.1643   -2.1200 O.3       1 <0>        -0.5940
     13 N1         -0.1273   -0.2070    0.3390 N.pl3     1 <0>        -0.4673
     14 C10        -0.0114    1.1507    0.3511 C.2       1 <0>         0.2292
     15 N2          1.2436    1.4903    0.4095 N.2       1 <0>        -0.4712
     16 C11         2.0149    0.3758    0.4388 C.ar      1 <0>        -0.0709
     17 C12         1.1438   -0.7265    0.3939 C.ar      1 <0>         0.1325
     18 C13         1.6877   -2.0089    0.4114 C.ar      1 <0>        -0.2335
     19 C14         3.0452   -2.1537    0.4714 C.ar      1 <0>         0.1568
     20 N3          3.8515   -1.1049    0.5135 N.ar      1 <0>        -0.5705
     21 C15         3.3961    0.1366    0.4998 C.ar      1 <0>         0.4842
     22 N4          4.2844    1.2029    0.5458 N.pl3     1 <0>        -0.8577
     23 H3         -8.6389   -1.8461    4.4416 H         1 <0>         0.0545
     24 H4         -7.6585   -3.2344    3.8600 H         1 <0>         0.0541
     25 H5         -8.4617   -2.1449    2.6792 H         1 <0>         0.0539
     26 H6         -7.0065   -0.2666    3.4225 H         1 <0>         0.0611
     27 H7         -6.2033   -1.3561    4.6033 H         1 <0>         0.0613
     28 H8         -5.4625   -2.8306    2.7391 H         1 <0>         0.0624
     29 H9         -6.2656   -1.7410    1.5582 H         1 <0>         0.0620
     30 H10        -4.8104    0.1373    2.3014 H         1 <0>         0.0639
     31 H11        -4.0072   -0.9521    3.4823 H         1 <0>         0.0641
     32 H12        -3.2664   -2.4266    1.6182 H         1 <0>         0.0686
     33 H13        -4.0695   -1.3372    0.4373 H         1 <0>         0.0686
     34 H14        -2.6158    0.5436    1.1948 H         1 <0>         0.0804
     35 H15        -1.8033   -0.5595    2.3566 H         1 <0>         0.0799
     36 H16        -2.8549    0.8828   -2.2349 H         1 <0>         0.0665
     37 H17        -1.4537    1.3225   -1.2004 H         1 <0>         0.0746
     38 H18        -3.0654    1.0426   -0.4581 H         1 <0>         0.0739
     39 H19        -1.4514   -1.0825   -3.1736 H         1 <0>         0.4116
     40 H20        -0.8392    1.8433    0.3130 H         1 <0>         0.2094
     41 H21         1.0454   -2.8765    0.3776 H         1 <0>         0.1241
     42 H22         3.4698   -3.1467    0.4851 H         1 <0>         0.1576
     43 H23         5.3672    1.0150    0.5936 H         1 <0>         0.4251
     44 H24         3.9053    2.2354    0.5344 H         1 <0>         0.4358
@<TRIPOS>BOND
     1    1    2 1
     2    1   23 1
     3    1   24 1
     4    1   25 1
     5    2    3 1
     6    2   26 1
     7    2   27 1
     8    3    4 1
     9    3   28 1
    10    3   29 1
    11    4    5 1
    12    4   30 1
    13    4   31 1
    14    5    6 1
    15    5   32 1
    16    5   33 1
    17    6    7 1
    18    6   34 1
    19    6   35 1
    20    7    8 1
    21    7    9 1
    22    7   13 1
    23    9   10 1
    24    9   11 1
    25    9   12 1
    26   11   36 1
    27   11   37 1
    28   11   38 1
    29   12   39 1
    30   13   17 1
    31   13   14 1
    32   14   15 2
    33   14   40 1
    34   15   16 1
    35   16   21 ar
    36   16   17 ar
    37   17   18 ar
    38   18   19 ar
    39   18   41 1
    40   19   20 ar
    41   19   42 1
    42   20   21 ar
    43   21   22 1
    44   22   43 1
    45   22   44 1
@<TRIPOS>MOLECULE
ZINC28220264
   44    45     0     0     0
SMALL
USER_CHARGES
(2R,3R)-3-(4-aminoimidazo[4,5-c]pyridin-1-yl)nonan-2-ol
@<TRIPOS>ATOM
      1 C1          6.5452    1.3030    3.7113 C.3       1 <0>        -0.1559
      2 C2          5.7828    1.8320    2.4949 C.3       1 <0>        -0.1254
      3 C3          4.3926    1.1948    2.4476 C.3       1 <0>        -0.1215
      4 C4          3.6302    1.7239    1.2312 C.3       1 <0>        -0.1177
      5 C5          2.2399    1.0867    1.1840 C.3       1 <0>        -0.1201
      6 C6          1.4775    1.6158   -0.0325 C.3       1 <0>        -0.1310
      7 C7          0.0474    1.0722   -0.0140 C.3       1 <0>         0.1509
      8 H1          0.0505   -0.0232    0.0869 H         1 <0>         0.1050
      9 C8         -0.6748    1.4933   -1.2954 C.3       1 <0>         0.1028
     10 H2         -0.6843    2.5876   -1.4067 H         1 <0>         0.0594
     11 C9         -0.0131    0.8189   -2.4989 C.3       1 <0>        -0.1865
     12 O1         -2.0458    1.0972   -1.2216 O.3       1 <0>        -0.5931
     13 N1         -0.6647    1.6109    1.1474 N.pl3     1 <0>        -0.4647
     14 C10        -0.8908    2.9274    1.4169 C.2       1 <0>         0.2361
     15 N2         -1.5561    3.0467    2.5290 N.2       1 <0>        -0.4711
     16 C11        -1.7928    1.8182    3.0509 C.ar      1 <0>        -0.0699
     17 C12        -1.2233    0.8823    2.1700 C.ar      1 <0>         0.1323
     18 C13        -1.3266   -0.4726    2.4767 C.ar      1 <0>        -0.2353
     19 C14        -1.9757   -0.8472    3.6195 C.ar      1 <0>         0.1566
     20 N3         -2.5064    0.0470    4.4383 N.ar      1 <0>        -0.5709
     21 C15        -2.4414    1.3466    4.2022 C.ar      1 <0>         0.4842
     22 N4         -3.0148    2.2441    5.0933 N.pl3     1 <0>        -0.8579
     23 H3          7.5447    1.7611    3.7453 H         1 <0>         0.0545
     24 H4          6.6451    0.2102    3.6346 H         1 <0>         0.0540
     25 H5          5.9939    1.5573    4.6286 H         1 <0>         0.0539
     26 H6          5.6829    2.9248    2.5716 H         1 <0>         0.0607
     27 H7          6.3341    1.5777    1.5776 H         1 <0>         0.0609
     28 H8          4.4926    0.1020    2.3708 H         1 <0>         0.0617
     29 H9          3.8413    1.4490    3.3649 H         1 <0>         0.0608
     30 H10         3.5303    2.8167    1.3080 H         1 <0>         0.0622
     31 H11         4.1814    1.4696    0.3139 H         1 <0>         0.0633
     32 H12         2.3398   -0.0061    1.1073 H         1 <0>         0.0654
     33 H13         1.6886    1.3410    2.1013 H         1 <0>         0.0638
     34 H14         1.4524    2.7150    0.0002 H         1 <0>         0.0763
     35 H15         1.9826    1.2878   -0.9530 H         1 <0>         0.0909
     36 H16        -0.5323    1.1217   -3.4202 H         1 <0>         0.0671
     37 H17        -0.0735   -0.2736   -2.3860 H         1 <0>         0.0686
     38 H18         1.0423    1.1239   -2.5557 H         1 <0>         0.0723
     39 H19        -2.7273    1.3162   -2.0568 H         1 <0>         0.4121
     40 H20        -0.5674    3.7507    0.7973 H         1 <0>         0.2045
     41 H21        -0.9000   -1.2166    1.8204 H         1 <0>         0.1230
     42 H22        -2.0577   -1.8970    3.8598 H         1 <0>         0.1569
     43 H23        -3.5232    1.8741    5.9959 H         1 <0>         0.4248
     44 H24        -2.9606    3.3250    4.8966 H         1 <0>         0.4358
@<TRIPOS>BOND
     1    1    2 1
     2    1   23 1
     3    1   24 1
     4    1   25 1
     5    2    3 1
     6    2   26 1
     7    2   27 1
     8    3    4 1
     9    3   28 1
    10    3   29 1
    11    4    5 1
    12    4   30 1
    13    4   31 1
    14    5    6 1
    15    5   32 1
    16    5   33 1
    17    6    7 1
    18    6   34 1
    19    6   35 1
    20    7    8 1
    21    7    9 1
    22    7   13 1
    23    9   10 1
    24    9   11 1
    25    9   12 1
    26   11   36 1
    27   11   37 1
    28   11   38 1
    29   12   39 1
    30   13   17 1
    31   13   14 1
    32   14   15 2
    33   14   40 1
    34   15   16 1
    35   16   21 ar
    36   16   17 ar
    37   17   18 ar
    38   18   19 ar
    39   18   41 1
    40   19   20 ar
    41   19   42 1
    42   20   21 ar
    43   21   22 1
    44   22   43 1
    45   22   44 1
@<TRIPOS>MOLECULE
ZINC28220268
   44    45     0     0     0
SMALL
USER_CHARGES
(2S,3S)-3-(4-aminoimidazo[4,5-c]pyridin-1-yl)nonan-2-ol
@<TRIPOS>ATOM
      1 C1         -4.7470    5.2456    7.2048 C.3       1 <0>        -0.1560
      2 C2         -4.1534    6.1651    6.1356 C.3       1 <0>        -0.1254
      3 C3         -4.2450    5.4836    4.7688 C.3       1 <0>        -0.1216
      4 C4         -3.6515    6.4031    3.6997 C.3       1 <0>        -0.1180
      5 C5         -3.7431    5.7216    2.3329 C.3       1 <0>        -0.1189
      6 C6         -3.1495    6.6411    1.2638 C.3       1 <0>        -0.1310
      7 C7         -3.3447    6.0108   -0.1166 C.3       1 <0>         0.1510
      8 H1         -4.4017    5.7530   -0.2788 H         1 <0>         0.1051
      9 C8         -2.8553    6.9806   -1.1940 C.3       1 <0>         0.1028
     10 H2         -1.7915    7.2248   -1.0574 H         1 <0>         0.0593
     11 C9         -3.7208    8.2421   -1.1758 C.3       1 <0>        -0.1866
     12 O1         -2.9504    6.3561   -2.4758 O.3       1 <0>        -0.5934
     13 N1         -2.5788    4.7645   -0.1970 N.pl3     1 <0>        -0.4652
     14 C10        -1.2299    4.6350   -0.0539 C.2       1 <0>         0.2355
     15 N2         -0.8856    3.3869   -0.1854 N.2       1 <0>        -0.4710
     16 C11        -1.9887    2.6331   -0.4154 C.ar      1 <0>        -0.0702
     17 C12        -3.0876    3.5096   -0.4313 C.ar      1 <0>         0.1326
     18 C13        -4.3581    2.9840   -0.6556 C.ar      1 <0>        -0.2352
     19 C14        -4.4943    1.6394   -0.8577 C.ar      1 <0>         0.1567
     20 N3         -3.4481    0.8286   -0.8454 N.ar      1 <0>        -0.5710
     21 C15        -2.2178    1.2669   -0.6380 C.ar      1 <0>         0.4843
     22 N4         -1.1538    0.3746   -0.6348 N.pl3     1 <0>        -0.8579
     23 H3         -4.6811    5.7356    8.1874 H         1 <0>         0.0544
     24 H4         -4.1854    4.3001    7.2281 H         1 <0>         0.0539
     25 H5         -5.8012    5.0401    6.9675 H         1 <0>         0.0540
     26 H6         -4.7150    7.1106    6.1123 H         1 <0>         0.0609
     27 H7         -3.0992    6.3706    6.3729 H         1 <0>         0.0607
     28 H8         -3.6833    4.5381    4.7922 H         1 <0>         0.0609
     29 H9         -5.2992    5.2780    4.5315 H         1 <0>         0.0617
     30 H10        -4.2132    7.3486    3.6764 H         1 <0>         0.0633
     31 H11        -2.5973    6.6087    3.9370 H         1 <0>         0.0625
     32 H12        -3.1815    4.7761    2.3563 H         1 <0>         0.0634
     33 H13        -4.7973    5.5161    2.0956 H         1 <0>         0.0647
     34 H14        -3.6567    7.6166    1.2965 H         1 <0>         0.0914
     35 H15        -2.0752    6.7799    1.4549 H         1 <0>         0.0761
     36 H16        -3.3689    8.9394   -1.9504 H         1 <0>         0.0671
     37 H17        -3.6475    8.7228   -0.1891 H         1 <0>         0.0725
     38 H18        -4.7682    7.9711   -1.3748 H         1 <0>         0.0687
     39 H19        -2.6414    6.9034   -3.3785 H         1 <0>         0.4122
     40 H20        -0.5467    5.4488    0.1396 H         1 <0>         0.2047
     41 H21        -5.2234    3.6302   -0.6692 H         1 <0>         0.1230
     42 H22        -5.4779    1.2289   -1.0319 H         1 <0>         0.1569
     43 H23        -1.3337   -0.6965   -0.8093 H         1 <0>         0.4248
     44 H24        -0.1311    0.7388   -0.4577 H         1 <0>         0.4358
@<TRIPOS>BOND
     1    1    2 1
     2    1   23 1
     3    1   24 1
     4    1   25 1
     5    2    3 1
     6    2   26 1
     7    2   27 1
     8    3    4 1
     9    3   28 1
    10    3   29 1
    11    4    5 1
    12    4   30 1
    13    4   31 1
    14    5    6 1
    15    5   32 1
    16    5   33 1
    17    6    7 1
    18    6   34 1
    19    6   35 1
    20    7    8 1
    21    7    9 1
    22    7   13 1
    23    9   10 1
    24    9   11 1
    25    9   12 1
    26   11   36 1
    27   11   37 1
    28   11   38 1
    29   12   39 1
    30   13   17 1
    31   13   14 1
    32   14   15 2
    33   14   40 1
    34   15   16 1
    35   16   21 ar
    36   16   17 ar
    37   17   18 ar
    38   18   19 ar
    39   18   41 1
    40   19   20 ar
    41   19   42 1
    42   20   21 ar
    43   21   22 1
    44   22   43 1
    45   22   44 1
@<TRIPOS>MOLECULE
ZINC01558334
   43    44     0     0     0
SMALL
USER_CHARGES
3-(6-aminopurin-9-yl)nonan-2-ol
@<TRIPOS>ATOM
      1 C1         -2.5792    5.4900    7.5230 C.3       1 <0>        -0.1546
      2 C2         -3.4664    5.7632    6.3068 C.3       1 <0>        -0.1248
      3 C3         -2.6847    5.4605    5.0269 C.3       1 <0>        -0.1207
      4 C4         -3.5719    5.7336    3.8107 C.3       1 <0>        -0.1176
      5 C5         -2.7901    5.4309    2.5308 C.3       1 <0>        -0.1182
      6 C6         -3.6774    5.7041    1.3146 C.3       1 <0>        -0.1274
      7 C7         -2.8586    5.5228    0.0350 C.3       1 <0>         0.1077
      8 H1         -1.9697    6.1521    0.0801 H         1 <0>         0.1111
      9 C8         -3.7063    5.9235   -1.1740 C.3       1 <0>         0.0984
     10 H2         -4.5712    5.2640   -1.2460 H         1 <0>         0.1065
     11 C9         -2.8668    5.8044   -2.4476 C.3       1 <0>        -0.1859
     12 O1         -4.1484    7.2735   -1.0194 O.3       1 <0>        -0.5468
     13 N1         -2.4574    4.1196   -0.0934 N.pl3     1 <0>        -0.4588
     14 C10        -3.2934    3.0461   -0.1775 C.2       1 <0>         0.2624
     15 N2         -2.6001    1.9497   -0.2817 N.2       1 <0>        -0.4645
     16 C11        -1.2789    2.2495   -0.2766 C.ar      1 <0>        -0.1052
     17 C12        -1.1714    3.6449   -0.1502 C.ar      1 <0>         0.2983
     18 N3          0.0359    4.1992   -0.1160 N.ar      1 <0>        -0.5401
     19 C13         1.1186    3.4544   -0.1940 C.ar      1 <0>         0.3489
     20 N4          1.0679    2.1399   -0.3085 N.ar      1 <0>        -0.5500
     21 C14        -0.0946    1.4970   -0.3510 C.ar      1 <0>         0.4564
     22 N5         -0.1377    0.1190   -0.4717 N.pl3     1 <0>        -0.7516
     23 H3         -2.2741    4.4436    7.5225 H         1 <0>         0.0532
     24 H4         -1.6952    6.1262    7.4781 H         1 <0>         0.0536
     25 H5         -3.1361    5.7057    8.4348 H         1 <0>         0.0545
     26 H6         -3.7715    6.8096    6.3073 H         1 <0>         0.0612
     27 H7         -4.3503    5.1270    6.3517 H         1 <0>         0.0605
     28 H8         -2.3796    4.4141    5.0264 H         1 <0>         0.0589
     29 H9         -1.8007    6.0967    4.9820 H         1 <0>         0.0610
     30 H10        -3.8770    6.7801    3.8112 H         1 <0>         0.0643
     31 H11        -4.4558    5.0974    3.8556 H         1 <0>         0.0619
     32 H12        -2.4851    4.3845    2.5303 H         1 <0>         0.0561
     33 H13        -1.9062    6.0671    2.4859 H         1 <0>         0.0640
     34 H14        -4.0552    6.7254    1.3626 H         1 <0>         0.0965
     35 H15        -4.5150    5.0066    1.3119 H         1 <0>         0.0729
     36 H16        -2.5296    4.7746   -2.5655 H         1 <0>         0.0616
     37 H17        -3.4708    6.0898   -3.3089 H         1 <0>         0.0728
     38 H18        -2.0020    6.4639   -2.3756 H         1 <0>         0.0636
     39 H19        -3.4300    7.9170   -0.9488 H         1 <0>         0.3802
     40 H20        -4.3720    3.0980   -0.1607 H         1 <0>         0.2213
     41 H21         2.0845    3.9365   -0.1628 H         1 <0>         0.2081
     42 H22         0.3132   -0.1555   -1.3210 H         1 <0>         0.3673
     43 H23        -0.9924   -0.3387   -0.5016 H         1 <0>         0.3831
@<TRIPOS>BOND
     1    1    2 1
     2    1   23 1
     3    1   24 1
     4    1   25 1
     5    2    3 1
     6    2   26 1
     7    2   27 1
     8    3    4 1
     9    3   28 1
    10    3   29 1
    11    4    5 1
    12    4   30 1
    13    4   31 1
    14    5    6 1
    15    5   32 1
    16    5   33 1
    17    6    7 1
    18    6   34 1
    19    6   35 1
    20    7    8 1
    21    7    9 1
    22    7   13 1
    23    9   10 1
    24    9   11 1
    25    9   12 1
    26   11   36 1
    27   11   37 1
    28   11   38 1
    29   12   39 1
    30   13   17 1
    31   13   14 1
    32   14   15 2
    33   14   40 1
    34   15   16 1
    35   16   21 ar
    36   16   17 ar
    37   17   18 ar
    38   18   19 ar
    39   19   20 ar
    40   19   41 1
    41   20   21 ar
    42   21   22 1
    43   22   42 1
    44   22   43 1
@<TRIPOS>MOLECULE
ZINC01614355
   43    44     0     0     0
SMALL
USER_CHARGES
3-(6-aminopurin-9-yl)nonan-2-ol
@<TRIPOS>ATOM
      1 C1         -6.9756   -8.7630   -4.1837 C.3       1 <0>        -0.1548
      2 C2         -6.5228   -7.3112   -4.0159 C.3       1 <0>        -0.1261
      3 C3         -5.5700   -7.2087   -2.8232 C.3       1 <0>        -0.1211
      4 C4         -5.1172   -5.7569   -2.6554 C.3       1 <0>        -0.1198
      5 C5         -4.1644   -5.6544   -1.4627 C.3       1 <0>        -0.1195
      6 C6         -3.7116   -4.2026   -1.2950 C.3       1 <0>        -0.1344
      7 C7         -2.6597   -4.1213   -0.1869 C.3       1 <0>         0.1057
      8 H1         -1.8459   -4.8121   -0.4071 H         1 <0>         0.1179
      9 C8         -3.2988   -4.4962    1.1516 C.3       1 <0>         0.0940
     10 H2         -3.7064   -5.5052    1.0897 H         1 <0>         0.0837
     11 C9         -2.2408   -4.4404    2.2554 C.3       1 <0>        -0.1478
     12 O1         -4.3497   -3.5756    1.4522 O.3       1 <0>        -0.5575
     13 N1         -2.1342   -2.7558   -0.1117 N.pl3     1 <0>        -0.4605
     14 C10        -2.8517   -1.6293    0.1614 C.2       1 <0>         0.2815
     15 N2         -2.0688   -0.5898    0.1499 N.2       1 <0>        -0.4738
     16 C11        -0.8005   -0.9834   -0.1181 C.ar      1 <0>        -0.1024
     17 C12        -0.8269   -2.3782   -0.2870 C.ar      1 <0>         0.2912
     18 N3          0.3067   -3.0179   -0.5550 N.ar      1 <0>        -0.5407
     19 C13         1.4397   -2.3570   -0.6669 C.ar      1 <0>         0.3458
     20 N4          1.5131   -1.0466   -0.5225 N.ar      1 <0>        -0.5498
     21 C14         0.4318   -0.3221   -0.2531 C.ar      1 <0>         0.4538
     22 N5          0.5187    1.0510   -0.1035 N.pl3     1 <0>        -0.7520
     23 H3         -7.4888   -9.0903   -3.2795 H         1 <0>         0.0538
     24 H4         -7.6544   -8.8360   -5.0334 H         1 <0>         0.0543
     25 H5         -6.1062   -9.3970   -4.3577 H         1 <0>         0.0538
     26 H6         -7.3922   -6.6772   -3.8420 H         1 <0>         0.0610
     27 H7         -6.0095   -6.9839   -4.9201 H         1 <0>         0.0607
     28 H8         -4.7006   -7.8427   -2.9972 H         1 <0>         0.0622
     29 H9         -6.0833   -7.5360   -1.9190 H         1 <0>         0.0622
     30 H10        -5.9866   -5.1229   -2.4815 H         1 <0>         0.0641
     31 H11        -4.6040   -5.4296   -3.5596 H         1 <0>         0.0634
     32 H12        -3.2950   -6.2884   -1.6367 H         1 <0>         0.0700
     33 H13        -4.6777   -5.9817   -0.5585 H         1 <0>         0.0686
     34 H14        -4.5682   -3.5833   -1.0289 H         1 <0>         0.0733
     35 H15        -3.2819   -3.8456   -2.2309 H         1 <0>         0.0783
     36 H16        -1.9068   -3.4112    2.3869 H         1 <0>         0.0592
     37 H17        -2.6698   -4.8052    3.1887 H         1 <0>         0.0706
     38 H18        -1.3920   -5.0651    1.9770 H         1 <0>         0.0740
     39 H19        -5.0572   -3.5576    0.7932 H         1 <0>         0.3773
     40 H20        -3.9149   -1.6022    0.3497 H         1 <0>         0.2225
     41 H21         2.3430   -2.9073   -0.8853 H         1 <0>         0.2079
     42 H22         1.1352    1.2654    0.6541 H         1 <0>         0.3667
     43 H23        -0.2783    1.5692    0.0890 H         1 <0>         0.3827
@<TRIPOS>BOND
     1    1    2 1
     2    1   23 1
     3    1   24 1
     4    1   25 1
     5    2    3 1
     6    2   26 1
     7    2   27 1
     8    3    4 1
     9    3   28 1
    10    3   29 1
    11    4    5 1
    12    4   30 1
    13    4   31 1
    14    5    6 1
    15    5   32 1
    16    5   33 1
    17    6    7 1
    18    6   34 1
    19    6   35 1
    20    7    8 1
    21    7    9 1
    22    7   13 1
    23    9   10 1
    24    9   11 1
    25    9   12 1
    26   11   36 1
    27   11   37 1
    28   11   38 1
    29   12   39 1
    30   13   17 1
    31   13   14 1
    32   14   15 2
    33   14   40 1
    34   15   16 1
    35   16   21 ar
    36   16   17 ar
    37   17   18 ar
    38   18   19 ar
    39   19   20 ar
    40   19   41 1
    41   20   21 ar
    42   21   22 1
    43   22   42 1
    44   22   43 1
@<TRIPOS>MOLECULE
ZINC01614354
   43    44     0     0     0
SMALL
USER_CHARGES

@<TRIPOS>ATOM
      1 C1          4.1428   -3.7780   -3.3773 C.3       1 <0>        -0.1547
      2 C2          3.0380   -3.6341   -2.3287 C.3       1 <0>        -0.1247
      3 C3          3.5761   -4.0550   -0.9598 C.3       1 <0>        -0.1208
      4 C4          2.4713   -3.9110    0.0888 C.3       1 <0>        -0.1177
      5 C5          3.0094   -4.3320    1.4578 C.3       1 <0>        -0.1165
      6 C6          1.9046   -4.1880    2.5064 C.3       1 <0>        -0.1347
      7 C7          2.4214   -4.6744    3.8618 C.3       1 <0>         0.1082
      8 H1          3.3342   -4.1360    4.1171 H         1 <0>         0.1174
      9 C8          1.3608   -4.4172    4.9342 C.3       1 <0>         0.0986
     10 H2          0.4308   -4.9103    4.6511 H         1 <0>         0.0649
     11 C9          1.8454   -4.9733    6.2746 C.3       1 <0>        -0.1477
     12 O1          1.1367   -3.0110    5.0549 O.3       1 <0>        -0.5512
     13 N1          2.7050   -6.1098    3.7899 N.pl3     1 <0>        -0.4573
     14 C10         1.8112   -7.0946    3.4906 C.2       1 <0>         0.2467
     15 N2          2.4021   -8.2539    3.5151 N.2       1 <0>        -0.4590
     16 C11         3.7089   -8.0873    3.8308 C.ar      1 <0>        -0.1137
     17 C12         3.9202   -6.7091    4.0055 C.ar      1 <0>         0.3081
     18 N3          5.1371   -6.2769    4.3193 N.ar      1 <0>        -0.5588
     19 C13         6.1340   -7.1247    4.4625 C.ar      1 <0>         0.3653
     20 N4          5.9848   -8.4272    4.3052 N.ar      1 <0>        -0.5936
     21 C14         4.8028   -8.9528    3.9995 C.ar      1 <0>         0.5091
     22 N5          4.6566  -10.3191    3.8356 N.pl3     1 <0>        -0.8178
     23 H3          4.4706   -4.8168   -3.4195 H         1 <0>         0.0531
     24 H4          3.7595   -3.4781   -4.3526 H         1 <0>         0.0544
     25 H5          4.9856   -3.1418   -3.1069 H         1 <0>         0.0538
     26 H6          2.7103   -2.5954   -2.2865 H         1 <0>         0.0611
     27 H7          2.1953   -4.2703   -2.5992 H         1 <0>         0.0602
     28 H8          3.9039   -5.0937   -1.0019 H         1 <0>         0.0591
     29 H9          4.4189   -3.4188   -0.6893 H         1 <0>         0.0616
     30 H10         2.1436   -2.8723    0.1310 H         1 <0>         0.0637
     31 H11         1.6286   -4.5472   -0.1816 H         1 <0>         0.0614
     32 H12         3.3372   -5.3707    1.4156 H         1 <0>         0.0589
     33 H13         3.8522   -3.6958    1.7282 H         1 <0>         0.0665
     34 H14         1.6113   -3.1411    2.5837 H         1 <0>         0.0873
     35 H15         1.0426   -4.7859    2.2104 H         1 <0>         0.0744
     36 H16         2.7754   -4.4803    6.5577 H         1 <0>         0.0671
     37 H17         1.0898   -4.7901    7.0385 H         1 <0>         0.0701
     38 H18         2.0163   -6.0459    6.1824 H         1 <0>         0.0664
     39 H19         0.7398   -2.6072    4.2710 H         1 <0>         0.3801
     40 H20         0.7666   -6.9362    3.2665 H         1 <0>         0.2172
     41 H21         7.1105   -6.7405    4.7178 H         1 <0>         0.2041
     42 H22         3.7912  -10.6897    3.6015 H         1 <0>         0.4188
     43 H23         5.4194  -10.9063    3.9548 H         1 <0>         0.4107
@<TRIPOS>BOND
     1    1    2 1
     2    1   23 1
     3    1   24 1
     4    1   25 1
     5    2    3 1
     6    2   26 1
     7    2   27 1
     8    3    4 1
     9    3   28 1
    10    3   29 1
    11    4    5 1
    12    4   30 1
    13    4   31 1
    14    5    6 1
    15    5   32 1
    16    5   33 1
    17    6    7 1
    18    6   34 1
    19    6   35 1
    20    7    8 1
    21    7    9 1
    22    7   13 1
    23    9   10 1
    24    9   11 1
    25    9   12 1
    26   11   36 1
    27   11   37 1
    28   11   38 1
    29   12   39 1
    30   13   17 1
    31   13   14 1
    32   14   15 2
    33   14   40 1
    34   15   16 1
    35   16   21 ar
    36   16   17 ar
    37   17   18 ar
    38   18   19 ar
    39   19   20 ar
    40   19   41 1
    41   20   21 ar
    42   21   22 1
    43   22   42 1
    44   22   43 1
@<TRIPOS>MOLECULE
ZINC01614356
   43    44     0     0     0
SMALL
USER_CHARGES

@<TRIPOS>ATOM
      1 C1          2.4806   -4.0321   -3.7732 C.3       1 <0>        -0.1547
      2 C2          1.5829   -3.9103   -2.5402 C.3       1 <0>        -0.1247
      3 C3          2.3979   -4.2215   -1.2833 C.3       1 <0>        -0.1208
      4 C4          1.5002   -4.0998   -0.0503 C.3       1 <0>        -0.1178
      5 C5          2.3152   -4.4110    1.2066 C.3       1 <0>        -0.1165
      6 C6          1.4175   -4.2893    2.4396 C.3       1 <0>        -0.1360
      7 C7          2.2127   -4.6727    3.6892 C.3       1 <0>         0.1060
      8 H1          3.1207   -4.0719    3.7407 H         1 <0>         0.1173
      9 C8          1.3608   -4.4172    4.9342 C.3       1 <0>         0.0953
     10 H2          1.1011   -3.3598    4.9859 H         1 <0>         0.0803
     11 C9          2.1524   -4.8096    6.1832 C.3       1 <0>        -0.1472
     12 O1          0.1662   -5.1981    4.8624 O.3       1 <0>        -0.5580
     13 N1          2.5694   -6.0922    3.6246 N.pl3     1 <0>        -0.4550
     14 C10         1.7004   -7.1394    3.5452 C.2       1 <0>         0.2673
     15 N2          2.3587   -8.2613    3.5042 N.2       1 <0>        -0.4686
     16 C11         3.6882   -8.0061    3.5545 C.ar      1 <0>        -0.1113
     17 C12         3.8396   -6.6109    3.6269 C.ar      1 <0>         0.3011
     18 N3          5.0635   -6.0960    3.6815 N.ar      1 <0>        -0.5597
     19 C13         6.1219   -6.8785    3.6654 C.ar      1 <0>         0.3612
     20 N4          6.0299   -8.1939    3.5949 N.ar      1 <0>        -0.5942
     21 C14         4.8478   -8.7995    3.5454 C.ar      1 <0>         0.5068
     22 N5          4.7615  -10.1787    3.4707 N.pl3     1 <0>        -0.8189
     23 H3          2.8742   -5.0465   -3.8373 H         1 <0>         0.0532
     24 H4          1.9000   -3.8104   -4.6687 H         1 <0>         0.0544
     25 H5          3.3071   -3.3261   -3.6920 H         1 <0>         0.0537
     26 H6          1.1893   -2.8959   -2.4761 H         1 <0>         0.0609
     27 H7          0.7564   -4.6163   -2.6214 H         1 <0>         0.0604
     28 H8          2.7915   -5.2360   -1.3474 H         1 <0>         0.0593
     29 H9          3.2244   -3.5156   -1.2021 H         1 <0>         0.0615
     30 H10         1.1066   -3.0854    0.0138 H         1 <0>         0.0635
     31 H11         0.6737   -4.8058   -0.1315 H         1 <0>         0.0617
     32 H12         2.7088   -5.4254    1.1425 H         1 <0>         0.0594
     33 H13         3.1417   -3.7050    1.2878 H         1 <0>         0.0663
     34 H14         1.0665   -3.2616    2.5334 H         1 <0>         0.0890
     35 H15         0.5625   -4.9571    2.3339 H         1 <0>         0.0742
     36 H16         3.1113   -4.2914    6.1834 H         1 <0>         0.0737
     37 H17         1.5885   -4.5307    7.0733 H         1 <0>         0.0693
     38 H18         2.3214   -5.8865    6.1828 H         1 <0>         0.0605
     39 H19        -0.3863   -5.0020    4.0934 H         1 <0>         0.3774
     40 H20         0.6243   -7.0512    3.5203 H         1 <0>         0.2184
     41 H21         7.1023   -6.4278    3.7111 H         1 <0>         0.2027
     42 H22         3.8932  -10.6085    3.4237 H         1 <0>         0.4186
     43 H23         5.5693  -10.7157    3.4652 H         1 <0>         0.4099
@<TRIPOS>BOND
     1    1    2 1
     2    1   23 1
     3    1   24 1
     4    1   25 1
     5    2    3 1
     6    2   26 1
     7    2   27 1
     8    3    4 1
     9    3   28 1
    10    3   29 1
    11    4    5 1
    12    4   30 1
    13    4   31 1
    14    5    6 1
    15    5   32 1
    16    5   33 1
    17    6    7 1
    18    6   34 1
    19    6   35 1
    20    7    8 1
    21    7    9 1
    22    7   13 1
    23    9   10 1
    24    9   11 1
    25    9   12 1
    26   11   36 1
    27   11   37 1
    28   11   38 1
    29   12   39 1
    30   13   17 1
    31   13   14 1
    32   14   15 2
    33   14   40 1
    34   15   16 1
    35   16   21 ar
    36   16   17 ar
    37   17   18 ar
    38   18   19 ar
    39   19   20 ar
    40   19   41 1
    41   20   21 ar
    42   21   22 1
    43   22   42 1
    44   22   43 1
@<TRIPOS>MOLECULE
ZINC03814314
   30    32     0     0     0
SMALL
USER_CHARGES

@<TRIPOS>ATOM
      1 C1         -0.0159    1.3180    0.0093 C.ar      1 <0>         0.2239
      2 C2          1.2004    2.0027    0.0014 C.ar      1 <0>        -0.0528
      3 C3          2.3904    1.2471   -0.0141 C.ar      1 <0>         0.2838
      4 N1          2.3119   -0.0765   -0.0200 N.ar      1 <0>        -0.5042
      5 C4          1.1395   -0.6756   -0.0117 C.ar      1 <0>         0.3142
      6 N2          0.0021   -0.0041    0.0020 N.ar      1 <0>        -0.5193
      7 N3          3.4159    2.1589   -0.0190 N.pl3     1 <0>        -0.4758
      8 C5          2.8581    3.4019   -0.0070 C.2       1 <0>         0.2907
      9 N4          1.5600    3.3094    0.0049 N.2       1 <0>        -0.4673
     10 C6          4.8483    1.8519   -0.0336 C.3       1 <0>         0.3119
     11 H1          5.0501    0.9580    0.5567 H         1 <0>         0.1239
     12 C7          5.3426    1.6611   -1.4846 C.3       1 <0>         0.0790
     13 H2          4.6912    2.1874   -2.1823 H         1 <0>         0.0858
     14 C8          6.7552    2.2871   -1.4854 C.3       1 <0>         0.0477
     15 H3          6.8022    3.1229   -2.1835 H         1 <0>         0.0882
     16 C9          6.9472    2.7820   -0.0347 C.3       1 <0>         0.0504
     17 H4          7.4727    2.0316    0.5559 H         1 <0>         0.1009
     18 O1          5.6075    2.9710    0.4733 O.3       1 <0>        -0.3467
     19 C10         7.7169    4.1042   -0.0206 C.3       1 <0>         0.0820
     20 O2          7.9851    4.4849    1.3305 O.3       1 <0>        -0.5636
     21 O3          7.7383    1.3041   -1.8162 O.3       1 <0>        -0.5386
     22 O4          5.4074    0.2718   -1.8129 O.3       1 <0>        -0.5266
     23 H5         -0.9518    1.8566    0.0256 H         1 <0>         0.1803
     24 H6          1.1065   -1.7550   -0.0172 H         1 <0>         0.2074
     25 H7          3.4124    4.3288   -0.0073 H         1 <0>         0.2280
     26 H8          8.6578    3.9827   -0.5574 H         1 <0>         0.0678
     27 H9          7.1199    4.8774   -0.5042 H         1 <0>         0.0615
     28 H10         8.4717    5.3162    1.4157 H         1 <0>         0.3874
     29 H11         8.6438    1.6431   -1.8313 H         1 <0>         0.3882
     30 H12         5.7121    0.0942   -2.7133 H         1 <0>         0.3919
@<TRIPOS>BOND
     1    1    6 ar
     2    1    2 ar
     3    1   23 1
     4    2    9 1
     5    2    3 ar
     6    3    4 ar
     7    3    7 1
     8    4    5 ar
     9    5    6 ar
    10    5   24 1
    11    7    8 1
    12    7   10 1
    13    8    9 2
    14    8   25 1
    15   10   11 1
    16   10   18 1
    17   10   12 1
    18   12   13 1
    19   12   14 1
    20   12   22 1
    21   14   15 1
    22   14   16 1
    23   14   21 1
    24   16   17 1
    25   16   18 1
    26   16   19 1
    27   19   20 1
    28   19   26 1
    29   19   27 1
    30   20   28 1
    31   21   29 1
    32   22   30 1
