@<TRIPOS>MOLECULE
ZINC13829371
   41    43     0     0     0
SMALL
USER_CHARGES

@<TRIPOS>ATOM
      1 C1          1.3594    1.5451    0.6761 C.3       1 <0>        -0.1733
      2 C2          0.9211    0.1125    0.3652 C.3       1 <0>         0.0452
      3 H1          1.4732   -0.2644   -0.4957 H         1 <0>         0.1118
      4 C3         -0.5940    0.0807    0.0707 C.3       1 <0>         0.1429
      5 H2         -1.0940    0.9407    0.5162 H         1 <0>         0.0760
      6 C4         -1.0370   -1.2365    0.7641 C.3       1 <0>        -0.1755
      7 C5         -0.0836   -1.2610    1.9853 C.3       1 <0>         0.2981
      8 H3          0.0558   -2.2836    2.3360 H         1 <0>         0.1355
      9 O1          1.1608   -0.7263    1.5013 O.3       1 <0>        -0.3604
     10 N1         -0.6158   -0.4230    3.0627 N.pl3     1 <0>        -0.4712
     11 C6         -0.1716    0.8169    3.4145 C.2       1 <0>         0.2624
     12 N2         -0.8706    1.2729    4.4130 N.2       1 <0>        -0.4740
     13 C7         -1.8051    0.3573    4.7646 C.ar      1 <0>        -0.1035
     14 C8         -1.6564   -0.7396    3.8989 C.ar      1 <0>         0.3037
     15 N3         -2.4678   -1.7834    4.0335 N.ar      1 <0>        -0.5456
     16 C9         -3.4011   -1.7923    4.9619 C.ar      1 <0>         0.3502
     17 N4         -3.5810   -0.7843    5.7958 N.ar      1 <0>        -0.5983
     18 C10        -2.8121    0.2985    5.7428 C.ar      1 <0>         0.5024
     19 N5         -3.0091    1.3504    6.6203 N.pl3     1 <0>        -0.8250
     20 O2         -0.8376    0.0263   -1.3364 O.3       1 <0>        -0.7444
     21 P1         -1.6685    1.1563   -2.1268 P.3       1 <0>         2.2788
     22 O3         -3.0544    1.3325   -1.4670 O.2       1 <0>        -1.0990
     23 O4         -0.8983    2.4945   -2.0723 O.3       1 <0>        -1.1089
     24 O5         -1.8579    0.7081   -3.6615 O.3       1 <0>        -1.0967
     25 P2         -2.8114    1.2016   -4.8612 P.3       1 <0>         2.3438
     26 O6         -4.2225    1.5007   -4.3077 O.2       1 <0>        -1.1148
     27 O7         -2.2235    2.4833   -5.4925 O.3       1 <0>        -1.1386
     28 O8         -2.9072    0.0477   -5.9799 O.3       1 <0>        -1.1048
     29 P3         -3.8905   -0.2234   -7.2256 P.3       1 <0>         2.2201
     30 O9         -5.3606    0.1326   -6.8176 O.2       1 <0>        -1.1968
     31 O10        -3.4548    0.6675   -8.4384 O.3       1 <0>        -1.2109
     32 O11        -3.8129   -1.7342   -7.6329 O.3       1 <0>        -1.2124
     33 H4          2.4169    1.5522    0.9401 H         1 <0>         0.0620
     34 H5          1.1997    2.1723   -0.2009 H         1 <0>         0.1047
     35 H6          0.7739    1.9312    1.5105 H         1 <0>         0.0558
     36 H7         -2.0788   -1.1830    1.0801 H         1 <0>         0.0993
     37 H8         -0.8684   -2.0971    0.1168 H         1 <0>         0.1140
     38 H9          0.6408    1.3430    2.9354 H         1 <0>         0.2268
     39 H10        -4.0439   -2.6562    5.0445 H         1 <0>         0.2007
     40 H11        -2.4486    2.1401    6.5643 H         1 <0>         0.4164
     41 H12        -3.7076    1.2980    7.2912 H         1 <0>         0.4036
@<TRIPOS>BOND
     1    1    2 1
     2    1   33 1
     3    1   34 1
     4    1   35 1
     5    2    3 1
     6    2    9 1
     7    2    4 1
     8    4    5 1
     9    4    6 1
    10    4   20 1
    11    6    7 1
    12    6   36 1
    13    6   37 1
    14    7    8 1
    15    7    9 1
    16    7   10 1
    17   10   14 1
    18   10   11 1
    19   11   12 2
    20   11   38 1
    21   12   13 1
    22   13   18 ar
    23   13   14 ar
    24   14   15 ar
    25   15   16 ar
    26   16   17 ar
    27   16   39 1
    28   17   18 ar
    29   18   19 1
    30   19   40 1
    31   19   41 1
    32   20   21 1
    33   21   22 2
    34   21   23 1
    35   21   24 1
    36   24   25 1
    37   25   26 2
    38   25   27 1
    39   25   28 1
    40   28   29 1
    41   29   30 2
    42   29   31 1
    43   29   32 1
@<TRIPOS>MOLECULE
ZINC13829371
   42    44     0     0     0
SMALL
USER_CHARGES

@<TRIPOS>ATOM
      1 C1          1.3594    1.5451    0.6761 C.3       1 <0>        -0.1750
      2 C2          0.9211    0.1125    0.3652 C.3       1 <0>         0.0467
      3 H1          1.4732   -0.2644   -0.4957 H         1 <0>         0.1102
      4 C3         -0.5940    0.0807    0.0707 C.3       1 <0>         0.1429
      5 H2         -1.0940    0.9407    0.5162 H         1 <0>         0.0781
      6 C4         -1.0370   -1.2365    0.7641 C.3       1 <0>        -0.1746
      7 C5         -0.0836   -1.2610    1.9853 C.3       1 <0>         0.2992
      8 H3          0.0558   -2.2836    2.3360 H         1 <0>         0.1359
      9 O1          1.1608   -0.7263    1.5013 O.3       1 <0>        -0.3590
     10 N1         -0.6158   -0.4230    3.0627 N.pl3     1 <0>        -0.4735
     11 C6         -0.1716    0.8169    3.4145 C.2       1 <0>         0.2604
     12 N2         -0.8706    1.2729    4.4130 N.2       1 <0>        -0.4712
     13 C7         -1.8051    0.3573    4.7646 C.ar      1 <0>        -0.1041
     14 C8         -1.6564   -0.7396    3.8989 C.ar      1 <0>         0.3041
     15 N3         -2.4678   -1.7834    4.0335 N.ar      1 <0>        -0.5488
     16 C9         -3.4011   -1.7923    4.9619 C.ar      1 <0>         0.3526
     17 N4         -3.5810   -0.7843    5.7958 N.ar      1 <0>        -0.5975
     18 C10        -2.8121    0.2985    5.7428 C.ar      1 <0>         0.5042
     19 N5         -3.0091    1.3504    6.6203 N.pl3     1 <0>        -0.8235
     20 O2         -0.8376    0.0263   -1.3364 O.3       1 <0>        -0.7474
     21 P1         -1.6685    1.1563   -2.1268 P.3       1 <0>         2.2771
     22 O3         -3.0544    1.3325   -1.4670 O.2       1 <0>        -1.0939
     23 O4         -0.8983    2.4945   -2.0723 O.3       1 <0>        -1.1021
     24 O5         -1.8579    0.7081   -3.6615 O.3       1 <0>        -1.0972
     25 P2         -2.8114    1.2016   -4.8612 P.3       1 <0>         2.3522
     26 O6         -4.2225    1.5007   -4.3077 O.2       1 <0>        -1.1041
     27 O7         -2.2235    2.4833   -5.4925 O.3       1 <0>        -1.1139
     28 O8         -2.9072    0.0477   -5.9799 O.3       1 <0>        -1.0986
     29 P3         -3.8905   -0.2234   -7.2256 P.3       1 <0>         2.2754
     30 O9         -4.1008    1.0902   -8.0111 O.2       1 <0>        -1.1163
     31 O10        -3.2359   -1.3296   -8.1952 O.3       1 <0>        -0.9090
     32 O11        -5.2519   -0.7358   -6.7050 O.3       1 <0>        -1.1161
     33 H4          2.4169    1.5522    0.9401 H         1 <0>         0.0640
     34 H5          1.1997    2.1723   -0.2009 H         1 <0>         0.1034
     35 H6          0.7739    1.9312    1.5105 H         1 <0>         0.0574
     36 H7         -2.0788   -1.1830    1.0801 H         1 <0>         0.0997
     37 H8         -0.8684   -2.0971    0.1168 H         1 <0>         0.1123
     38 H9          0.6408    1.3430    2.9354 H         1 <0>         0.2265
     39 H10        -4.0439   -2.6562    5.0445 H         1 <0>         0.2012
     40 H11        -2.4486    2.1401    6.5643 H         1 <0>         0.4171
     41 H12        -3.7076    1.2980    7.2912 H         1 <0>         0.4049
     42 H13        -3.7752   -1.5430   -8.9689 H         1 <0>         0.4001
@<TRIPOS>BOND
     1    1    2 1
     2    1   33 1
     3    1   34 1
     4    1   35 1
     5    2    3 1
     6    2    9 1
     7    2    4 1
     8    4    5 1
     9    4    6 1
    10    4   20 1
    11    6    7 1
    12    6   36 1
    13    6   37 1
    14    7    8 1
    15    7    9 1
    16    7   10 1
    17   10   14 1
    18   10   11 1
    19   11   12 2
    20   11   38 1
    21   12   13 1
    22   13   18 ar
    23   13   14 ar
    24   14   15 ar
    25   15   16 ar
    26   16   17 ar
    27   16   39 1
    28   17   18 ar
    29   18   19 1
    30   19   40 1
    31   19   41 1
    32   20   21 1
    33   21   22 2
    34   21   23 1
    35   21   24 1
    36   24   25 1
    37   25   26 2
    38   25   27 1
    39   25   28 1
    40   28   29 1
    41   29   30 2
    42   29   31 1
    43   29   32 1
    44   31   42 1
@<TRIPOS>MOLECULE
ZINC03815419
   45    48     0     0     0
SMALL
USER_CHARGES

@<TRIPOS>ATOM
      1 C1         -0.0187    1.5258    0.0104 C.3       1 <0>        -0.1357
      2 C2          0.0021   -0.0041    0.0020 C.3       1 <0>        -0.0566
      3 C3         -1.4142   -0.5426    0.0487 C.3       1 <0>        -0.1014
      4 C4         -2.0973    0.0443    1.2988 C.3       1 <0>        -0.1138
      5 C5         -1.3125   -0.3072    2.5541 C.3       1 <0>        -0.0425
      6 H1         -1.3075   -1.3926    2.6532 H         1 <0>         0.0786
      7 C6         -1.9425    0.2653    3.7900 C.ar      1 <0>        -0.0603
      8 C7         -3.3276    0.3478    3.8433 C.ar      1 <0>        -0.1304
      9 C8         -3.9598    0.8566    4.9624 C.ar      1 <0>         0.0781
     10 C9         -3.1982    1.2889    6.0445 C.ar      1 <0>         0.0789
     11 C10        -1.8198    1.2091    5.9858 C.ar      1 <0>        -0.1328
     12 C11        -1.1862    0.7011    4.8579 C.ar      1 <0>        -0.0657
     13 C12         0.3197    0.6670    4.8603 C.3       1 <0>        -0.0815
     14 C13         0.8559   -0.2329    3.7476 C.3       1 <0>        -0.1138
     15 C14         0.1446    0.1630    2.4541 C.3       1 <0>        -0.0742
     16 H2          0.1741    1.2445    2.3212 H         1 <0>         0.0874
     17 C15         0.7512   -0.5345    1.2564 C.3       1 <0>        -0.0834
     18 H3          0.6223   -1.6140    1.3350 H         1 <0>         0.0758
     19 C16         2.2092   -0.2044    0.9567 C.3       1 <0>        -0.1119
     20 C17         2.3296   -0.2453   -0.5873 C.3       1 <0>        -0.1565
     21 C18         0.8994   -0.5108   -1.1318 C.3       1 <0>         0.1091
     22 H4          0.7426   -1.5761   -1.3011 H         1 <0>         0.0610
     23 O1          0.6684    0.2325   -2.3302 O.3       1 <0>        -0.5587
     24 O2         -3.8074    1.7876    7.1534 O.3       1 <0>        -0.4885
     25 O3         -5.3168    0.9348    5.0057 O.3       1 <0>        -0.4879
     26 H5          1.0039    1.9031    0.0027 H         1 <0>         0.0542
     27 H6         -0.5459    1.8868   -0.8726 H         1 <0>         0.0602
     28 H7         -0.5289    1.8773    0.9072 H         1 <0>         0.0605
     29 H8         -1.9557   -0.2363   -0.8463 H         1 <0>         0.0698
     30 H9         -1.3939   -1.6304    0.1151 H         1 <0>         0.0631
     31 H10        -2.1532    1.1285    1.2019 H         1 <0>         0.0705
     32 H11        -3.1059   -0.3609    1.3805 H         1 <0>         0.0659
     33 H12        -3.9164    0.0110    3.0029 H         1 <0>         0.1344
     34 H13        -1.2289    1.5446    6.8252 H         1 <0>         0.1315
     35 H14         0.6999    1.6783    4.7159 H         1 <0>         0.0786
     36 H15         0.6667    0.2903    5.8225 H         1 <0>         0.0760
     37 H16         1.9303   -0.0839    3.6398 H         1 <0>         0.0729
     38 H17         0.6510   -1.2763    3.9876 H         1 <0>         0.0671
     39 H18         2.4554    0.7902    1.3285 H         1 <0>         0.0685
     40 H19         2.8653   -0.9497    1.4066 H         1 <0>         0.0658
     41 H20         2.7000    0.7100   -0.9591 H         1 <0>         0.0740
     42 H21         3.0001   -1.0500   -0.8891 H         1 <0>         0.0644
     43 H22         1.2121   -0.0492   -3.0787 H         1 <0>         0.3760
     44 H23        -4.0162    1.1202    7.8212 H         1 <0>         0.3867
     45 H24        -5.7448    0.1464    5.3669 H         1 <0>         0.3865
@<TRIPOS>BOND
     1    1    2 1
     2    1   26 1
     3    1   27 1
     4    1   28 1
     5    2   17 1
     6    2   21 1
     7    2    3 1
     8    3    4 1
     9    3   29 1
    10    3   30 1
    11    4    5 1
    12    4   31 1
    13    4   32 1
    14    5    6 1
    15    5   15 1
    16    5    7 1
    17    7   12 ar
    18    7    8 ar
    19    8    9 ar
    20    8   33 1
    21    9   10 ar
    22    9   25 1
    23   10   11 ar
    24   10   24 1
    25   11   12 ar
    26   11   34 1
    27   12   13 1
    28   13   14 1
    29   13   35 1
    30   13   36 1
    31   14   15 1
    32   14   37 1
    33   14   38 1
    34   15   16 1
    35   15   17 1
    36   17   18 1
    37   17   19 1
    38   19   20 1
    39   19   39 1
    40   19   40 1
    41   20   21 1
    42   20   41 1
    43   20   42 1
    44   21   22 1
    45   21   23 1
    46   23   43 1
    47   24   44 1
    48   25   45 1
