@<TRIPOS>MOLECULE
ZINC03977779
   63    65     0     0     0
SMALL
USER_CHARGES

@<TRIPOS>ATOM
      1 C1         -0.3421    1.1869    0.2859 C.3       1 <0>        -0.1475
      2 C2         -0.2617   -0.3167    0.2237 C.2       1 <0>         0.4558
      3 O1          0.8154   -0.8631    0.1874 O.2       1 <0>        -0.5049
      4 O2         -1.3865   -1.0489    0.2085 O.3       1 <0>        -0.3403
      5 C3         -1.2353   -2.4728    0.1486 C.3       1 <0>         0.0778
      6 H1         -0.3102   -2.6986   -0.3931 H         1 <0>         0.1039
      7 C4         -1.1285   -3.0264    1.5702 C.3       1 <0>         0.1104
      8 H2         -0.1735   -2.6487    1.9817 H         1 <0>         0.0649
      9 C5         -1.0835   -4.5458    1.5571 C.3       1 <0>        -0.0493
     10 H3         -0.2342   -4.7938    0.8566 H         1 <0>         0.0989
     11 C6         -2.3184   -5.1440    0.8914 C.3       1 <0>         0.0059
     12 C7         -2.1617   -6.6734    0.8265 C.3       1 <0>         0.1128
     13 H4         -3.0593   -7.1031    0.3823 H         1 <0>         0.0551
     14 C8         -1.9804   -7.2275    2.2409 C.3       1 <0>        -0.1539
     15 C9         -0.6811   -6.6893    2.8288 C.3       1 <0>        -0.1029
     16 C10        -0.6780   -5.1589    2.8784 C.3       1 <0>        -0.0406
     17 C11         0.7838   -4.7423    3.1782 C.3       1 <0>        -0.1508
     18 C12        -1.5256   -4.6936    4.0610 C.3       1 <0>        -0.1451
     19 O3         -1.0218   -7.0349    0.0487 O.3       1 <0>        -0.5368
     20 C13        -2.4091   -4.5907   -0.5195 C.3       1 <0>         0.0885
     21 C14        -2.4137   -3.0666   -0.6181 C.3       1 <0>         0.1325
     22 O4         -2.2742   -2.7400   -2.0021 O.3       1 <0>        -0.3750
     23 C15        -3.0942   -3.2887   -3.0045 C.3       1 <0>         0.1660
     24 C16        -3.5974   -4.7089   -2.7733 C.3       1 <0>        -0.2107
     25 C17        -3.6142   -5.0656   -1.2984 C.2       1 <0>         0.3540
     26 O5         -4.5252   -5.6915   -0.8243 O.2       1 <0>        -0.4181
     27 C18        -4.3008   -2.3746   -3.2819 C.3       1 <0>        -0.1690
     28 C19        -2.2780   -3.3133   -4.2960 C.2       1 <0>        -0.1763
     29 C20        -1.0467   -2.8659   -4.3014 C.2       1 <0>        -0.1594
     30 C21        -3.7139   -2.4380   -0.1237 C.3       1 <0>        -0.1878
     31 O6         -1.2414   -5.0315   -1.2578 O.3       1 <0>        -0.5121
     32 C22        -3.5921   -4.8624    1.6912 C.3       1 <0>        -0.1775
     33 O7         -2.1692   -2.4984    2.3823 O.3       1 <0>        -0.5404
     34 H5          0.6647    1.6047    0.2898 H         1 <0>         0.1027
     35 H6         -0.8861    1.5579   -0.5827 H         1 <0>         0.1018
     36 H7         -0.8630    1.4855    1.1956 H         1 <0>         0.1014
     37 H8         -2.8234   -6.9912    2.8764 H         1 <0>         0.0776
     38 H9         -1.9065   -8.3228    2.1734 H         1 <0>         0.0605
     39 H10        -0.5577   -7.0752    3.8454 H         1 <0>         0.0618
     40 H11         0.1641   -7.0289    2.2261 H         1 <0>         0.0689
     41 H12         0.8477   -3.6557    3.2346 H         1 <0>         0.0522
     42 H13         1.0971   -5.1745    4.1286 H         1 <0>         0.0576
     43 H14         1.4351   -5.1038    2.3824 H         1 <0>         0.0556
     44 H15        -2.5517   -5.0373    3.9302 H         1 <0>         0.0588
     45 H16        -1.1190   -5.1066    4.9842 H         1 <0>         0.0474
     46 H17        -1.5108   -3.6049    4.1126 H         1 <0>         0.0701
     47 H18        -0.8804   -7.9889   -0.0219 H         1 <0>         0.3676
     48 H19        -4.6100   -4.8099   -3.1763 H         1 <0>         0.1099
     49 H20        -2.9486   -5.4160   -3.3018 H         1 <0>         0.1157
     50 H21        -3.9481   -1.3973   -3.6114 H         1 <0>         0.0704
     51 H22        -4.9214   -2.8183   -4.0604 H         1 <0>         0.0706
     52 H23        -4.8875   -2.2607   -2.3703 H         1 <0>         0.0625
     53 H24        -2.7162   -3.6995   -5.2045 H         1 <0>         0.1250
     54 H25        -0.6086   -2.4797   -3.3929 H         1 <0>         0.1095
     55 H26        -0.4699   -2.8833   -5.2142 H         1 <0>         0.1009
     56 H27        -3.7493   -1.3913   -0.4257 H         1 <0>         0.0817
     57 H28        -4.5618   -2.9696   -0.5557 H         1 <0>         0.0534
     58 H29        -3.7592   -2.5043    0.9634 H         1 <0>         0.1023
     59 H30        -1.2157   -4.7230   -2.1739 H         1 <0>         0.3695
     60 H31        -3.6605   -3.7951    1.9015 H         1 <0>         0.0947
     61 H32        -4.4612   -5.1752    1.1125 H         1 <0>         0.0717
     62 H33        -3.5618   -5.4164    2.6295 H         1 <0>         0.0736
     63 H34        -2.1590   -1.5344    2.4572 H         1 <0>         0.3762
@<TRIPOS>BOND
     1    1    2 1
     2    1   34 1
     3    1   35 1
     4    1   36 1
     5    2    3 2
     6    2    4 1
     7    4    5 1
     8    5    6 1
     9    5   21 1
    10    5    7 1
    11    7    8 1
    12    7    9 1
    13    7   33 1
    14    9   10 1
    15    9   16 1
    16    9   11 1
    17   11   12 1
    18   11   20 1
    19   11   32 1
    20   12   13 1
    21   12   14 1
    22   12   19 1
    23   14   15 1
    24   14   37 1
    25   14   38 1
    26   15   16 1
    27   15   39 1
    28   15   40 1
    29   16   17 1
    30   16   18 1
    31   17   41 1
    32   17   42 1
    33   17   43 1
    34   18   44 1
    35   18   45 1
    36   18   46 1
    37   19   47 1
    38   20   25 1
    39   20   21 1
    40   20   31 1
    41   21   22 1
    42   21   30 1
    43   22   23 1
    44   23   24 1
    45   23   27 1
    46   23   28 1
    47   24   25 1
    48   24   48 1
    49   24   49 1
    50   25   26 2
    51   27   50 1
    52   27   51 1
    53   27   52 1
    54   28   29 2
    55   28   53 1
    56   29   54 1
    57   29   55 1
    58   30   56 1
    59   30   57 1
    60   30   58 1
    61   31   59 1
    62   32   60 1
    63   32   61 1
    64   32   62 1
    65   33   63 1
