@<TRIPOS>MOLECULE
ZINC13779480
   25    25     0     0     0
SMALL
USER_CHARGES
N-(cyclohexylmethyl)formamide
@<TRIPOS>ATOM
      1 C1         -2.9042    1.5565    0.0381 C.3       1 <0>        -0.1229
      2 C2         -2.1881    1.0631   -1.2207 C.3       1 <0>        -0.1199
      3 C3         -0.7527    1.5927   -1.2315 C.3       1 <0>        -0.1143
      4 C4         -0.0127    1.0858    0.0080 C.3       1 <0>        -0.0970
      5 C5         -0.7288    1.5792    1.2668 C.3       1 <0>        -0.1148
      6 C6         -2.1642    1.0497    1.2777 C.3       1 <0>        -0.1211
      7 C7          1.4227    1.6154   -0.0028 C.3       1 <0>         0.1179
      8 N1          2.1658    1.0351    1.1184 N.am      1 <0>        -0.7466
      9 C8          3.4597    1.3601    1.3096 C.2       1 <0>         0.4853
     10 O1          4.0089    2.1330    0.5533 O.2       1 <0>        -0.5601
     11 H1         -3.9362    1.1757    0.0459 H         1 <0>         0.0619
     12 H2         -2.9192    2.6564    0.0441 H         1 <0>         0.0621
     13 H3         -2.1732   -0.0368   -1.2268 H         1 <0>         0.0623
     14 H4         -2.7201    1.4275   -2.1119 H         1 <0>         0.0639
     15 H5         -0.2378    1.2380   -2.1365 H         1 <0>         0.0652
     16 H6         -0.7676    2.6926   -1.2254 H         1 <0>         0.0657
     17 H7          0.0022   -0.0141    0.0019 H         1 <0>         0.0770
     18 H8         -0.1968    1.2148    2.1579 H         1 <0>         0.0620
     19 H9         -0.7437    2.6791    1.2729 H         1 <0>         0.0642
     20 H10        -2.6791    1.4045    2.1827 H         1 <0>         0.0626
     21 H11        -2.1493   -0.0502    1.2718 H         1 <0>         0.0621
     22 H12         1.9094    1.3362   -0.9489 H         1 <0>         0.0649
     23 H13         1.4100    2.7111    0.0936 H         1 <0>         0.0652
     24 H14         1.6677    0.3341    1.8043 H         1 <0>         0.4215
     25 H15         4.0177    0.9244    2.1515 H         1 <0>         0.1328
@<TRIPOS>BOND
     1    1    6 1
     2    1    2 1
     3    1   11 1
     4    1   12 1
     5    2    3 1
     6    2   13 1
     7    2   14 1
     8    3    4 1
     9    3   15 1
    10    3   16 1
    11    4    5 1
    12    4    7 1
    13    4   17 1
    14    5    6 1
    15    5   18 1
    16    5   19 1
    17    6   20 1
    18    6   21 1
    19    7    8 1
    20    7   22 1
    21    7   23 1
    22    8    9 am
    23    8   24 1
    24    9   10 2
    25    9   25 1
@<TRIPOS>MOLECULE
ZINC13779482
   26    27     0     0     0
SMALL
USER_CHARGES
N-cyclopentyl-N-cyclopropyl-formamide
@<TRIPOS>ATOM
      1 C1         -1.9779    2.4205   -0.6705 C.3       1 <0>        -0.1200
      2 C2         -0.7845    1.6092   -1.2159 C.3       1 <0>        -0.1181
      3 C3         -0.0127    1.0858    0.0080 C.3       1 <0>        -0.1314
      4 C4         -0.7629    1.5973    1.2552 C.3       1 <0>         0.1429
      5 C5         -1.5309    2.8450    0.7505 C.3       1 <0>        -0.1410
      6 N1          0.1860    1.9690    2.3077 N.am      1 <0>        -0.5870
      7 C6          1.1023    2.9307    2.0800 C.2       1 <0>         0.4867
      8 O1          1.1413    3.4885    1.0037 O.2       1 <0>        -0.5363
      9 C7          0.1388    1.2953    3.6077 C.3       1 <0>         0.0724
     10 C8          1.0117    1.8620    4.7292 C.3       1 <0>        -0.1890
     11 C9          1.3908    0.5397    4.0577 C.3       1 <0>        -0.1924
     12 H1         -2.1585    3.2978   -1.2916 H         1 <0>         0.0674
     13 H2         -2.8710    1.7977   -0.6193 H         1 <0>         0.0644
     14 H3         -0.1404    2.2509   -1.8171 H         1 <0>         0.0657
     15 H4         -1.1443    0.7734   -1.8159 H         1 <0>         0.0623
     16 H5          0.0021   -0.0041    0.0020 H         1 <0>         0.0621
     17 H6          1.0062    1.4728    0.0004 H         1 <0>         0.0747
     18 H7         -1.4596    0.8416    1.6179 H         1 <0>         0.0918
     19 H8         -0.8713    3.7116    0.7051 H         1 <0>         0.0915
     20 H9         -2.3951    3.0518    1.3816 H         1 <0>         0.0632
     21 H10         1.8018    3.2048    2.8559 H         1 <0>         0.1255
     22 H11        -0.8286    0.8769    3.8856 H         1 <0>         0.1317
     23 H12         1.6212    2.7361    4.4997 H         1 <0>         0.1007
     24 H13         0.6188    1.8161    5.7449 H         1 <0>         0.1090
     25 H14         1.2471   -0.3756    4.6319 H         1 <0>         0.1054
     26 H15         2.2494    0.5435    3.3863 H         1 <0>         0.0979
@<TRIPOS>BOND
     1    1    5 1
     2    1    2 1
     3    1   12 1
     4    1   13 1
     5    2    3 1
     6    2   14 1
     7    2   15 1
     8    3    4 1
     9    3   16 1
    10    3   17 1
    11    4    5 1
    12    4    6 1
    13    4   18 1
    14    5   19 1
    15    5   20 1
    16    6    7 am
    17    6    9 1
    18    7    8 2
    19    7   21 1
    20    9   11 1
    21    9   10 1
    22    9   22 1
    23   10   11 1
    24   10   23 1
    25   10   24 1
    26   11   25 1
    27   11   26 1
@<TRIPOS>MOLECULE
ZINC01733926
   20    20     0     0     0
SMALL
USER_CHARGES

@<TRIPOS>ATOM
      1 C1         -0.0167    1.3781    0.0096 C.ar      1 <0>        -0.0862
      2 C2          1.1709    2.0855    0.0021 C.ar      1 <0>        -0.1154
      3 C3          2.3773    1.4107   -0.0130 C.ar      1 <0>        -0.0918
      4 C4          2.3960    0.0285   -0.0201 C.ar      1 <0>        -0.1580
      5 C5          1.2084   -0.6789   -0.0117 C.ar      1 <0>        -0.0958
      6 C6          0.0021   -0.0041    0.0020 C.ar      1 <0>        -0.1165
      7 C7          3.7112   -0.7071   -0.0376 C.3       1 <0>         0.1231
      8 N1          4.1518   -0.9524    1.3379 N.pl3     1 <0>        -0.5531
      9 C8          4.2384   -2.1609    1.7819 C.2       1 <0>         0.4850
     10 O1          4.6442   -2.3868    3.0486 O.3       1 <0>        -0.4489
     11 H1         -0.9591    1.9053    0.0259 H         1 <0>         0.1351
     12 H2          1.1563    3.1654    0.0076 H         1 <0>         0.1354
     13 H3          3.3051    1.9634   -0.0196 H         1 <0>         0.1309
     14 H4          1.2231   -1.7588   -0.0176 H         1 <0>         0.1270
     15 H5         -0.9258   -0.5567    0.0082 H         1 <0>         0.1346
     16 H6          3.5884   -1.6586   -0.5549 H         1 <0>         0.1294
     17 H7          4.4573   -0.1052   -0.5563 H         1 <0>         0.1358
     18 H8          3.9860   -2.9916    1.1394 H         1 <0>         0.2271
     19 H9          4.6775   -3.3226    3.2900 H         1 <0>         0.4652
     20 H10         4.3785   -0.2063    1.9149 H         1 <0>         0.4371
@<TRIPOS>BOND
     1    1    6 ar
     2    1    2 ar
     3    1   11 1
     4    2    3 ar
     5    2   12 1
     6    3    4 ar
     7    3   13 1
     8    4    5 ar
     9    4    7 1
    10    5    6 ar
    11    5   14 1
    12    6   15 1
    13    7    8 1
    14    7   16 1
    15    7   17 1
    16    8    9 2
    17    8   20 1
    18    9   10 1
    19    9   18 1
    20   10   19 1
@<TRIPOS>MOLECULE
ZINC01733926
   19    19     0     0     0
SMALL
USER_CHARGES

@<TRIPOS>ATOM
      1 C1         -0.0167    1.3781    0.0096 C.ar      1 <0>        -0.1182
      2 C2          1.1709    2.0855    0.0021 C.ar      1 <0>        -0.1202
      3 C3          2.3773    1.4107   -0.0130 C.ar      1 <0>        -0.0972
      4 C4          2.3960    0.0285   -0.0201 C.ar      1 <0>        -0.0849
      5 C5          1.2084   -0.6789   -0.0117 C.ar      1 <0>        -0.1139
      6 C6          0.0021   -0.0041    0.0020 C.ar      1 <0>        -0.1207
      7 C7          3.7112   -0.7071   -0.0376 C.3       1 <0>         0.1036
      8 N1          4.1518   -0.9524    1.3379 N.2       1 <0>        -0.5561
      9 C8          4.2384   -2.1609    1.7819 C.2       1 <0>         0.3188
     10 O1          4.6442   -2.3868    3.0486 O.3       1 <0>        -0.4810
     11 H1         -0.9591    1.9053    0.0259 H         1 <0>         0.1228
     12 H2          1.1563    3.1654    0.0076 H         1 <0>         0.1241
     13 H3          3.3051    1.9634   -0.0196 H         1 <0>         0.1245
     14 H4          1.2231   -1.7588   -0.0176 H         1 <0>         0.1165
     15 H5         -0.9258   -0.5567    0.0082 H         1 <0>         0.1226
     16 H6          3.5884   -1.6586   -0.5549 H         1 <0>         0.0501
     17 H7          4.4573   -0.1052   -0.5563 H         1 <0>         0.0954
     18 H8          3.9860   -2.9916    1.1394 H         1 <0>         0.1025
     19 H9          4.6775   -3.3226    3.2900 H         1 <0>         0.4115
@<TRIPOS>BOND
     1    1    6 ar
     2    1    2 ar
     3    1   11 1
     4    2    3 ar
     5    2   12 1
     6    3    4 ar
     7    3   13 1
     8    4    5 ar
     9    4    7 1
    10    5    6 ar
    11    5   14 1
    12    6   15 1
    13    7    8 1
    14    7   16 1
    15    7   17 1
    16    8    9 2
    17    9   10 1
    18    9   18 1
    19   10   19 1
@<TRIPOS>MOLECULE
ZINC01733926
   19    19     0     0     0
SMALL
USER_CHARGES

@<TRIPOS>ATOM
      1 C1         -0.0167    1.3781    0.0096 C.ar      1 <0>        -0.1211
      2 C2          1.1709    2.0855    0.0021 C.ar      1 <0>        -0.1210
      3 C3          2.3773    1.4107   -0.0130 C.ar      1 <0>        -0.1023
      4 C4          2.3960    0.0285   -0.0201 C.ar      1 <0>        -0.0786
      5 C5          1.2084   -0.6789   -0.0117 C.ar      1 <0>        -0.1127
      6 C6          0.0021   -0.0041    0.0020 C.ar      1 <0>        -0.1214
      7 C7          3.7112   -0.7071   -0.0376 C.3       1 <0>         0.0784
      8 N1          4.1518   -0.9524    1.3379 N.2       1 <0>        -0.5345
      9 C8          4.2384   -2.1609    1.7819 C.2       1 <0>         0.3083
     10 O1          3.9231   -3.1986    0.9793 O.3       1 <0>        -0.5323
     11 H1         -0.9591    1.9053    0.0259 H         1 <0>         0.1218
     12 H2          1.1563    3.1654    0.0076 H         1 <0>         0.1230
     13 H3          3.3051    1.9634   -0.0196 H         1 <0>         0.1228
     14 H4          1.2231   -1.7588   -0.0176 H         1 <0>         0.1178
     15 H5         -0.9258   -0.5567    0.0082 H         1 <0>         0.1215
     16 H6          3.5884   -1.6586   -0.5549 H         1 <0>         0.0651
     17 H7          4.4573   -0.1052   -0.5563 H         1 <0>         0.0873
     18 H8          4.5632   -2.3417    2.7959 H         1 <0>         0.1723
     19 H9          4.0188   -4.0642    1.3997 H         1 <0>         0.4057
@<TRIPOS>BOND
     1    1    6 ar
     2    1    2 ar
     3    1   11 1
     4    2    3 ar
     5    2   12 1
     6    3    4 ar
     7    3   13 1
     8    4    5 ar
     9    4    7 1
    10    5    6 ar
    11    5   14 1
    12    6   15 1
    13    7    8 1
    14    7   16 1
    15    7   17 1
    16    8    9 2
    17    9   10 1
    18    9   18 1
    19   10   19 1
@<TRIPOS>MOLECULE
ZINC00332634
   22    22     0     0     0
SMALL
USER_CHARGES
N-cyclohexylformamide
@<TRIPOS>ATOM
      1 C1          4.0350    2.0097   -0.8531 C.3       1 <0>        -0.1226
      2 C2          3.6749    1.6330    0.5854 C.3       1 <0>        -0.1173
      3 C3          2.3605    0.8501    0.5937 C.3       1 <0>        -0.1260
      4 C4          1.2475    1.7155   -0.0006 C.3       1 <0>         0.1374
      5 C5          1.6076    2.0922   -1.4391 C.3       1 <0>        -0.1285
      6 C6          2.9221    2.8752   -1.4475 C.3       1 <0>        -0.1185
      7 N1         -0.0111    0.9658    0.0074 N.am      1 <0>        -0.7358
      8 C7         -1.1873    1.6238    0.0165 C.2       1 <0>         0.4899
      9 O1         -1.2037    2.8365    0.0232 O.2       1 <0>        -0.5537
     10 H1          4.9715    2.5675   -0.8591 H         1 <0>         0.0645
     11 H2          4.1480    1.1037   -1.4485 H         1 <0>         0.0626
     12 H3          3.5620    2.5390    1.1808 H         1 <0>         0.0652
     13 H4          4.4678    1.0164    1.0089 H         1 <0>         0.0676
     14 H5          2.1039    0.5817    1.6186 H         1 <0>         0.0681
     15 H6          2.4734   -0.0559   -0.0017 H         1 <0>         0.0676
     16 H7          1.1346    2.6215    0.5948 H         1 <0>         0.0872
     17 H8          1.7206    1.1862   -2.0346 H         1 <0>         0.0629
     18 H9          0.8148    2.7088   -1.8626 H         1 <0>         0.0664
     19 H10         2.8092    3.7812   -0.8521 H         1 <0>         0.0645
     20 H11         3.1787    3.1436   -2.4723 H         1 <0>         0.0653
     21 H12         0.0021   -0.0041    0.0020 H         1 <0>         0.4013
     22 H13        -2.1152    1.0711    0.0179 H         1 <0>         0.1318
@<TRIPOS>BOND
     1    1    6 1
     2    1    2 1
     3    1   10 1
     4    1   11 1
     5    2    3 1
     6    2   12 1
     7    2   13 1
     8    3    4 1
     9    3   14 1
    10    3   15 1
    11    4    5 1
    12    4    7 1
    13    4   16 1
    14    5    6 1
    15    5   17 1
    16    5   18 1
    17    6   19 1
    18    6   20 1
    19    7    8 am
    20    7   21 1
    21    8    9 2
    22    8   22 1
@<TRIPOS>MOLECULE
ZINC12501627
   30    29     0     0     0
SMALL
USER_CHARGES
N-[(1R)-1-methylheptyl]formamide
@<TRIPOS>ATOM
      1 C1         -3.6083   -1.7303   -6.2411 C.3       1 <0>        -0.1547
      2 C2         -3.9216   -1.4819   -4.7643 C.3       1 <0>        -0.1259
      3 C3         -2.8354   -0.5932   -4.1550 C.3       1 <0>        -0.1212
      4 C4         -3.1487   -0.3448   -2.6782 C.3       1 <0>        -0.1208
      5 C5         -2.0625    0.5439   -2.0688 C.3       1 <0>        -0.1199
      6 C6         -2.3758    0.7923   -0.5920 C.3       1 <0>        -0.1277
      7 C7         -1.2896    1.6810    0.0173 C.3       1 <0>         0.1337
      8 H1         -1.1985    2.5963   -0.5676 H         1 <0>         0.0874
      9 C8         -1.6665    2.0319    1.4580 C.3       1 <0>        -0.1639
     10 N1         -0.0111    0.9658    0.0074 N.am      1 <0>        -0.7323
     11 C9          1.1468    1.6555   -0.0000 C.2       1 <0>         0.4898
     12 O1          1.1304    2.8682    0.0067 O.2       1 <0>        -0.5543
     13 H2         -3.5780   -0.7784   -6.7712 H         1 <0>         0.0535
     14 H3         -2.6416   -2.2262   -6.3290 H         1 <0>         0.0533
     15 H4         -4.3822   -2.3635   -6.6752 H         1 <0>         0.0537
     16 H5         -3.9520   -2.4338   -4.2342 H         1 <0>         0.0603
     17 H6         -4.8884   -0.9861   -4.6764 H         1 <0>         0.0605
     18 H7         -2.8051    0.3587   -4.6851 H         1 <0>         0.0609
     19 H8         -1.8687   -1.0890   -4.2429 H         1 <0>         0.0604
     20 H9         -3.1791   -1.2967   -2.1480 H         1 <0>         0.0611
     21 H10        -4.1155    0.1510   -2.5903 H         1 <0>         0.0618
     22 H11        -2.0322    1.4958   -2.5990 H         1 <0>         0.0625
     23 H12        -1.0958    0.0481   -2.1567 H         1 <0>         0.0622
     24 H13        -2.4062   -0.1596   -0.0619 H         1 <0>         0.0680
     25 H14        -3.3426    1.2881   -0.5041 H         1 <0>         0.0781
     26 H15        -2.6178    2.5640    1.4654 H         1 <0>         0.0653
     27 H16        -1.7576    1.1166    2.0430 H         1 <0>         0.0564
     28 H17        -0.8927    2.6650    1.8921 H         1 <0>         0.0602
     29 H18         0.0021   -0.0041    0.0020 H         1 <0>         0.4009
     30 H19         2.0893    1.1283   -0.0118 H         1 <0>         0.1305
@<TRIPOS>BOND
     1    1    2 1
     2    1   13 1
     3    1   14 1
     4    1   15 1
     5    2    3 1
     6    2   16 1
     7    2   17 1
     8    3    4 1
     9    3   18 1
    10    3   19 1
    11    4    5 1
    12    4   20 1
    13    4   21 1
    14    5    6 1
    15    5   22 1
    16    5   23 1
    17    6    7 1
    18    6   24 1
    19    6   25 1
    20    7    8 1
    21    7    9 1
    22    7   10 1
    23    9   26 1
    24    9   27 1
    25    9   28 1
    26   10   11 am
    27   10   29 1
    28   11   12 2
    29   11   30 1
@<TRIPOS>MOLECULE
ZINC12501629
   30    29     0     0     0
SMALL
USER_CHARGES
N-[(1S)-1-methylheptyl]formamide
@<TRIPOS>ATOM
      1 C1         -0.7050    1.5658    3.7651 C.3       1 <0>        -0.1547
      2 C2          0.0111    1.0724    2.5063 C.3       1 <0>        -0.1259
      3 C3         -0.7288    1.5792    1.2668 C.3       1 <0>        -0.1213
      4 C4         -0.0127    1.0858    0.0080 C.3       1 <0>        -0.1208
      5 C5         -0.7527    1.5927   -1.2315 C.3       1 <0>        -0.1199
      6 C6         -0.0366    1.0992   -2.4903 C.3       1 <0>        -0.1277
      7 C7         -0.7766    1.6061   -3.7298 C.3       1 <0>         0.1337
      8 H1         -1.8223    1.3032   -3.6778 H         1 <0>         0.0874
      9 C8         -0.1353    1.0115   -4.9853 C.3       1 <0>        -0.1640
     10 N1         -0.6936    3.0677   -3.7845 N.am      1 <0>        -0.7323
     11 C9         -1.6357    3.7720   -4.4424 C.2       1 <0>         0.4898
     12 O1         -2.5522    3.1958   -4.9892 O.2       1 <0>        -0.5543
     13 H2         -0.7198    2.6557    3.7711 H         1 <0>         0.0533
     14 H3         -1.7276    1.1885    3.7729 H         1 <0>         0.0535
     15 H4         -0.1778    1.2047    4.6482 H         1 <0>         0.0537
     16 H5          0.0259   -0.0175    2.5003 H         1 <0>         0.0605
     17 H6          1.0337    1.4497    2.4986 H         1 <0>         0.0603
     18 H7         -0.7436    2.6691    1.2728 H         1 <0>         0.0604
     19 H8         -1.7514    1.2020    1.2746 H         1 <0>         0.0609
     20 H9          0.0021   -0.0041    0.0020 H         1 <0>         0.0618
     21 H10         1.0099    1.4631    0.0003 H         1 <0>         0.0611
     22 H11        -1.7753    1.2154   -1.2238 H         1 <0>         0.0625
     23 H12        -0.7675    2.6825   -1.2255 H         1 <0>         0.0622
     24 H13         0.9860    1.4765   -2.4981 H         1 <0>         0.0680
     25 H14        -0.0218    0.0093   -2.4963 H         1 <0>         0.0781
     26 H15        -0.6624    1.3726   -5.8684 H         1 <0>         0.0603
     27 H16         0.9105    1.3144   -5.0373 H         1 <0>         0.0564
     28 H17        -0.1970   -0.0759   -4.9446 H         1 <0>         0.0653
     29 H18         0.0394    3.5286   -3.3472 H         1 <0>         0.4009
     30 H19        -1.5745    4.8495   -4.4827 H         1 <0>         0.1305
@<TRIPOS>BOND
     1    1    2 1
     2    1   13 1
     3    1   14 1
     4    1   15 1
     5    2    3 1
     6    2   16 1
     7    2   17 1
     8    3    4 1
     9    3   18 1
    10    3   19 1
    11    4    5 1
    12    4   20 1
    13    4   21 1
    14    5    6 1
    15    5   22 1
    16    5   23 1
    17    6    7 1
    18    6   24 1
    19    6   25 1
    20    7    8 1
    21    7    9 1
    22    7   10 1
    23    9   26 1
    24    9   27 1
    25    9   28 1
    26   10   11 am
    27   10   29 1
    28   11   12 2
    29   11   30 1
