@<TRIPOS>MOLECULE
ZINC13779480
   25    25     0     0     0
SMALL
USER_CHARGES
N-(cyclohexylmethyl)formamide
@<TRIPOS>ATOM
      1 C1         -2.9042    1.5565    0.0381 C.3       1 <0>        -0.1229
      2 C2         -2.1881    1.0631   -1.2207 C.3       1 <0>        -0.1199
      3 C3         -0.7527    1.5927   -1.2315 C.3       1 <0>        -0.1143
      4 C4         -0.0127    1.0858    0.0080 C.3       1 <0>        -0.0970
      5 C5         -0.7288    1.5792    1.2668 C.3       1 <0>        -0.1148
      6 C6         -2.1642    1.0497    1.2777 C.3       1 <0>        -0.1211
      7 C7          1.4227    1.6154   -0.0028 C.3       1 <0>         0.1179
      8 N1          2.1658    1.0351    1.1184 N.am      1 <0>        -0.7466
      9 C8          3.4597    1.3601    1.3096 C.2       1 <0>         0.4853
     10 O1          4.0089    2.1330    0.5533 O.2       1 <0>        -0.5601
     11 H1         -3.9362    1.1757    0.0459 H         1 <0>         0.0619
     12 H2         -2.9192    2.6564    0.0441 H         1 <0>         0.0621
     13 H3         -2.1732   -0.0368   -1.2268 H         1 <0>         0.0623
     14 H4         -2.7201    1.4275   -2.1119 H         1 <0>         0.0639
     15 H5         -0.2378    1.2380   -2.1365 H         1 <0>         0.0652
     16 H6         -0.7676    2.6926   -1.2254 H         1 <0>         0.0657
     17 H7          0.0022   -0.0141    0.0019 H         1 <0>         0.0770
     18 H8         -0.1968    1.2148    2.1579 H         1 <0>         0.0620
     19 H9         -0.7437    2.6791    1.2729 H         1 <0>         0.0642
     20 H10        -2.6791    1.4045    2.1827 H         1 <0>         0.0626
     21 H11        -2.1493   -0.0502    1.2718 H         1 <0>         0.0621
     22 H12         1.9094    1.3362   -0.9489 H         1 <0>         0.0649
     23 H13         1.4100    2.7111    0.0936 H         1 <0>         0.0652
     24 H14         1.6677    0.3341    1.8043 H         1 <0>         0.4215
     25 H15         4.0177    0.9244    2.1515 H         1 <0>         0.1328
@<TRIPOS>BOND
     1    1    6 1
     2    1    2 1
     3    1   11 1
     4    1   12 1
     5    2    3 1
     6    2   13 1
     7    2   14 1
     8    3    4 1
     9    3   15 1
    10    3   16 1
    11    4    5 1
    12    4    7 1
    13    4   17 1
    14    5    6 1
    15    5   18 1
    16    5   19 1
    17    6   20 1
    18    6   21 1
    19    7    8 1
    20    7   22 1
    21    7   23 1
    22    8    9 am
    23    8   24 1
    24    9   10 2
    25    9   25 1
