@<TRIPOS>MOLECULE
ZINC02169830
   32    34     0     0     0
SMALL
USER_CHARGES

@<TRIPOS>ATOM
      1 C1         -0.0158    1.3119    0.0093 C.ar      1 <0>         0.3657
      2 N1          1.0888    2.0360    0.0026 N.ar      1 <0>        -0.5913
      3 C2          2.2875    1.4625   -0.0119 C.ar      1 <0>         0.5092
      4 C3          2.3582    0.0588   -0.0202 C.ar      1 <0>        -0.1099
      5 C4          1.1547   -0.6659   -0.0126 C.ar      1 <0>         0.3136
      6 N2          0.0021   -0.0041    0.0020 N.ar      1 <0>        -0.5494
      7 N3          1.5110   -1.9908   -0.0227 N.pl3     1 <0>        -0.4715
      8 C5          2.8729   -2.0476   -0.0358 C.2       1 <0>         0.2632
      9 N4          3.3680   -0.8441   -0.0343 N.2       1 <0>        -0.4603
     10 C6          0.5956   -3.1347   -0.0195 C.3       1 <0>         0.3137
     11 H1         -0.2832   -2.9148    0.5866 H         1 <0>         0.1234
     12 C7          0.1775   -3.4928   -1.4629 C.3       1 <0>         0.0796
     13 H2          0.9267   -3.1463   -2.1747 H         1 <0>         0.0853
     14 C8          0.1056   -5.0362   -1.4608 C.3       1 <0>         0.0473
     15 H3          0.8193   -5.4528   -2.1716 H         1 <0>         0.0872
     16 C9          0.4888   -5.4280   -0.0165 C.3       1 <0>         0.0504
     17 H4         -0.4066   -5.5617    0.5906 H         1 <0>         0.1003
     18 O1          1.2661   -4.3138    0.4763 O.3       1 <0>        -0.3469
     19 C10         1.3272   -6.7078   -0.0164 C.3       1 <0>         0.0821
     20 O2          1.5723   -7.1166    1.3308 O.3       1 <0>        -0.5635
     21 O3         -1.2191   -5.4762   -1.7672 O.3       1 <0>        -0.5387
     22 O4         -1.0998   -2.9297   -1.7685 O.3       1 <0>        -0.5254
     23 N5          3.4393    2.2295   -0.0193 N.pl3     1 <0>        -0.8172
     24 H5         -0.9693    1.8187    0.0257 H         1 <0>         0.2064
     25 H6          3.4551   -2.9572   -0.0459 H         1 <0>         0.2235
     26 H7          0.7880   -7.4954   -0.5427 H         1 <0>         0.0672
     27 H8          2.2767   -6.5201   -0.5176 H         1 <0>         0.0610
     28 H9          2.0996   -7.9235    1.4072 H         1 <0>         0.3868
     29 H10        -1.3212   -6.4377   -1.7794 H         1 <0>         0.3874
     30 H11        -1.4113   -3.1237   -2.6632 H         1 <0>         0.3908
     31 H12         3.3774    3.1975   -0.0138 H         1 <0>         0.4112
     32 H13         4.3085    1.7992   -0.0299 H         1 <0>         0.4190
@<TRIPOS>BOND
     1    1    6 ar
     2    1    2 ar
     3    1   24 1
     4    2    3 ar
     5    3    4 ar
     6    3   23 1
     7    4    9 1
     8    4    5 ar
     9    5    6 ar
    10    5    7 1
    11    7    8 1
    12    7   10 1
    13    8    9 2
    14    8   25 1
    15   10   11 1
    16   10   18 1
    17   10   12 1
    18   12   13 1
    19   12   14 1
    20   12   22 1
    21   14   15 1
    22   14   16 1
    23   14   21 1
    24   16   17 1
    25   16   18 1
    26   16   19 1
    27   19   20 1
    28   19   26 1
    29   19   27 1
    30   20   28 1
    31   21   29 1
    32   22   30 1
    33   23   31 1
    34   23   32 1
