@<TRIPOS>MOLECULE
ZINC20347397
   73    77     0     0     0
SMALL
USER_CHARGES
2-[4-[(2S)-2-hydroxy-3-(2-isopropylphenoxy)propyl]piperazin-1-yl]ethylBLAHdione
@<TRIPOS>ATOM
      1 C1         -1.3809   -5.5588    1.6529 C.3       1 <0>        -0.1450
      2 C2         -1.3997   -4.7748    0.3392 C.3       1 <0>        -0.0507
      3 C3         -1.3282   -5.7498   -0.8377 C.3       1 <0>        -0.1453
      4 C4         -2.6728   -3.9732    0.2509 C.ar      1 <0>        -0.1032
      5 C5         -3.8965   -4.6142    0.2746 C.ar      1 <0>        -0.0777
      6 C6         -5.0647   -3.8794    0.1940 C.ar      1 <0>        -0.1501
      7 C7         -5.0118   -2.5014    0.0900 C.ar      1 <0>        -0.0849
      8 C8         -3.7911   -1.8555    0.0711 C.ar      1 <0>        -0.2079
      9 C9         -2.6170   -2.5912    0.1461 C.ar      1 <0>         0.1255
     10 O1         -1.4146   -1.9583    0.1225 O.3       1 <0>        -0.3017
     11 C10        -1.4333   -0.5336    0.0129 C.3       1 <0>         0.0637
     12 C11         0.0021   -0.0041    0.0020 C.3       1 <0>         0.1246
     13 H1          0.5797   -0.3999    0.8503 H         1 <0>         0.0632
     14 C12        -0.0187    1.5258    0.0104 C.3       1 <0>         0.0232
     15 N1          1.3595    2.0342    0.0000 N.3       1 <0>        -0.5375
     16 C13         2.0571    1.6904    1.2469 C.3       1 <0>         0.0159
     17 C14         3.5092    2.1669    1.1639 C.3       1 <0>        -0.0045
     18 N2          3.5334    3.6180    0.9332 N.4       1 <0>        -0.3962
     19 C15         2.8358    3.9619   -0.3136 C.3       1 <0>         0.0022
     20 C16         1.3837    3.4854   -0.2307 C.3       1 <0>         0.0279
     21 C17         4.9116    4.1265    0.9228 C.3       1 <0>        -0.0202
     22 C18         5.5225    3.9727    2.3171 C.3       1 <0>         0.0703
     23 N3          6.8969    4.4798    2.3067 N.am      1 <0>        -0.5590
     24 C19         7.8996    3.6292    2.0164 C.2       1 <0>         0.5779
     25 O2          7.6522    2.4643    1.7696 O.2       1 <0>        -0.4913
     26 C20         9.2916    4.1020    1.9915 C.ar      1 <0>        -0.1795
     27 C21        10.3542    3.2617    1.6937 C.ar      1 <0>         0.0106
     28 C22        11.6537    3.7546    1.6876 C.ar      1 <0>        -0.1432
     29 C23        11.9241    5.0627    1.9706 C.ar      1 <0>        -0.0321
     30 C24        10.8757    5.9475    2.2775 C.ar      1 <0>        -0.0811
     31 C25         9.5523    5.4594    2.2871 C.ar      1 <0>         0.0148
     32 C26         8.4765    6.3236    2.5927 C.ar      1 <0>        -0.1795
     33 C27         8.7427    7.6538    2.8818 C.ar      1 <0>         0.0103
     34 C28        10.0510    8.1229    2.8687 C.ar      1 <0>        -0.1433
     35 C29        11.1024    7.3024    2.5757 C.ar      1 <0>        -0.0320
     36 C30         7.1112    5.7780    2.5931 C.2       1 <0>         0.5778
     37 O3          6.1702    6.5032    2.8532 O.2       1 <0>        -0.4919
     38 O4          0.6709   -0.4649   -1.1737 O.3       1 <0>        -0.5753
     39 H2         -1.4323   -4.8578    2.4990 H         1 <0>         0.0533
     40 H3         -0.4517   -6.1439    1.7174 H         1 <0>         0.0593
     41 H4         -2.2452   -6.2384    1.6867 H         1 <0>         0.0577
     42 H5         -0.5451   -4.0831    0.3042 H         1 <0>         0.0836
     43 H6         -1.3417   -5.1861   -1.7822 H         1 <0>         0.0553
     44 H7         -2.1925   -6.4294   -0.8039 H         1 <0>         0.0571
     45 H8         -0.3990   -6.3349   -0.7732 H         1 <0>         0.0593
     46 H9         -3.9405   -5.6902    0.3565 H         1 <0>         0.1300
     47 H10        -6.0203   -4.3823    0.2128 H         1 <0>         0.1260
     48 H11        -5.9259   -1.9296    0.0275 H         1 <0>         0.1252
     49 H12        -3.7504   -0.7790   -0.0057 H         1 <0>         0.1234
     50 H13        -1.9380   -0.2443   -0.9207 H         1 <0>         0.0735
     51 H14        -1.9750   -0.1070    0.8699 H         1 <0>         0.0759
     52 H15        -0.5507    1.8901   -0.8808 H         1 <0>         0.1022
     53 H16        -0.5336    1.8806    0.9154 H         1 <0>         0.0590
     54 H17         1.5568    2.1817    2.0944 H         1 <0>         0.0658
     55 H18         2.0356    0.6000    1.3905 H         1 <0>         0.1269
     56 H19         4.0254    1.9360    2.1074 H         1 <0>         0.1380
     57 H20         4.0165    1.6541    0.3334 H         1 <0>         0.1404
     58 H21         2.8573    5.0523   -0.4570 H         1 <0>         0.1386
     59 H22         3.3361    3.4707   -1.1612 H         1 <0>         0.1380
     60 H23         0.8669    3.7153   -1.1741 H         1 <0>         0.1272
     61 H24         0.8756    3.9973    0.5999 H         1 <0>         0.0645
     62 H25         5.5078    3.5550    0.1962 H         1 <0>         0.1351
     63 H26         4.9082    5.1893    0.6392 H         1 <0>         0.1377
     64 H27         4.9263    4.5442    3.0437 H         1 <0>         0.1207
     65 H28         5.5259    2.9099    2.6007 H         1 <0>         0.1201
     66 H29        10.1713    2.2220    1.4657 H         1 <0>         0.1482
     67 H30        12.4695    3.0867    1.4536 H         1 <0>         0.1456
     68 H31        12.9440    5.4179    1.9583 H         1 <0>         0.1473
     69 H32         7.9314    8.3268    3.1170 H         1 <0>         0.1481
     70 H33        10.2407    9.1615    3.0962 H         1 <0>         0.1455
     71 H34        12.1087    7.6946    2.5734 H         1 <0>         0.1473
     72 H35         1.7186   -0.1840   -1.3563 H         1 <0>         0.4086
     73 H36         3.0015    4.1031    1.7649 H         1 <0>         0.4404
@<TRIPOS>BOND
     1    1    2 1
     2    1   39 1
     3    1   40 1
     4    1   41 1
     5    2    3 1
     6    2    4 1
     7    2   42 1
     8    3   43 1
     9    3   44 1
    10    3   45 1
    11    4    9 ar
    12    4    5 ar
    13    5    6 ar
    14    5   46 1
    15    6    7 ar
    16    6   47 1
    17    7    8 ar
    18    7   48 1
    19    8    9 ar
    20    8   49 1
    21    9   10 1
    22   10   11 1
    23   11   12 1
    24   11   50 1
    25   11   51 1
    26   12   13 1
    27   12   14 1
    28   12   38 1
    29   14   15 1
    30   14   52 1
    31   14   53 1
    32   15   20 1
    33   15   16 1
    34   16   17 1
    35   16   54 1
    36   16   55 1
    37   17   18 1
    38   17   56 1
    39   17   57 1
    40   18   19 1
    41   18   21 1
    42   18   73 1
    43   19   20 1
    44   19   58 1
    45   19   59 1
    46   20   60 1
    47   20   61 1
    48   21   22 1
    49   21   62 1
    50   21   63 1
    51   22   23 1
    52   22   64 1
    53   22   65 1
    54   23   36 am
    55   23   24 am
    56   24   25 2
    57   24   26 1
    58   26   31 ar
    59   26   27 ar
    60   27   28 ar
    61   27   66 1
    62   28   29 ar
    63   28   67 1
    64   29   30 ar
    65   29   68 1
    66   30   35 ar
    67   30   31 ar
    68   31   32 ar
    69   32   33 ar
    70   32   36 1
    71   33   34 ar
    72   33   69 1
    73   34   35 ar
    74   34   70 1
    75   35   71 1
    76   36   37 2
    77   38   72 1
@<TRIPOS>MOLECULE
ZINC20347397
   72    76     0     0     0
SMALL
USER_CHARGES
2-[4-[(2S)-2-hydroxy-3-(2-isopropylphenoxy)propyl]piperazin-1-yl]ethylBLAHdione
@<TRIPOS>ATOM
      1 C1         -1.3809   -5.5588    1.6529 C.3       1 <0>        -0.1435
      2 C2         -1.3997   -4.7748    0.3392 C.3       1 <0>        -0.0528
      3 C3         -1.3282   -5.7498   -0.8377 C.3       1 <0>        -0.1433
      4 C4         -2.6728   -3.9732    0.2509 C.ar      1 <0>        -0.1059
      5 C5         -3.8965   -4.6142    0.2746 C.ar      1 <0>        -0.0789
      6 C6         -5.0647   -3.8794    0.1940 C.ar      1 <0>        -0.1563
      7 C7         -5.0118   -2.5014    0.0900 C.ar      1 <0>        -0.0851
      8 C8         -3.7911   -1.8555    0.0711 C.ar      1 <0>        -0.2088
      9 C9         -2.6170   -2.5912    0.1461 C.ar      1 <0>         0.1315
     10 O1         -1.4146   -1.9583    0.1225 O.3       1 <0>        -0.3008
     11 C10        -1.4333   -0.5336    0.0129 C.3       1 <0>         0.0665
     12 C11         0.0021   -0.0041    0.0020 C.3       1 <0>         0.1253
     13 H1          0.5797   -0.3999    0.8503 H         1 <0>         0.0623
     14 C12        -0.0187    1.5258    0.0104 C.3       1 <0>         0.0257
     15 N1          1.3595    2.0342    0.0000 N.3       1 <0>        -0.5368
     16 C13         2.0571    1.6904    1.2469 C.3       1 <0>         0.0486
     17 C14         3.5092    2.1669    1.1639 C.3       1 <0>         0.0522
     18 N2          3.5334    3.6180    0.9332 N.3       1 <0>        -0.5336
     19 C15         2.8358    3.9619   -0.3136 C.3       1 <0>         0.0582
     20 C16         1.3837    3.4854   -0.2307 C.3       1 <0>         0.0590
     21 C17         4.9116    4.1265    0.9228 C.3       1 <0>         0.0468
     22 C18         5.5225    3.9727    2.3171 C.3       1 <0>         0.0966
     23 N3          6.8969    4.4798    2.3067 N.am      1 <0>        -0.5590
     24 C19         7.8996    3.6292    2.0164 C.2       1 <0>         0.5709
     25 O2          7.6522    2.4643    1.7696 O.2       1 <0>        -0.4904
     26 C20         9.2916    4.1020    1.9915 C.ar      1 <0>        -0.1624
     27 C21        10.3542    3.2617    1.6937 C.ar      1 <0>        -0.0045
     28 C22        11.6537    3.7546    1.6876 C.ar      1 <0>        -0.1389
     29 C23        11.9241    5.0627    1.9706 C.ar      1 <0>        -0.0477
     30 C24        10.8757    5.9475    2.2775 C.ar      1 <0>        -0.0765
     31 C25         9.5523    5.4594    2.2871 C.ar      1 <0>         0.0080
     32 C26         8.4765    6.3236    2.5927 C.ar      1 <0>        -0.1620
     33 C27         8.7427    7.6538    2.8818 C.ar      1 <0>        -0.0045
     34 C28        10.0510    8.1229    2.8687 C.ar      1 <0>        -0.1387
     35 C29        11.1024    7.3024    2.5757 C.ar      1 <0>        -0.0480
     36 C30         7.1112    5.7780    2.5931 C.2       1 <0>         0.5701
     37 O3          6.1702    6.5032    2.8532 O.2       1 <0>        -0.4863
     38 O4          0.6709   -0.4649   -1.1737 O.3       1 <0>        -0.5837
     39 H2         -1.4323   -4.8578    2.4990 H         1 <0>         0.0541
     40 H3         -0.4517   -6.1439    1.7174 H         1 <0>         0.0583
     41 H4         -2.2452   -6.2384    1.6867 H         1 <0>         0.0554
     42 H5         -0.5451   -4.0831    0.3042 H         1 <0>         0.0866
     43 H6         -1.3417   -5.1861   -1.7822 H         1 <0>         0.0554
     44 H7         -2.1925   -6.4294   -0.8039 H         1 <0>         0.0549
     45 H8         -0.3990   -6.3349   -0.7732 H         1 <0>         0.0581
     46 H9         -3.9405   -5.6902    0.3565 H         1 <0>         0.1274
     47 H10        -6.0203   -4.3823    0.2128 H         1 <0>         0.1229
     48 H11        -5.9259   -1.9296    0.0275 H         1 <0>         0.1233
     49 H12        -3.7504   -0.7790   -0.0057 H         1 <0>         0.1252
     50 H13        -1.9380   -0.2443   -0.9207 H         1 <0>         0.0713
     51 H14        -1.9750   -0.1070    0.8699 H         1 <0>         0.0748
     52 H15        -0.5507    1.8901   -0.8808 H         1 <0>         0.0880
     53 H16        -0.5336    1.8806    0.9154 H         1 <0>         0.0461
     54 H17         1.5568    2.1817    2.0944 H         1 <0>         0.0470
     55 H18         2.0356    0.6000    1.3905 H         1 <0>         0.0836
     56 H19         4.0254    1.9360    2.1074 H         1 <0>         0.0837
     57 H20         4.0165    1.6541    0.3334 H         1 <0>         0.0479
     58 H21         2.8573    5.0523   -0.4570 H         1 <0>         0.0830
     59 H22         3.3361    3.4707   -1.1612 H         1 <0>         0.0460
     60 H23         0.8669    3.7153   -1.1741 H         1 <0>         0.0836
     61 H24         0.8756    3.9973    0.5999 H         1 <0>         0.0466
     62 H25         5.5078    3.5550    0.1962 H         1 <0>         0.0423
     63 H26         4.9082    5.1893    0.6392 H         1 <0>         0.0813
     64 H27         4.9263    4.5442    3.0437 H         1 <0>         0.1085
     65 H28         5.5259    2.9099    2.6007 H         1 <0>         0.0997
     66 H29        10.1713    2.2220    1.4657 H         1 <0>         0.1463
     67 H30        12.4695    3.0867    1.4536 H         1 <0>         0.1406
     68 H31        12.9440    5.4179    1.9583 H         1 <0>         0.1420
     69 H32         7.9314    8.3268    3.1170 H         1 <0>         0.1466
     70 H33        10.2407    9.1615    3.0962 H         1 <0>         0.1407
     71 H34        12.1087    7.6946    2.5734 H         1 <0>         0.1420
     72 H35         1.7186   -0.1840   -1.3563 H         1 <0>         0.4134
@<TRIPOS>BOND
     1    1    2 1
     2    1   39 1
     3    1   40 1
     4    1   41 1
     5    2    3 1
     6    2    4 1
     7    2   42 1
     8    3   43 1
     9    3   44 1
    10    3   45 1
    11    4    9 ar
    12    4    5 ar
    13    5    6 ar
    14    5   46 1
    15    6    7 ar
    16    6   47 1
    17    7    8 ar
    18    7   48 1
    19    8    9 ar
    20    8   49 1
    21    9   10 1
    22   10   11 1
    23   11   12 1
    24   11   50 1
    25   11   51 1
    26   12   13 1
    27   12   14 1
    28   12   38 1
    29   14   15 1
    30   14   52 1
    31   14   53 1
    32   15   20 1
    33   15   16 1
    34   16   17 1
    35   16   54 1
    36   16   55 1
    37   17   18 1
    38   17   56 1
    39   17   57 1
    40   18   19 1
    41   18   21 1
    42   19   20 1
    43   19   58 1
    44   19   59 1
    45   20   60 1
    46   20   61 1
    47   21   22 1
    48   21   62 1
    49   21   63 1
    50   22   23 1
    51   22   64 1
    52   22   65 1
    53   23   36 am
    54   23   24 am
    55   24   25 2
    56   24   26 1
    57   26   31 ar
    58   26   27 ar
    59   27   28 ar
    60   27   66 1
    61   28   29 ar
    62   28   67 1
    63   29   30 ar
    64   29   68 1
    65   30   35 ar
    66   30   31 ar
    67   31   32 ar
    68   32   33 ar
    69   32   36 1
    70   33   34 ar
    71   33   69 1
    72   34   35 ar
    73   34   70 1
    74   35   71 1
    75   36   37 2
    76   38   72 1
@<TRIPOS>MOLECULE
ZINC20347397
   73    77     0     0     0
SMALL
USER_CHARGES
2-[4-[(2S)-2-hydroxy-3-(2-isopropylphenoxy)propyl]piperazin-1-yl]ethylBLAHdione
@<TRIPOS>ATOM
      1 C1         -1.3809   -5.5588    1.6529 C.3       1 <0>        -0.1465
      2 C2         -1.3997   -4.7748    0.3392 C.3       1 <0>        -0.0502
      3 C3         -1.3282   -5.7498   -0.8377 C.3       1 <0>        -0.1464
      4 C4         -2.6728   -3.9732    0.2509 C.ar      1 <0>        -0.0989
      5 C5         -3.8965   -4.6142    0.2746 C.ar      1 <0>        -0.0769
      6 C6         -5.0647   -3.8794    0.1940 C.ar      1 <0>        -0.1446
      7 C7         -5.0118   -2.5014    0.0900 C.ar      1 <0>        -0.0847
      8 C8         -3.7911   -1.8555    0.0711 C.ar      1 <0>        -0.2061
      9 C9         -2.6170   -2.5912    0.1461 C.ar      1 <0>         0.1201
     10 O1         -1.4146   -1.9583    0.1225 O.3       1 <0>        -0.3009
     11 C10        -1.4333   -0.5336    0.0129 C.3       1 <0>         0.0655
     12 C11         0.0021   -0.0041    0.0020 C.3       1 <0>         0.0965
     13 H1          0.5797   -0.3999    0.8503 H         1 <0>         0.0915
     14 C12        -0.0187    1.5258    0.0104 C.3       1 <0>        -0.0391
     15 N1          1.3595    2.0342    0.0000 N.4       1 <0>        -0.3985
     16 C13         2.0571    1.6904    1.2469 C.3       1 <0>        -0.0088
     17 C14         3.5092    2.1669    1.1639 C.3       1 <0>         0.0188
     18 N2          3.5334    3.6180    0.9332 N.3       1 <0>        -0.5328
     19 C15         2.8358    3.9619   -0.3136 C.3       1 <0>         0.0259
     20 C16         1.3837    3.4854   -0.2307 C.3       1 <0>         0.0031
     21 C17         4.9116    4.1265    0.9228 C.3       1 <0>         0.0435
     22 C18         5.5225    3.9727    2.3171 C.3       1 <0>         0.0956
     23 N3          6.8969    4.4798    2.3067 N.am      1 <0>        -0.5612
     24 C19         7.8996    3.6292    2.0164 C.2       1 <0>         0.5766
     25 O2          7.6522    2.4643    1.7696 O.2       1 <0>        -0.4983
     26 C20         9.2916    4.1020    1.9915 C.ar      1 <0>        -0.1729
     27 C21        10.3542    3.2617    1.6937 C.ar      1 <0>         0.0024
     28 C22        11.6537    3.7546    1.6876 C.ar      1 <0>        -0.1421
     29 C23        11.9241    5.0627    1.9706 C.ar      1 <0>        -0.0389
     30 C24        10.8757    5.9475    2.2775 C.ar      1 <0>        -0.0788
     31 C25         9.5523    5.4594    2.2871 C.ar      1 <0>         0.0111
     32 C26         8.4765    6.3236    2.5927 C.ar      1 <0>        -0.1720
     33 C27         8.7427    7.6538    2.8818 C.ar      1 <0>         0.0030
     34 C28        10.0510    8.1229    2.8687 C.ar      1 <0>        -0.1408
     35 C29        11.1024    7.3024    2.5757 C.ar      1 <0>        -0.0400
     36 C30         7.1112    5.7780    2.5931 C.2       1 <0>         0.5738
     37 O3          6.1702    6.5032    2.8532 O.2       1 <0>        -0.4881
     38 O4          0.6709   -0.4649   -1.1737 O.3       1 <0>        -0.5644
     39 H2         -1.4323   -4.8578    2.4990 H         1 <0>         0.0539
     40 H3         -0.4517   -6.1439    1.7174 H         1 <0>         0.0607
     41 H4         -2.2452   -6.2384    1.6867 H         1 <0>         0.0589
     42 H5         -0.5451   -4.0831    0.3042 H         1 <0>         0.0819
     43 H6         -1.3417   -5.1861   -1.7822 H         1 <0>         0.0549
     44 H7         -2.1925   -6.4294   -0.8039 H         1 <0>         0.0585
     45 H8         -0.3990   -6.3349   -0.7732 H         1 <0>         0.0606
     46 H9         -3.9405   -5.6902    0.3565 H         1 <0>         0.1321
     47 H10        -6.0203   -4.3823    0.2128 H         1 <0>         0.1282
     48 H11        -5.9259   -1.9296    0.0275 H         1 <0>         0.1273
     49 H12        -3.7504   -0.7790   -0.0057 H         1 <0>         0.1233
     50 H13        -1.9380   -0.2443   -0.9207 H         1 <0>         0.0812
     51 H14        -1.9750   -0.1070    0.8699 H         1 <0>         0.0878
     52 H15        -0.5507    1.8901   -0.8808 H         1 <0>         0.1455
     53 H16        -0.5336    1.8806    0.9154 H         1 <0>         0.1437
     54 H17         1.5568    2.1817    2.0944 H         1 <0>         0.1418
     55 H18         2.0356    0.6000    1.3905 H         1 <0>         0.1373
     56 H19         4.0254    1.9360    2.1074 H         1 <0>         0.1283
     57 H20         4.0165    1.6541    0.3334 H         1 <0>         0.0664
     58 H21         2.8573    5.0523   -0.4570 H         1 <0>         0.1277
     59 H22         3.3361    3.4707   -1.1612 H         1 <0>         0.0637
     60 H23         0.8669    3.7153   -1.1741 H         1 <0>         0.1397
     61 H24         0.8756    3.9973    0.5999 H         1 <0>         0.1399
     62 H25         5.5078    3.5550    0.1962 H         1 <0>         0.0548
     63 H26         4.9082    5.1893    0.6392 H         1 <0>         0.0958
     64 H27         4.9263    4.5442    3.0437 H         1 <0>         0.1123
     65 H28         5.5259    2.9099    2.6007 H         1 <0>         0.0989
     66 H29        10.1713    2.2220    1.4657 H         1 <0>         0.1461
     67 H30        12.4695    3.0867    1.4536 H         1 <0>         0.1430
     68 H31        12.9440    5.4179    1.9583 H         1 <0>         0.1450
     69 H32         7.9314    8.3268    3.1170 H         1 <0>         0.1473
     70 H33        10.2407    9.1615    3.0962 H         1 <0>         0.1434
     71 H34        12.1087    7.6946    2.5734 H         1 <0>         0.1450
     72 H35         1.7186   -0.1840   -1.3563 H         1 <0>         0.4004
     73 H36         1.8913    1.5489   -0.8317 H         1 <0>         0.4293
@<TRIPOS>BOND
     1    1    2 1
     2    1   39 1
     3    1   40 1
     4    1   41 1
     5    2    3 1
     6    2    4 1
     7    2   42 1
     8    3   43 1
     9    3   44 1
    10    3   45 1
    11    4    9 ar
    12    4    5 ar
    13    5    6 ar
    14    5   46 1
    15    6    7 ar
    16    6   47 1
    17    7    8 ar
    18    7   48 1
    19    8    9 ar
    20    8   49 1
    21    9   10 1
    22   10   11 1
    23   11   12 1
    24   11   50 1
    25   11   51 1
    26   12   13 1
    27   12   14 1
    28   12   38 1
    29   14   15 1
    30   14   52 1
    31   14   53 1
    32   15   20 1
    33   15   16 1
    34   15   73 1
    35   16   17 1
    36   16   54 1
    37   16   55 1
    38   17   18 1
    39   17   56 1
    40   17   57 1
    41   18   19 1
    42   18   21 1
    43   19   20 1
    44   19   58 1
    45   19   59 1
    46   20   60 1
    47   20   61 1
    48   21   22 1
    49   21   62 1
    50   21   63 1
    51   22   23 1
    52   22   64 1
    53   22   65 1
    54   23   36 am
    55   23   24 am
    56   24   25 2
    57   24   26 1
    58   26   31 ar
    59   26   27 ar
    60   27   28 ar
    61   27   66 1
    62   28   29 ar
    63   28   67 1
    64   29   30 ar
    65   29   68 1
    66   30   35 ar
    67   30   31 ar
    68   31   32 ar
    69   32   33 ar
    70   32   36 1
    71   33   34 ar
    72   33   69 1
    73   34   35 ar
    74   34   70 1
    75   35   71 1
    76   36   37 2
    77   38   72 1
@<TRIPOS>MOLECULE
ZINC20347398
   73    77     0     0     0
SMALL
USER_CHARGES
2-[4-[(2R)-2-hydroxy-3-(2-isopropylphenoxy)propyl]piperazin-1-yl]ethylBLAHdione
@<TRIPOS>ATOM
      1 C1         -8.2010    1.2490   -1.3504 C.3       1 <0>        -0.1452
      2 C2         -7.0235    0.4664   -1.9353 C.3       1 <0>        -0.0507
      3 C3         -7.4876   -0.9387   -2.3239 C.3       1 <0>        -0.1450
      4 C4         -6.5037    1.1795   -3.1570 C.ar      1 <0>        -0.1032
      5 C5         -7.3350    1.3910   -4.2402 C.ar      1 <0>        -0.0777
      6 C6         -6.8589    2.0455   -5.3609 C.ar      1 <0>        -0.1502
      7 C7         -5.5502    2.4905   -5.4009 C.ar      1 <0>        -0.0850
      8 C8         -4.7167    2.2862   -4.3186 C.ar      1 <0>        -0.2079
      9 C9         -5.1905    1.6245   -3.1948 C.ar      1 <0>         0.1255
     10 O1         -4.3709    1.4177   -2.1306 O.3       1 <0>        -0.3015
     11 C10        -3.0312    1.9030   -2.2396 C.3       1 <0>         0.0634
     12 C11        -2.2657    1.5803   -0.9548 C.3       1 <0>         0.1275
     13 H1         -2.3571    0.5159   -0.6928 H         1 <0>         0.0627
     14 C12        -0.8000    1.9874   -1.1184 C.3       1 <0>         0.0227
     15 N1         -0.0516    1.6193    0.0908 N.3       1 <0>        -0.5386
     16 C13         1.2038    2.3775    0.1844 C.3       1 <0>         0.0285
     17 C14         1.9134    2.0246    1.4938 C.3       1 <0>        -0.0101
     18 N2          2.1707    0.5783    1.5340 N.4       1 <0>        -0.3956
     19 C15         0.9153   -0.1799    1.4404 C.3       1 <0>         0.0026
     20 C16         0.2057    0.1730    0.1311 C.3       1 <0>         0.0191
     21 C17         2.9191    0.2102    2.7433 C.3       1 <0>        -0.0196
     22 C18         4.0828    1.1840    2.9391 C.3       1 <0>         0.0680
     23 N3          4.8292    0.8169    4.1451 N.am      1 <0>        -0.5594
     24 C19         4.4669    1.3608    5.3224 C.2       1 <0>         0.5778
     25 O2          3.5349    2.1409    5.3670 O.2       1 <0>        -0.4912
     26 C20         5.1889    1.0132    6.5552 C.ar      1 <0>        -0.1795
     27 C21         4.8470    1.5464    7.7892 C.ar      1 <0>         0.0105
     28 C22         5.5632    1.1906    8.9261 C.ar      1 <0>        -0.1432
     29 C23         6.6117    0.3179    8.8673 C.ar      1 <0>        -0.0322
     30 C24         6.9904   -0.2450    7.6360 C.ar      1 <0>        -0.0811
     31 C25         6.2715    0.1081    6.4750 C.ar      1 <0>         0.0148
     32 C26         6.6283   -0.4401    5.2220 C.ar      1 <0>        -0.1796
     33 C27         7.6925   -1.3271    5.1536 C.ar      1 <0>         0.0103
     34 C28         8.3928   -1.6675    6.3049 C.ar      1 <0>        -0.1433
     35 C29         8.0621   -1.1478    7.5235 C.ar      1 <0>        -0.0320
     36 C30         5.8556   -0.0477    4.0343 C.2       1 <0>         0.5777
     37 O3          6.1447   -0.5067    2.9459 O.2       1 <0>        -0.4922
     38 O4         -2.8414    2.3011    0.1365 O.3       1 <0>        -0.5768
     39 H2         -7.8672    2.2592   -1.0710 H         1 <0>         0.0554
     40 H3         -8.5804    0.7285   -0.4587 H         1 <0>         0.0593
     41 H4         -9.0018    1.3219   -2.1010 H         1 <0>         0.0571
     42 H5         -6.2130    0.4009   -1.1945 H         1 <0>         0.0837
     43 H6         -6.6410   -1.5013   -2.7444 H         1 <0>         0.0532
     44 H7         -8.2884   -0.8658   -3.0745 H         1 <0>         0.0577
     45 H8         -7.8670   -1.4592   -1.4322 H         1 <0>         0.0592
     46 H9         -8.3577    1.0450   -4.2111 H         1 <0>         0.1300
     47 H10        -7.5102    2.2098   -6.2066 H         1 <0>         0.1259
     48 H11        -5.1807    3.0018   -6.2775 H         1 <0>         0.1251
     49 H12        -3.6960    2.6379   -4.3485 H         1 <0>         0.1234
     50 H13        -2.5344    1.4195   -3.0937 H         1 <0>         0.0755
     51 H14        -3.0471    2.9921   -2.3932 H         1 <0>         0.0729
     52 H15        -0.3702    1.4684   -1.9878 H         1 <0>         0.0609
     53 H16        -0.7364    3.0747   -1.2722 H         1 <0>         0.1006
     54 H17         1.8521    2.1198   -0.6661 H         1 <0>         0.0644
     55 H18         0.9837    3.4551    0.1643 H         1 <0>         0.1275
     56 H19         2.8672    2.5695    1.5524 H         1 <0>         0.1389
     57 H20         1.2761    2.3085    2.3443 H         1 <0>         0.1421
     58 H21         1.1354   -1.2575    1.4604 H         1 <0>         0.1384
     59 H22         0.2670    0.0777    2.2909 H         1 <0>         0.1378
     60 H23        -0.7486   -0.3710    0.0719 H         1 <0>         0.1259
     61 H24         0.8425   -0.1100   -0.7200 H         1 <0>         0.0658
     62 H25         2.2513    0.2567    3.6161 H         1 <0>         0.1345
     63 H26         3.3106   -0.8121    2.6353 H         1 <0>         0.1379
     64 H27         4.7506    1.1375    2.0662 H         1 <0>         0.1207
     65 H28         3.6913    2.2063    3.0472 H         1 <0>         0.1227
     66 H29         4.0223    2.2393    7.8669 H         1 <0>         0.1482
     67 H30         5.2838    1.6151    9.8791 H         1 <0>         0.1456
     68 H31         7.1501    0.0597    9.7672 H         1 <0>         0.1473
     69 H32         7.9771   -1.7548    4.2036 H         1 <0>         0.1480
     70 H33         9.2188   -2.3596    6.2339 H         1 <0>         0.1455
     71 H34         8.6244   -1.4302    8.4012 H         1 <0>         0.1473
     72 H35        -2.4217    2.1955    1.1478 H         1 <0>         0.4093
     73 H36         2.7899    0.3190    0.6626 H         1 <0>         0.4421
@<TRIPOS>BOND
     1    1    2 1
     2    1   39 1
     3    1   40 1
     4    1   41 1
     5    2    3 1
     6    2    4 1
     7    2   42 1
     8    3   43 1
     9    3   44 1
    10    3   45 1
    11    4    9 ar
    12    4    5 ar
    13    5    6 ar
    14    5   46 1
    15    6    7 ar
    16    6   47 1
    17    7    8 ar
    18    7   48 1
    19    8    9 ar
    20    8   49 1
    21    9   10 1
    22   10   11 1
    23   11   12 1
    24   11   50 1
    25   11   51 1
    26   12   13 1
    27   12   14 1
    28   12   38 1
    29   14   15 1
    30   14   52 1
    31   14   53 1
    32   15   20 1
    33   15   16 1
    34   16   17 1
    35   16   54 1
    36   16   55 1
    37   17   18 1
    38   17   56 1
    39   17   57 1
    40   18   19 1
    41   18   21 1
    42   18   73 1
    43   19   20 1
    44   19   58 1
    45   19   59 1
    46   20   60 1
    47   20   61 1
    48   21   22 1
    49   21   62 1
    50   21   63 1
    51   22   23 1
    52   22   64 1
    53   22   65 1
    54   23   36 am
    55   23   24 am
    56   24   25 2
    57   24   26 1
    58   26   31 ar
    59   26   27 ar
    60   27   28 ar
    61   27   66 1
    62   28   29 ar
    63   28   67 1
    64   29   30 ar
    65   29   68 1
    66   30   35 ar
    67   30   31 ar
    68   31   32 ar
    69   32   33 ar
    70   32   36 1
    71   33   34 ar
    72   33   69 1
    73   34   35 ar
    74   34   70 1
    75   35   71 1
    76   36   37 2
    77   38   72 1
@<TRIPOS>MOLECULE
ZINC20347398
   72    76     0     0     0
SMALL
USER_CHARGES
2-[4-[(2R)-2-hydroxy-3-(2-isopropylphenoxy)propyl]piperazin-1-yl]ethylBLAHdione
@<TRIPOS>ATOM
      1 C1         -8.2010    1.2490   -1.3504 C.3       1 <0>        -0.1433
      2 C2         -7.0235    0.4664   -1.9353 C.3       1 <0>        -0.0527
      3 C3         -7.4876   -0.9387   -2.3239 C.3       1 <0>        -0.1435
      4 C4         -6.5037    1.1795   -3.1570 C.ar      1 <0>        -0.1060
      5 C5         -7.3350    1.3910   -4.2402 C.ar      1 <0>        -0.0789
      6 C6         -6.8589    2.0455   -5.3609 C.ar      1 <0>        -0.1563
      7 C7         -5.5502    2.4905   -5.4009 C.ar      1 <0>        -0.0851
      8 C8         -4.7167    2.2862   -4.3186 C.ar      1 <0>        -0.2088
      9 C9         -5.1905    1.6245   -3.1948 C.ar      1 <0>         0.1315
     10 O1         -4.3709    1.4177   -2.1306 O.3       1 <0>        -0.3007
     11 C10        -3.0312    1.9030   -2.2396 C.3       1 <0>         0.0662
     12 C11        -2.2657    1.5803   -0.9548 C.3       1 <0>         0.1281
     13 H1         -2.3571    0.5159   -0.6928 H         1 <0>         0.0613
     14 C12        -0.8000    1.9874   -1.1184 C.3       1 <0>         0.0250
     15 N1         -0.0516    1.6193    0.0908 N.3       1 <0>        -0.5376
     16 C13         1.2038    2.3775    0.1844 C.3       1 <0>         0.0584
     17 C14         1.9134    2.0246    1.4938 C.3       1 <0>         0.0466
     18 N2          2.1707    0.5783    1.5340 N.3       1 <0>        -0.5320
     19 C15         0.9153   -0.1799    1.4404 C.3       1 <0>         0.0578
     20 C16         0.2057    0.1730    0.1311 C.3       1 <0>         0.0522
     21 C17         2.9191    0.2102    2.7433 C.3       1 <0>         0.0466
     22 C18         4.0828    1.1840    2.9391 C.3       1 <0>         0.0902
     23 N3          4.8292    0.8169    4.1451 N.am      1 <0>        -0.5589
     24 C19         4.4669    1.3608    5.3224 C.2       1 <0>         0.5710
     25 O2          3.5349    2.1409    5.3670 O.2       1 <0>        -0.4905
     26 C20         5.1889    1.0132    6.5552 C.ar      1 <0>        -0.1624
     27 C21         4.8470    1.5464    7.7892 C.ar      1 <0>        -0.0043
     28 C22         5.5632    1.1906    8.9261 C.ar      1 <0>        -0.1390
     29 C23         6.6117    0.3179    8.8673 C.ar      1 <0>        -0.0475
     30 C24         6.9904   -0.2450    7.6360 C.ar      1 <0>        -0.0765
     31 C25         6.2715    0.1081    6.4750 C.ar      1 <0>         0.0081
     32 C26         6.6283   -0.4401    5.2220 C.ar      1 <0>        -0.1622
     33 C27         7.6925   -1.3271    5.1536 C.ar      1 <0>        -0.0043
     34 C28         8.3928   -1.6675    6.3049 C.ar      1 <0>        -0.1387
     35 C29         8.0621   -1.1478    7.5235 C.ar      1 <0>        -0.0479
     36 C30         5.8556   -0.0477    4.0343 C.2       1 <0>         0.5700
     37 O3          6.1447   -0.5067    2.9459 O.2       1 <0>        -0.4858
     38 O4         -2.8414    2.3011    0.1365 O.3       1 <0>        -0.5849
     39 H2         -7.8672    2.2592   -1.0710 H         1 <0>         0.0555
     40 H3         -8.5804    0.7285   -0.4587 H         1 <0>         0.0581
     41 H4         -9.0018    1.3219   -2.1010 H         1 <0>         0.0550
     42 H5         -6.2130    0.4009   -1.1945 H         1 <0>         0.0866
     43 H6         -6.6410   -1.5013   -2.7444 H         1 <0>         0.0541
     44 H7         -8.2884   -0.8658   -3.0745 H         1 <0>         0.0554
     45 H8         -7.8670   -1.4592   -1.4322 H         1 <0>         0.0582
     46 H9         -8.3577    1.0450   -4.2111 H         1 <0>         0.1274
     47 H10        -7.5102    2.2098   -6.2066 H         1 <0>         0.1229
     48 H11        -5.1807    3.0018   -6.2775 H         1 <0>         0.1233
     49 H12        -3.6960    2.6379   -4.3485 H         1 <0>         0.1252
     50 H13        -2.5344    1.4195   -3.0937 H         1 <0>         0.0746
     51 H14        -3.0471    2.9921   -2.3932 H         1 <0>         0.0709
     52 H15        -0.3702    1.4684   -1.9878 H         1 <0>         0.0482
     53 H16        -0.7364    3.0747   -1.2722 H         1 <0>         0.0870
     54 H17         1.8521    2.1198   -0.6661 H         1 <0>         0.0460
     55 H18         0.9837    3.4551    0.1643 H         1 <0>         0.0839
     56 H19         2.8672    2.5695    1.5524 H         1 <0>         0.0853
     57 H20         1.2761    2.3085    2.3443 H         1 <0>         0.0498
     58 H21         1.1354   -1.2575    1.4604 H         1 <0>         0.0823
     59 H22         0.2670    0.0777    2.2909 H         1 <0>         0.0463
     60 H23        -0.7486   -0.3710    0.0719 H         1 <0>         0.0826
     61 H24         0.8425   -0.1100   -0.7200 H         1 <0>         0.0474
     62 H25         2.2513    0.2567    3.6161 H         1 <0>         0.0424
     63 H26         3.3106   -0.8121    2.6353 H         1 <0>         0.0828
     64 H27         4.7506    1.1375    2.0662 H         1 <0>         0.1087
     65 H28         3.6913    2.2063    3.0472 H         1 <0>         0.1029
     66 H29         4.0223    2.2393    7.8669 H         1 <0>         0.1463
     67 H30         5.2838    1.6151    9.8791 H         1 <0>         0.1407
     68 H31         7.1501    0.0597    9.7672 H         1 <0>         0.1421
     69 H32         7.9771   -1.7548    4.2036 H         1 <0>         0.1467
     70 H33         9.2188   -2.3596    6.2339 H         1 <0>         0.1407
     71 H34         8.6244   -1.4302    8.4012 H         1 <0>         0.1420
     72 H35        -2.4217    2.1955    1.1478 H         1 <0>         0.4136
@<TRIPOS>BOND
     1    1    2 1
     2    1   39 1
     3    1   40 1
     4    1   41 1
     5    2    3 1
     6    2    4 1
     7    2   42 1
     8    3   43 1
     9    3   44 1
    10    3   45 1
    11    4    9 ar
    12    4    5 ar
    13    5    6 ar
    14    5   46 1
    15    6    7 ar
    16    6   47 1
    17    7    8 ar
    18    7   48 1
    19    8    9 ar
    20    8   49 1
    21    9   10 1
    22   10   11 1
    23   11   12 1
    24   11   50 1
    25   11   51 1
    26   12   13 1
    27   12   14 1
    28   12   38 1
    29   14   15 1
    30   14   52 1
    31   14   53 1
    32   15   20 1
    33   15   16 1
    34   16   17 1
    35   16   54 1
    36   16   55 1
    37   17   18 1
    38   17   56 1
    39   17   57 1
    40   18   19 1
    41   18   21 1
    42   19   20 1
    43   19   58 1
    44   19   59 1
    45   20   60 1
    46   20   61 1
    47   21   22 1
    48   21   62 1
    49   21   63 1
    50   22   23 1
    51   22   64 1
    52   22   65 1
    53   23   36 am
    54   23   24 am
    55   24   25 2
    56   24   26 1
    57   26   31 ar
    58   26   27 ar
    59   27   28 ar
    60   27   66 1
    61   28   29 ar
    62   28   67 1
    63   29   30 ar
    64   29   68 1
    65   30   35 ar
    66   30   31 ar
    67   31   32 ar
    68   32   33 ar
    69   32   36 1
    70   33   34 ar
    71   33   69 1
    72   34   35 ar
    73   34   70 1
    74   35   71 1
    75   36   37 2
    76   38   72 1
@<TRIPOS>MOLECULE
ZINC20347398
   73    77     0     0     0
SMALL
USER_CHARGES
2-[4-[(2R)-2-hydroxy-3-(2-isopropylphenoxy)propyl]piperazin-1-yl]ethylBLAHdione
@<TRIPOS>ATOM
      1 C1         -8.2010    1.2490   -1.3504 C.3       1 <0>        -0.1464
      2 C2         -7.0235    0.4664   -1.9353 C.3       1 <0>        -0.0501
      3 C3         -7.4876   -0.9387   -2.3239 C.3       1 <0>        -0.1465
      4 C4         -6.5037    1.1795   -3.1570 C.ar      1 <0>        -0.0990
      5 C5         -7.3350    1.3910   -4.2402 C.ar      1 <0>        -0.0770
      6 C6         -6.8589    2.0455   -5.3609 C.ar      1 <0>        -0.1445
      7 C7         -5.5502    2.4905   -5.4009 C.ar      1 <0>        -0.0846
      8 C8         -4.7167    2.2862   -4.3186 C.ar      1 <0>        -0.2060
      9 C9         -5.1905    1.6245   -3.1948 C.ar      1 <0>         0.1200
     10 O1         -4.3709    1.4177   -2.1306 O.3       1 <0>        -0.3011
     11 C10        -3.0312    1.9030   -2.2396 C.3       1 <0>         0.0656
     12 C11        -2.2657    1.5803   -0.9548 C.3       1 <0>         0.0972
     13 H1         -2.3571    0.5159   -0.6928 H         1 <0>         0.0901
     14 C12        -0.8000    1.9874   -1.1184 C.3       1 <0>        -0.0404
     15 N1         -0.0516    1.6193    0.0908 N.4       1 <0>        -0.3976
     16 C13         1.2038    2.3775    0.1844 C.3       1 <0>         0.0020
     17 C14         1.9134    2.0246    1.4938 C.3       1 <0>         0.0117
     18 N2          2.1707    0.5783    1.5340 N.3       1 <0>        -0.5308
     19 C15         0.9153   -0.1799    1.4404 C.3       1 <0>         0.0260
     20 C16         0.2057    0.1730    0.1311 C.3       1 <0>        -0.0054
     21 C17         2.9191    0.2102    2.7433 C.3       1 <0>         0.0430
     22 C18         4.0828    1.1840    2.9391 C.3       1 <0>         0.0884
     23 N3          4.8292    0.8169    4.1451 N.am      1 <0>        -0.5609
     24 C19         4.4669    1.3608    5.3224 C.2       1 <0>         0.5771
     25 O2          3.5349    2.1409    5.3670 O.2       1 <0>        -0.4992
     26 C20         5.1889    1.0132    6.5552 C.ar      1 <0>        -0.1731
     27 C21         4.8470    1.5464    7.7892 C.ar      1 <0>         0.0028
     28 C22         5.5632    1.1906    8.9261 C.ar      1 <0>        -0.1423
     29 C23         6.6117    0.3179    8.8673 C.ar      1 <0>        -0.0384
     30 C24         6.9904   -0.2450    7.6360 C.ar      1 <0>        -0.0789
     31 C25         6.2715    0.1081    6.4750 C.ar      1 <0>         0.0114
     32 C26         6.6283   -0.4401    5.2220 C.ar      1 <0>        -0.1722
     33 C27         7.6925   -1.3271    5.1536 C.ar      1 <0>         0.0035
     34 C28         8.3928   -1.6675    6.3049 C.ar      1 <0>        -0.1407
     35 C29         8.0621   -1.1478    7.5235 C.ar      1 <0>        -0.0397
     36 C30         5.8556   -0.0477    4.0343 C.2       1 <0>         0.5736
     37 O3          6.1447   -0.5067    2.9459 O.2       1 <0>        -0.4871
     38 O4         -2.8414    2.3011    0.1365 O.3       1 <0>        -0.5636
     39 H2         -7.8672    2.2592   -1.0710 H         1 <0>         0.0551
     40 H3         -8.5804    0.7285   -0.4587 H         1 <0>         0.0605
     41 H4         -9.0018    1.3219   -2.1010 H         1 <0>         0.0585
     42 H5         -6.2130    0.4009   -1.1945 H         1 <0>         0.0818
     43 H6         -6.6410   -1.5013   -2.7444 H         1 <0>         0.0538
     44 H7         -8.2884   -0.8658   -3.0745 H         1 <0>         0.0590
     45 H8         -7.8670   -1.4592   -1.4322 H         1 <0>         0.0606
     46 H9         -8.3577    1.0450   -4.2111 H         1 <0>         0.1321
     47 H10        -7.5102    2.2098   -6.2066 H         1 <0>         0.1282
     48 H11        -5.1807    3.0018   -6.2775 H         1 <0>         0.1273
     49 H12        -3.6960    2.6379   -4.3485 H         1 <0>         0.1234
     50 H13        -2.5344    1.4195   -3.0937 H         1 <0>         0.0878
     51 H14        -3.0471    2.9921   -2.3932 H         1 <0>         0.0816
     52 H15        -0.3702    1.4684   -1.9878 H         1 <0>         0.1440
     53 H16        -0.7364    3.0747   -1.2722 H         1 <0>         0.1461
     54 H17         1.8521    2.1198   -0.6661 H         1 <0>         0.1401
     55 H18         0.9837    3.4551    0.1643 H         1 <0>         0.1400
     56 H19         2.8672    2.5695    1.5524 H         1 <0>         0.1298
     57 H20         1.2761    2.3085    2.3443 H         1 <0>         0.0680
     58 H21         1.1354   -1.2575    1.4604 H         1 <0>         0.1274
     59 H22         0.2670    0.0777    2.2909 H         1 <0>         0.0640
     60 H23        -0.7486   -0.3710    0.0719 H         1 <0>         0.1371
     61 H24         0.8425   -0.1100   -0.7200 H         1 <0>         0.1418
     62 H25         2.2513    0.2567    3.6161 H         1 <0>         0.0551
     63 H26         3.3106   -0.8121    2.6353 H         1 <0>         0.0984
     64 H27         4.7506    1.1375    2.0662 H         1 <0>         0.1126
     65 H28         3.6913    2.2063    3.0472 H         1 <0>         0.1009
     66 H29         4.0223    2.2393    7.8669 H         1 <0>         0.1460
     67 H30         5.2838    1.6151    9.8791 H         1 <0>         0.1431
     68 H31         7.1501    0.0597    9.7672 H         1 <0>         0.1452
     69 H32         7.9771   -1.7548    4.2036 H         1 <0>         0.1475
     70 H33         9.2188   -2.3596    6.2339 H         1 <0>         0.1436
     71 H34         8.6244   -1.4302    8.4012 H         1 <0>         0.1452
     72 H35        -2.4217    2.1955    1.1478 H         1 <0>         0.4009
     73 H36        -0.6709    1.8786    0.9621 H         1 <0>         0.4266
@<TRIPOS>BOND
     1    1    2 1
     2    1   39 1
     3    1   40 1
     4    1   41 1
     5    2    3 1
     6    2    4 1
     7    2   42 1
     8    3   43 1
     9    3   44 1
    10    3   45 1
    11    4    9 ar
    12    4    5 ar
    13    5    6 ar
    14    5   46 1
    15    6    7 ar
    16    6   47 1
    17    7    8 ar
    18    7   48 1
    19    8    9 ar
    20    8   49 1
    21    9   10 1
    22   10   11 1
    23   11   12 1
    24   11   50 1
    25   11   51 1
    26   12   13 1
    27   12   14 1
    28   12   38 1
    29   14   15 1
    30   14   52 1
    31   14   53 1
    32   15   20 1
    33   15   16 1
    34   15   73 1
    35   16   17 1
    36   16   54 1
    37   16   55 1
    38   17   18 1
    39   17   56 1
    40   17   57 1
    41   18   19 1
    42   18   21 1
    43   19   20 1
    44   19   58 1
    45   19   59 1
    46   20   60 1
    47   20   61 1
    48   21   22 1
    49   21   62 1
    50   21   63 1
    51   22   23 1
    52   22   64 1
    53   22   65 1
    54   23   36 am
    55   23   24 am
    56   24   25 2
    57   24   26 1
    58   26   31 ar
    59   26   27 ar
    60   27   28 ar
    61   27   66 1
    62   28   29 ar
    63   28   67 1
    64   29   30 ar
    65   29   68 1
    66   30   35 ar
    67   30   31 ar
    68   31   32 ar
    69   32   33 ar
    70   32   36 1
    71   33   34 ar
    72   33   69 1
    73   34   35 ar
    74   34   70 1
    75   35   71 1
    76   36   37 2
    77   38   72 1
@<TRIPOS>MOLECULE
ZINC19228763
   43    44     0     0     0
SMALL
USER_CHARGES
(2R)-1-(2-allylphenoxy)-3-morpholino-propan-2-ol
@<TRIPOS>ATOM
      1 C1          1.5562   -1.4868   -5.5511 C.2       1 <0>        -0.2025
      2 C2          1.0556   -0.6643   -4.6629 C.2       1 <0>        -0.1411
      3 C3          1.3743    0.8069   -4.7342 C.3       1 <0>        -0.0464
      4 C4          0.0919    1.5972   -4.7775 C.ar      1 <0>        -0.1085
      5 C5         -0.4379    1.9894   -5.9918 C.ar      1 <0>        -0.0778
      6 C6         -1.6145    2.7141   -6.0322 C.ar      1 <0>        -0.1555
      7 C7         -2.2644    3.0478   -4.8580 C.ar      1 <0>        -0.0836
      8 C8         -1.7417    2.6535   -3.6419 C.ar      1 <0>        -0.2094
      9 C9         -0.5578    1.9311   -3.5983 C.ar      1 <0>         0.1329
     10 O1         -0.0387    1.5465   -2.4027 O.3       1 <0>        -0.2989
     11 C10        -0.7614    1.9254   -1.2296 C.3       1 <0>         0.0657
     12 C11        -0.0292    1.4076    0.0100 C.3       1 <0>         0.1282
     13 H1          1.0308    1.7015   -0.0010 H         1 <0>         0.0615
     14 C12        -0.7334    1.9182    1.2687 C.3       1 <0>         0.0235
     15 N1         -0.0230    1.4316    2.4588 N.3       1 <0>        -0.5349
     16 C13        -0.8845    1.4927    3.6484 C.3       1 <0>         0.0172
     17 C14        -0.1270    0.9223    4.8504 C.3       1 <0>         0.0611
     18 O2          1.0925    1.6482    5.0271 O.3       1 <0>        -0.3841
     19 C15         1.9560    1.6093    3.8878 C.3       1 <0>         0.0616
     20 C16         1.2196    2.1867    2.6761 C.3       1 <0>         0.0103
     21 O3         -0.0377   -0.0214    0.0059 O.3       1 <0>        -0.5838
     22 H2          1.3235   -2.5606   -5.4990 H         1 <0>         0.0991
     23 H3          2.2092   -1.1036   -6.3490 H         1 <0>         0.0971
     24 H4          0.4026   -1.0475   -3.8650 H         1 <0>         0.1115
     25 H5          1.9556    1.0995   -3.8474 H         1 <0>         0.0850
     26 H6          1.9618    1.0113   -5.6415 H         1 <0>         0.0747
     27 H7          0.0675    1.7294   -6.9102 H         1 <0>         0.1283
     28 H8         -2.0270    3.0197   -6.9823 H         1 <0>         0.1242
     29 H9         -3.1837    3.6136   -4.8923 H         1 <0>         0.1241
     30 H10        -2.2520    2.9105   -2.7254 H         1 <0>         0.1256
     31 H11        -0.8334    3.0220   -1.1815 H         1 <0>         0.0749
     32 H12        -1.7721    1.4928   -1.2659 H         1 <0>         0.0715
     33 H13        -0.7354    3.0182    1.2671 H         1 <0>         0.0487
     34 H14        -1.7697    1.5497    1.2841 H         1 <0>         0.0880
     35 H15        -1.1595    2.5388    3.8486 H         1 <0>         0.0453
     36 H16        -1.7953    0.9015    3.4723 H         1 <0>         0.0900
     37 H17        -0.7473    1.0182    5.7538 H         1 <0>         0.1013
     38 H18         0.0986   -0.1394    4.6715 H         1 <0>         0.0627
     39 H19         2.8573    2.2065    4.0903 H         1 <0>         0.1011
     40 H20         2.2447    0.5680    3.6819 H         1 <0>         0.0623
     41 H21         1.8582    2.1064    1.7840 H         1 <0>         0.0887
     42 H22         0.9787    3.2440    2.8606 H         1 <0>         0.0466
     43 H23         0.4446   -0.5766    0.8239 H         1 <0>         0.4137
@<TRIPOS>BOND
     1    1    2 2
     2    1   22 1
     3    1   23 1
     4    2    3 1
     5    2   24 1
     6    3    4 1
     7    3   25 1
     8    3   26 1
     9    4    9 ar
    10    4    5 ar
    11    5    6 ar
    12    5   27 1
    13    6    7 ar
    14    6   28 1
    15    7    8 ar
    16    7   29 1
    17    8    9 ar
    18    8   30 1
    19    9   10 1
    20   10   11 1
    21   11   12 1
    22   11   31 1
    23   11   32 1
    24   12   13 1
    25   12   14 1
    26   12   21 1
    27   14   15 1
    28   14   33 1
    29   14   34 1
    30   15   20 1
    31   15   16 1
    32   16   17 1
    33   16   35 1
    34   16   36 1
    35   17   18 1
    36   17   37 1
    37   17   38 1
    38   18   19 1
    39   19   20 1
    40   19   39 1
    41   19   40 1
    42   20   41 1
    43   20   42 1
    44   21   43 1
@<TRIPOS>MOLECULE
ZINC19228765
   43    44     0     0     0
SMALL
USER_CHARGES
(2S)-1-(2-allylphenoxy)-3-morpholino-propan-2-ol
@<TRIPOS>ATOM
      1 C1          6.6987    4.8468   -2.4070 C.2       1 <0>        -0.2011
      2 C2          5.5516    4.6263   -1.8141 C.2       1 <0>        -0.1420
      3 C3          5.3612    5.0190   -0.3716 C.3       1 <0>        -0.0481
      4 C4          4.1581    5.9184   -0.2505 C.ar      1 <0>        -0.1082
      5 C5          4.3170    7.2908   -0.2601 C.ar      1 <0>        -0.0778
      6 C6          3.2137    8.1164   -0.1495 C.ar      1 <0>        -0.1555
      7 C7          1.9485    7.5712   -0.0294 C.ar      1 <0>        -0.0835
      8 C8          1.7838    6.1998   -0.0245 C.ar      1 <0>        -0.2094
      9 C9          2.8901    5.3690   -0.1297 C.ar      1 <0>         0.1330
     10 O1          2.7312    4.0194   -0.1199 O.3       1 <0>        -0.2991
     11 C10         1.3968    3.5242    0.0076 C.3       1 <0>         0.0659
     12 C11         1.4175    1.9944   -0.0008 C.3       1 <0>         0.1255
     13 H1          1.9786    1.6079   -0.8644 H         1 <0>         0.0623
     14 C12        -0.0178    1.4648    0.0101 C.3       1 <0>         0.0239
     15 N1          0.0021   -0.0041    0.0020 N.3       1 <0>        -0.5341
     16 C13         0.5474   -0.5166   -1.2634 C.3       1 <0>         0.0073
     17 C14         0.6055   -2.0454   -1.2057 C.3       1 <0>         0.0617
     18 O2         -0.7017   -2.5572   -0.9327 O.3       1 <0>        -0.3840
     19 C15        -1.2629   -2.0790    0.2927 C.3       1 <0>         0.0612
     20 C16        -1.3400   -0.5505    0.2502 C.3       1 <0>         0.0175
     21 O3          2.1087    1.5210    1.1569 O.3       1 <0>        -0.5830
     22 H2          6.8377    4.5602   -3.4599 H         1 <0>         0.0989
     23 H3          7.5230    5.3186   -1.8520 H         1 <0>         0.0983
     24 H4          4.7273    4.1545   -2.3691 H         1 <0>         0.1080
     25 H5          5.2066    4.1158    0.2369 H         1 <0>         0.0879
     26 H6          6.2550    5.5523   -0.0157 H         1 <0>         0.0754
     27 H7          5.3040    7.7190   -0.3545 H         1 <0>         0.1283
     28 H8          3.3400    9.1889   -0.1572 H         1 <0>         0.1242
     29 H9          1.0881    8.2183    0.0566 H         1 <0>         0.1242
     30 H10         0.7951    5.7745    0.0648 H         1 <0>         0.1256
     31 H11         0.9626    3.8798    0.9536 H         1 <0>         0.0722
     32 H12         0.7889    3.8873   -0.8342 H         1 <0>         0.0751
     33 H13        -0.5326    1.8195    0.9152 H         1 <0>         0.0899
     34 H14        -0.5499    1.8292   -0.8810 H         1 <0>         0.0465
     35 H15        -0.1005   -0.2034   -2.0954 H         1 <0>         0.0464
     36 H16         1.5599   -0.1147   -1.4159 H         1 <0>         0.0897
     37 H17         0.9598   -2.4355   -2.1712 H         1 <0>         0.1011
     38 H18         1.2969   -2.3563   -0.4086 H         1 <0>         0.0626
     39 H19        -2.2729   -2.4956    0.4206 H         1 <0>         0.1014
     40 H20        -0.6276   -2.3928    1.1341 H         1 <0>         0.0628
     41 H21        -1.7172   -0.1735    1.2123 H         1 <0>         0.0899
     42 H22        -2.0183   -0.2379   -0.5574 H         1 <0>         0.0456
     43 H23         2.2255    0.4401    1.3241 H         1 <0>         0.4136
@<TRIPOS>BOND
     1    1    2 2
     2    1   22 1
     3    1   23 1
     4    2    3 1
     5    2   24 1
     6    3    4 1
     7    3   25 1
     8    3   26 1
     9    4    9 ar
    10    4    5 ar
    11    5    6 ar
    12    5   27 1
    13    6    7 ar
    14    6   28 1
    15    7    8 ar
    16    7   29 1
    17    8    9 ar
    18    8   30 1
    19    9   10 1
    20   10   11 1
    21   11   12 1
    22   11   31 1
    23   11   32 1
    24   12   13 1
    25   12   14 1
    26   12   21 1
    27   14   15 1
    28   14   33 1
    29   14   34 1
    30   15   20 1
    31   15   16 1
    32   16   17 1
    33   16   35 1
    34   16   36 1
    35   17   18 1
    36   17   37 1
    37   17   38 1
    38   18   19 1
    39   19   20 1
    40   19   39 1
    41   19   40 1
    42   20   41 1
    43   20   42 1
    44   21   43 1
@<TRIPOS>MOLECULE
ZINC23633512
   45    46     0     0     0
SMALL
USER_CHARGES
(2S)-1-(2-isopropylphenoxy)-3-morpholino-propan-2-ol
@<TRIPOS>ATOM
      1 C1          6.0761    5.2990   -1.6950 C.3       1 <0>        -0.1436
      2 C2          5.3612    5.0190   -0.3716 C.3       1 <0>        -0.0527
      3 C3          6.3180    5.2876    0.7917 C.3       1 <0>        -0.1435
      4 C4          4.1581    5.9184   -0.2505 C.ar      1 <0>        -0.1057
      5 C5          4.3170    7.2908   -0.2601 C.ar      1 <0>        -0.0787
      6 C6          3.2137    8.1164   -0.1495 C.ar      1 <0>        -0.1557
      7 C7          1.9485    7.5712   -0.0294 C.ar      1 <0>        -0.0850
      8 C8          1.7838    6.1998   -0.0245 C.ar      1 <0>        -0.2089
      9 C9          2.8901    5.3690   -0.1297 C.ar      1 <0>         0.1309
     10 O1          2.7312    4.0194   -0.1199 O.3       1 <0>        -0.3008
     11 C10         1.3968    3.5242    0.0076 C.3       1 <0>         0.0664
     12 C11         1.4175    1.9944   -0.0008 C.3       1 <0>         0.1254
     13 H1          1.9786    1.6079   -0.8644 H         1 <0>         0.0623
     14 C12        -0.0178    1.4648    0.0101 C.3       1 <0>         0.0240
     15 N1          0.0021   -0.0041    0.0020 N.3       1 <0>        -0.5341
     16 C13         0.5474   -0.5166   -1.2634 C.3       1 <0>         0.0072
     17 C14         0.6055   -2.0454   -1.2057 C.3       1 <0>         0.0618
     18 O2         -0.7017   -2.5572   -0.9327 O.3       1 <0>        -0.3841
     19 C15        -1.2629   -2.0790    0.2927 C.3       1 <0>         0.0613
     20 C16        -1.3400   -0.5505    0.2502 C.3       1 <0>         0.0175
     21 O3          2.1087    1.5210    1.1569 O.3       1 <0>        -0.5829
     22 H2          5.3882    5.1059   -2.5313 H         1 <0>         0.0539
     23 H3          6.9542    4.6425   -1.7834 H         1 <0>         0.0585
     24 H4          6.3998    6.3499   -1.7217 H         1 <0>         0.0557
     25 H5          5.0226    3.9728   -0.3434 H         1 <0>         0.0863
     26 H6          5.8040    5.0863    1.7432 H         1 <0>         0.0555
     27 H7          6.6417    6.3385    0.7650 H         1 <0>         0.0552
     28 H8          7.1961    4.6311    0.7032 H         1 <0>         0.0583
     29 H9          5.3040    7.7190   -0.3545 H         1 <0>         0.1278
     30 H10         3.3400    9.1889   -0.1572 H         1 <0>         0.1233
     31 H11         1.0881    8.2183    0.0566 H         1 <0>         0.1235
     32 H12         0.7951    5.7745    0.0648 H         1 <0>         0.1249
     33 H13         0.9626    3.8798    0.9536 H         1 <0>         0.0719
     34 H14         0.7889    3.8873   -0.8342 H         1 <0>         0.0749
     35 H15        -0.5326    1.8195    0.9152 H         1 <0>         0.0899
     36 H16        -0.5499    1.8292   -0.8810 H         1 <0>         0.0466
     37 H17        -0.1005   -0.2034   -2.0954 H         1 <0>         0.0465
     38 H18         1.5599   -0.1147   -1.4159 H         1 <0>         0.0897
     39 H19         0.9598   -2.4355   -2.1712 H         1 <0>         0.1011
     40 H20         1.2969   -2.3563   -0.4086 H         1 <0>         0.0625
     41 H21        -2.2729   -2.4956    0.4206 H         1 <0>         0.1014
     42 H22        -0.6276   -2.3928    1.1341 H         1 <0>         0.0627
     43 H23        -1.7172   -0.1735    1.2123 H         1 <0>         0.0899
     44 H24        -2.0183   -0.2379   -0.5574 H         1 <0>         0.0456
     45 H25         2.2255    0.4401    1.3241 H         1 <0>         0.4134
@<TRIPOS>BOND
     1    1    2 1
     2    1   22 1
     3    1   23 1
     4    1   24 1
     5    2    3 1
     6    2    4 1
     7    2   25 1
     8    3   26 1
     9    3   27 1
    10    3   28 1
    11    4    9 ar
    12    4    5 ar
    13    5    6 ar
    14    5   29 1
    15    6    7 ar
    16    6   30 1
    17    7    8 ar
    18    7   31 1
    19    8    9 ar
    20    8   32 1
    21    9   10 1
    22   10   11 1
    23   11   12 1
    24   11   33 1
    25   11   34 1
    26   12   13 1
    27   12   14 1
    28   12   21 1
    29   14   15 1
    30   14   35 1
    31   14   36 1
    32   15   20 1
    33   15   16 1
    34   16   17 1
    35   16   37 1
    36   16   38 1
    37   17   18 1
    38   17   39 1
    39   17   40 1
    40   18   19 1
    41   19   20 1
    42   19   41 1
    43   19   42 1
    44   20   43 1
    45   20   44 1
    46   21   45 1
@<TRIPOS>MOLECULE
ZINC23633514
   45    46     0     0     0
SMALL
USER_CHARGES
(2R)-1-(2-isopropylphenoxy)-3-morpholino-propan-2-ol
@<TRIPOS>ATOM
      1 C1          1.1905   -0.5057   -5.4986 C.3       1 <0>        -0.1434
      2 C2          1.3743    0.8069   -4.7342 C.3       1 <0>        -0.0528
      3 C3          2.4970    1.6207   -5.3808 C.3       1 <0>        -0.1436
      4 C4          0.0919    1.5972   -4.7775 C.ar      1 <0>        -0.1057
      5 C5         -0.4379    1.9894   -5.9918 C.ar      1 <0>        -0.0787
      6 C6         -1.6145    2.7141   -6.0322 C.ar      1 <0>        -0.1558
      7 C7         -2.2644    3.0478   -4.8580 C.ar      1 <0>        -0.0850
      8 C8         -1.7417    2.6535   -3.6419 C.ar      1 <0>        -0.2089
      9 C9         -0.5578    1.9311   -3.5983 C.ar      1 <0>         0.1309
     10 O1         -0.0387    1.5465   -2.4027 O.3       1 <0>        -0.3007
     11 C10        -0.7614    1.9254   -1.2296 C.3       1 <0>         0.0662
     12 C11        -0.0292    1.4076    0.0100 C.3       1 <0>         0.1280
     13 H1          1.0308    1.7015   -0.0010 H         1 <0>         0.0615
     14 C12        -0.7334    1.9182    1.2687 C.3       1 <0>         0.0235
     15 N1         -0.0230    1.4316    2.4588 N.3       1 <0>        -0.5349
     16 C13        -0.8845    1.4927    3.6484 C.3       1 <0>         0.0172
     17 C14        -0.1270    0.9223    4.8504 C.3       1 <0>         0.0611
     18 O2          1.0925    1.6482    5.0271 O.3       1 <0>        -0.3841
     19 C15         1.9560    1.6093    3.8878 C.3       1 <0>         0.0617
     20 C16         1.2196    2.1867    2.6761 C.3       1 <0>         0.0102
     21 O3         -0.0377   -0.0214    0.0059 O.3       1 <0>        -0.5838
     22 H2          0.3833   -1.0908   -5.0337 H         1 <0>         0.0555
     23 H3          2.1266   -1.0826   -5.4670 H         1 <0>         0.0584
     24 H4          0.9295   -0.2874   -6.5446 H         1 <0>         0.0551
     25 H5          1.6225    0.5963   -3.6835 H         1 <0>         0.0864
     26 H6          2.6291    2.5644   -4.8312 H         1 <0>         0.0540
     27 H7          2.2360    1.8390   -6.4268 H         1 <0>         0.0556
     28 H8          3.4330    1.0438   -5.3492 H         1 <0>         0.0584
     29 H9          0.0675    1.7294   -6.9102 H         1 <0>         0.1277
     30 H10        -2.0270    3.0197   -6.9823 H         1 <0>         0.1232
     31 H11        -3.1837    3.6136   -4.8923 H         1 <0>         0.1235
     32 H12        -2.2520    2.9105   -2.7254 H         1 <0>         0.1249
     33 H13        -0.8334    3.0220   -1.1815 H         1 <0>         0.0747
     34 H14        -1.7721    1.4928   -1.2659 H         1 <0>         0.0713
     35 H15        -0.7354    3.0182    1.2671 H         1 <0>         0.0487
     36 H16        -1.7697    1.5497    1.2841 H         1 <0>         0.0881
     37 H17        -1.1595    2.5388    3.8486 H         1 <0>         0.0453
     38 H18        -1.7953    0.9015    3.4723 H         1 <0>         0.0900
     39 H19        -0.7473    1.0182    5.7538 H         1 <0>         0.1013
     40 H20         0.0986   -0.1394    4.6715 H         1 <0>         0.0627
     41 H21         2.8573    2.2065    4.0903 H         1 <0>         0.1011
     42 H22         2.2447    0.5680    3.6819 H         1 <0>         0.0623
     43 H23         1.8582    2.1064    1.7840 H         1 <0>         0.0886
     44 H24         0.9787    3.2440    2.8606 H         1 <0>         0.0466
     45 H25         0.4446   -0.5766    0.8239 H         1 <0>         0.4136
@<TRIPOS>BOND
     1    1    2 1
     2    1   22 1
     3    1   23 1
     4    1   24 1
     5    2    3 1
     6    2    4 1
     7    2   25 1
     8    3   26 1
     9    3   27 1
    10    3   28 1
    11    4    9 ar
    12    4    5 ar
    13    5    6 ar
    14    5   29 1
    15    6    7 ar
    16    6   30 1
    17    7    8 ar
    18    7   31 1
    19    8    9 ar
    20    8   32 1
    21    9   10 1
    22   10   11 1
    23   11   12 1
    24   11   33 1
    25   11   34 1
    26   12   13 1
    27   12   14 1
    28   12   21 1
    29   14   15 1
    30   14   35 1
    31   14   36 1
    32   15   20 1
    33   15   16 1
    34   16   17 1
    35   16   37 1
    36   16   38 1
    37   17   18 1
    38   17   39 1
    39   17   40 1
    40   18   19 1
    41   19   20 1
    42   19   41 1
    43   19   42 1
    44   20   43 1
    45   20   44 1
    46   21   45 1
@<TRIPOS>MOLECULE
ZINC19363139
   71    75     0     0     0
SMALL
USER_CHARGES

@<TRIPOS>ATOM
      1 C1          6.3403   -7.6062   -0.5304 C.2       1 <0>        -0.1930
      2 C2          5.0497   -7.4677   -0.3536 C.2       1 <0>        -0.1440
      3 C3          4.2787   -8.5083    0.4170 C.3       1 <0>        -0.0459
      4 C4          3.5332   -7.8465    1.5472 C.ar      1 <0>        -0.1047
      5 C5          4.0937   -7.7958    2.8091 C.ar      1 <0>        -0.0765
      6 C6          3.4102   -7.1893    3.8464 C.ar      1 <0>        -0.1490
      7 C7          2.1644   -6.6317    3.6241 C.ar      1 <0>        -0.0840
      8 C8          1.5999   -6.6794    2.3644 C.ar      1 <0>        -0.2083
      9 C9          2.2863   -7.2829    1.3203 C.ar      1 <0>         0.1253
     10 O1          1.7355   -7.3263    0.0787 O.3       1 <0>        -0.2983
     11 C10         0.4487   -6.7257   -0.0815 C.3       1 <0>         0.0253
     12 C11        -0.0048   -6.8719   -1.5355 C.3       1 <0>         0.1184
     13 H1          0.0226   -7.9236   -1.8206 H         1 <0>         0.1084
     14 C12        -1.4325   -6.3412   -1.6801 C.3       1 <0>         0.0238
     15 N1         -1.8728   -6.4938   -3.0733 N.3       1 <0>        -0.5273
     16 C13        -3.0083   -5.6079   -3.3668 C.3       1 <0>         0.0280
     17 C14        -3.3971   -5.7531   -4.8397 C.3       1 <0>        -0.0005
     18 N2         -3.7594   -7.1496   -5.1153 N.4       1 <0>        -0.3812
     19 C15        -2.6079   -8.0193   -4.8410 C.3       1 <0>        -0.0076
     20 C16        -2.2125   -7.8930   -3.3681 C.3       1 <0>         0.0245
     21 C17        -4.1500   -7.2848   -6.5250 C.3       1 <0>        -0.0228
     22 C18        -4.6459   -8.7091   -6.7824 C.3       1 <0>         0.0724
     23 N3         -5.0353   -8.8440   -8.1882 N.am      1 <0>        -0.5593
     24 C19        -6.3052   -8.5650   -8.5388 C.2       1 <0>         0.5776
     25 O2         -7.1021   -8.2093   -7.6919 O.2       1 <0>        -0.4919
     26 C20        -6.7335   -8.6877   -9.9400 C.ar      1 <0>        -0.1791
     27 C21        -8.0308   -8.4107  -10.3450 C.ar      1 <0>         0.0101
     28 C22        -8.3880   -8.5420  -11.6819 C.ar      1 <0>        -0.1433
     29 C23        -7.4875   -8.9420  -12.6271 C.ar      1 <0>        -0.0321
     30 C24        -6.1624   -9.2325  -12.2582 C.ar      1 <0>        -0.0810
     31 C25        -5.7875   -9.1031  -10.9046 C.ar      1 <0>         0.0148
     32 C26        -4.4630   -9.3883  -10.5019 C.ar      1 <0>        -0.1790
     33 C27        -3.5421   -9.7953  -11.4559 C.ar      1 <0>         0.0106
     34 C28        -3.9236   -9.9186  -12.7867 C.ar      1 <0>        -0.1429
     35 C29        -5.1985   -9.6473  -13.1936 C.ar      1 <0>        -0.0324
     36 C30        -4.1088   -9.2370   -9.0829 C.2       1 <0>         0.5774
     37 O3         -2.9740   -9.4722   -8.7145 O.2       1 <0>        -0.4901
     38 O4          0.8692   -6.1253   -2.3844 O.3       1 <0>        -0.5347
     39 H2          6.8518   -8.4661   -0.1239 H         1 <0>         0.0969
     40 H3          6.8920   -6.8627   -1.0864 H         1 <0>         0.0983
     41 H4          4.5382   -6.6077   -0.7600 H         1 <0>         0.1074
     42 H5          3.5687   -9.0005   -0.2476 H         1 <0>         0.0833
     43 H6          4.9703   -9.2474    0.8214 H         1 <0>         0.0761
     44 H7          5.0665   -8.2305    2.9852 H         1 <0>         0.1311
     45 H8          3.8497   -7.1512    4.8322 H         1 <0>         0.1271
     46 H9          1.6322   -6.1588    4.4362 H         1 <0>         0.1258
     47 H10         0.6270   -6.2438    2.1912 H         1 <0>         0.1235
     48 H11        -0.2675   -7.2210    0.5740 H         1 <0>         0.0697
     49 H12         0.5066   -5.6683    0.1764 H         1 <0>         0.0675
     50 H13        -2.0975   -6.9042   -1.0252 H         1 <0>         0.0626
     51 H14        -1.4580   -5.2870   -1.4044 H         1 <0>         0.0943
     52 H15        -3.8555   -5.8822   -2.7382 H         1 <0>         0.0620
     53 H16        -2.7250   -4.5748   -3.1655 H         1 <0>         0.1253
     54 H17        -4.2482   -5.1074   -5.0561 H         1 <0>         0.1374
     55 H18        -2.5541   -5.4657   -5.4680 H         1 <0>         0.1404
     56 H19        -2.8740   -9.0537   -5.0583 H         1 <0>         0.1370
     57 H20        -1.7690   -7.7202   -5.4693 H         1 <0>         0.1439
     58 H21        -1.3487   -8.5269   -3.1678 H         1 <0>         0.1261
     59 H22        -3.0466   -8.2049   -2.7396 H         1 <0>         0.0628
     60 H23        -4.9469   -6.5763   -6.7508 H         1 <0>         0.1372
     61 H24        -3.2896   -7.0790   -7.1617 H         1 <0>         0.1375
     62 H25        -3.8489   -9.4177   -6.5566 H         1 <0>         0.1199
     63 H26        -5.5062   -8.9150   -6.1457 H         1 <0>         0.1194
     64 H27        -8.7653   -8.0926   -9.6199 H         1 <0>         0.1480
     65 H28        -9.4025   -8.3226  -11.9802 H         1 <0>         0.1454
     66 H29        -7.7934   -9.0356  -13.6586 H         1 <0>         0.1473
     67 H30        -2.5261  -10.0165  -11.1640 H         1 <0>         0.1485
     68 H31        -3.1940  -10.2366  -13.5167 H         1 <0>         0.1456
     69 H32        -5.4666   -9.7521  -14.2345 H         1 <0>         0.1473
     70 H33         0.8952   -5.1789   -2.1874 H         1 <0>         0.3757
     71 H34        -4.5323   -7.4191   -4.5252 H         1 <0>         0.4221
@<TRIPOS>BOND
     1    1    2 2
     2    1   39 1
     3    1   40 1
     4    2    3 1
     5    2   41 1
     6    3    4 1
     7    3   42 1
     8    3   43 1
     9    4    9 ar
    10    4    5 ar
    11    5    6 ar
    12    5   44 1
    13    6    7 ar
    14    6   45 1
    15    7    8 ar
    16    7   46 1
    17    8    9 ar
    18    8   47 1
    19    9   10 1
    20   10   11 1
    21   11   12 1
    22   11   48 1
    23   11   49 1
    24   12   13 1
    25   12   14 1
    26   12   38 1
    27   14   15 1
    28   14   50 1
    29   14   51 1
    30   15   20 1
    31   15   16 1
    32   16   17 1
    33   16   52 1
    34   16   53 1
    35   17   18 1
    36   17   54 1
    37   17   55 1
    38   18   19 1
    39   18   21 1
    40   18   71 1
    41   19   20 1
    42   19   56 1
    43   19   57 1
    44   20   58 1
    45   20   59 1
    46   21   22 1
    47   21   60 1
    48   21   61 1
    49   22   23 1
    50   22   62 1
    51   22   63 1
    52   23   36 am
    53   23   24 am
    54   24   25 2
    55   24   26 1
    56   26   31 ar
    57   26   27 ar
    58   27   28 ar
    59   27   64 1
    60   28   29 ar
    61   28   65 1
    62   29   30 ar
    63   29   66 1
    64   30   35 ar
    65   30   31 ar
    66   31   32 ar
    67   32   33 ar
    68   32   36 1
    69   33   34 ar
    70   33   67 1
    71   34   35 ar
    72   34   68 1
    73   35   69 1
    74   36   37 2
    75   38   70 1
@<TRIPOS>MOLECULE
ZINC19363139
   71    75     0     0     0
SMALL
USER_CHARGES

@<TRIPOS>ATOM
      1 C1          5.7657   -9.3159   -0.0448 C.2       1 <0>        -0.1882
      2 C2          4.5413   -8.8612    0.0551 C.2       1 <0>        -0.1485
      3 C3          3.5178   -9.6226    0.8574 C.3       1 <0>        -0.0466
      4 C4          2.9168   -8.7127    1.8976 C.ar      1 <0>        -0.1000
      5 C5          3.4313   -8.6934    3.1797 C.ar      1 <0>        -0.0757
      6 C6          2.8801   -7.8593    4.1345 C.ar      1 <0>        -0.1434
      7 C7          1.8130   -7.0422    3.8091 C.ar      1 <0>        -0.0838
      8 C8          1.2953   -7.0574    2.5287 C.ar      1 <0>        -0.2064
      9 C9          1.8501   -7.8898    1.5672 C.ar      1 <0>         0.1198
     10 O1          1.3461   -7.9026    0.3052 O.3       1 <0>        -0.2975
     11 C10         0.2476   -7.0291    0.0364 C.3       1 <0>         0.0300
     12 C11        -0.1799   -7.1818   -1.4247 C.3       1 <0>         0.0861
     13 H1         -0.3970   -8.2297   -1.6321 H         1 <0>         0.1342
     14 C12        -1.4325   -6.3412   -1.6801 C.3       1 <0>        -0.0417
     15 N1         -1.8551   -6.5044   -3.0775 N.4       1 <0>        -0.3815
     16 C13        -2.9675   -5.5884   -3.3625 C.3       1 <0>        -0.0007
     17 C14        -3.3957   -5.7447   -4.8233 C.3       1 <0>         0.0273
     18 N2         -3.8090   -7.1344   -5.0637 N.3       1 <0>        -0.5329
     19 C15        -2.7131   -8.0651   -4.7587 C.3       1 <0>         0.0205
     20 C16        -2.2905   -7.8898   -3.2985 C.3       1 <0>        -0.0071
     21 C17        -4.2818   -7.3119   -6.4432 C.3       1 <0>         0.0443
     22 C18        -4.9313   -8.6898   -6.5864 C.3       1 <0>         0.0983
     23 N3         -5.4028   -8.8668   -7.9621 N.am      1 <0>        -0.5616
     24 C19        -6.6541   -8.4788   -8.2735 C.2       1 <0>         0.5738
     25 O2         -7.3673   -7.9925   -7.4169 O.2       1 <0>        -0.4882
     26 C20        -7.1627   -8.6394   -9.6437 C.ar      1 <0>        -0.1717
     27 C21        -8.4443   -8.2537  -10.0081 C.ar      1 <0>         0.0027
     28 C22        -8.8799   -8.4264  -11.3166 C.ar      1 <0>        -0.1408
     29 C23        -8.0732   -8.9733  -12.2730 C.ar      1 <0>        -0.0402
     30 C24        -6.7673   -9.3774  -11.9449 C.ar      1 <0>        -0.0788
     31 C25        -6.3134   -9.2074  -10.6203 C.ar      1 <0>         0.0110
     32 C26        -5.0059   -9.6042  -10.2589 C.ar      1 <0>        -0.1724
     33 C27        -4.1800  -10.1606  -11.2245 C.ar      1 <0>         0.0022
     34 C28        -4.6387  -10.3224  -12.5265 C.ar      1 <0>        -0.1418
     35 C29        -5.8985   -9.9449  -12.8934 C.ar      1 <0>        -0.0393
     36 C30        -4.5670   -9.4064   -8.8696 C.2       1 <0>         0.5760
     37 O3         -3.4446   -9.7359   -8.5372 O.2       1 <0>        -0.4972
     38 O4          0.8754   -6.7359   -2.2788 O.3       1 <0>        -0.5423
     39 H2          6.0418  -10.2365    0.4479 H         1 <0>         0.0983
     40 H3          6.4981   -8.7726   -0.6235 H         1 <0>         0.0991
     41 H4          4.2653   -7.9406   -0.4377 H         1 <0>         0.1060
     42 H5          2.7324   -9.9849    0.1942 H         1 <0>         0.0827
     43 H6          3.9977  -10.4690    1.3487 H         1 <0>         0.0779
     44 H7          4.2647   -9.3307    3.4363 H         1 <0>         0.1332
     45 H8          3.2833   -7.8462    5.1364 H         1 <0>         0.1294
     46 H9          1.3839   -6.3917    4.5569 H         1 <0>         0.1279
     47 H10         0.4619   -6.4191    2.2751 H         1 <0>         0.1235
     48 H11        -0.5879   -7.2849    0.6881 H         1 <0>         0.0808
     49 H12         0.5496   -5.9981    0.2207 H         1 <0>         0.0758
     50 H13        -2.2328   -6.6710   -1.0176 H         1 <0>         0.1460
     51 H14        -1.2110   -5.2914   -1.4878 H         1 <0>         0.1392
     52 H15        -3.8084   -5.8241   -2.7102 H         1 <0>         0.1405
     53 H16        -2.6471   -4.5617   -3.1856 H         1 <0>         0.1370
     54 H17        -4.2309   -5.0758   -5.0309 H         1 <0>         0.1265
     55 H18        -2.5591   -5.4959   -5.4761 H         1 <0>         0.0629
     56 H19        -3.0503   -9.0891   -4.9193 H         1 <0>         0.1269
     57 H20        -1.8652   -7.8546   -5.4105 H         1 <0>         0.0667
     58 H21        -1.4682   -8.5692   -3.0741 H         1 <0>         0.1379
     59 H22        -3.1348   -8.1136   -2.6465 H         1 <0>         0.1406
     60 H23        -5.0135   -6.5391   -6.6787 H         1 <0>         0.0947
     61 H24        -3.4383   -7.2348   -7.1291 H         1 <0>         0.0542
     62 H25        -4.1996   -9.4626   -6.3509 H         1 <0>         0.0981
     63 H26        -5.7748   -8.7670   -5.9004 H         1 <0>         0.1112
     64 H27        -9.1053   -7.8185   -9.2732 H         1 <0>         0.1473
     65 H28        -9.8808   -8.1210  -11.5834 H         1 <0>         0.1433
     66 H29        -8.4386   -9.0957  -13.2818 H         1 <0>         0.1449
     67 H30        -3.1781  -10.4684  -10.9641 H         1 <0>         0.1462
     68 H31        -3.9827  -10.7574  -13.2660 H         1 <0>         0.1430
     69 H32        -6.2281  -10.0830  -13.9126 H         1 <0>         0.1449
     70 H33         1.1218   -5.8099   -2.1489 H         1 <0>         0.3893
     71 H34        -1.0812   -6.2936   -3.6896 H         1 <0>         0.4262
@<TRIPOS>BOND
     1    1    2 2
     2    1   39 1
     3    1   40 1
     4    2    3 1
     5    2   41 1
     6    3    4 1
     7    3   42 1
     8    3   43 1
     9    4    9 ar
    10    4    5 ar
    11    5    6 ar
    12    5   44 1
    13    6    7 ar
    14    6   45 1
    15    7    8 ar
    16    7   46 1
    17    8    9 ar
    18    8   47 1
    19    9   10 1
    20   10   11 1
    21   11   12 1
    22   11   48 1
    23   11   49 1
    24   12   13 1
    25   12   14 1
    26   12   38 1
    27   14   15 1
    28   14   50 1
    29   14   51 1
    30   15   20 1
    31   15   16 1
    32   15   71 1
    33   16   17 1
    34   16   52 1
    35   16   53 1
    36   17   18 1
    37   17   54 1
    38   17   55 1
    39   18   19 1
    40   18   21 1
    41   19   20 1
    42   19   56 1
    43   19   57 1
    44   20   58 1
    45   20   59 1
    46   21   22 1
    47   21   60 1
    48   21   61 1
    49   22   23 1
    50   22   62 1
    51   22   63 1
    52   23   36 am
    53   23   24 am
    54   24   25 2
    55   24   26 1
    56   26   31 ar
    57   26   27 ar
    58   27   28 ar
    59   27   64 1
    60   28   29 ar
    61   28   65 1
    62   29   30 ar
    63   29   66 1
    64   30   35 ar
    65   30   31 ar
    66   31   32 ar
    67   32   33 ar
    68   32   36 1
    69   33   34 ar
    70   33   67 1
    71   34   35 ar
    72   34   68 1
    73   35   69 1
    74   36   37 2
    75   38   70 1
@<TRIPOS>MOLECULE
ZINC19363139
   70    74     0     0     0
SMALL
USER_CHARGES

@<TRIPOS>ATOM
      1 C1         -6.1270   -7.7837    0.4501 C.2       1 <0>        -0.1989
      2 C2         -4.8408   -7.6075    0.2749 C.2       1 <0>        -0.1381
      3 C3         -4.0416   -8.6174   -0.5077 C.3       1 <0>        -0.0467
      4 C4         -3.3151   -7.9223   -1.6302 C.ar      1 <0>        -0.1077
      5 C5         -3.8771   -7.8723   -2.8913 C.ar      1 <0>        -0.0778
      6 C6         -3.2109   -7.2352   -3.9215 C.ar      1 <0>        -0.1549
      7 C7         -1.9809   -6.6460   -3.6927 C.ar      1 <0>        -0.0840
      8 C8         -1.4150   -6.6928   -2.4336 C.ar      1 <0>        -0.2090
      9 C9         -2.0841   -7.3271   -1.3967 C.ar      1 <0>         0.1311
     10 O1         -1.5319   -7.3697   -0.1556 O.3       1 <0>        -0.2977
     11 C10        -0.2622   -6.7358    0.0116 C.3       1 <0>         0.0269
     12 C11         0.1957   -6.8863    1.4637 C.3       1 <0>         0.1189
     13 H1          0.1975   -7.9416    1.7366 H         1 <0>         0.1071
     14 C12         1.6082   -6.3181    1.6146 C.3       1 <0>         0.0264
     15 N1          2.0527   -6.4740    3.0060 N.3       1 <0>        -0.5277
     16 C13         3.1621   -5.5594    3.3101 C.3       1 <0>         0.0596
     17 C14         3.5420   -5.6957    4.7864 C.3       1 <0>         0.0594
     18 N2          3.9196   -7.0881    5.0659 N.3       1 <0>        -0.5344
     19 C15         2.8102   -8.0027    4.7618 C.3       1 <0>         0.0533
     20 C16         2.4302   -7.8664    3.2855 C.3       1 <0>         0.0566
     21 C17         4.3640   -7.2440    6.4573 C.3       1 <0>         0.0475
     22 C18         4.9797   -8.6322    6.6436 C.3       1 <0>         0.0993
     23 N3          5.4229   -8.7876    8.0313 N.am      1 <0>        -0.5593
     24 C19         6.6770   -8.4203    8.3563 C.2       1 <0>         0.5701
     25 O2          7.4158   -7.9699    7.5018 O.2       1 <0>        -0.4865
     26 C20         7.1577   -8.5603    9.7387 C.ar      1 <0>        -0.1617
     27 C21         8.4411   -8.1947   10.1173 C.ar      1 <0>        -0.0048
     28 C22         8.8496   -8.3466   11.4371 C.ar      1 <0>        -0.1387
     29 C23         8.0142   -8.8532   12.3909 C.ar      1 <0>        -0.0482
     30 C24         6.7055   -9.2358   12.0487 C.ar      1 <0>        -0.0764
     31 C25         6.2788   -9.0866   10.7125 C.ar      1 <0>         0.0079
     32 C26         4.9692   -9.4626   10.3367 C.ar      1 <0>        -0.1619
     33 C27         4.1142   -9.9781   11.2997 C.ar      1 <0>        -0.0046
     34 C28         4.5463  -10.1198   12.6131 C.ar      1 <0>        -0.1387
     35 C29         5.8077   -9.7618   12.9940 C.ar      1 <0>        -0.0481
     36 C30         4.5594   -9.2874    8.9356 C.2       1 <0>         0.5703
     37 O3          3.4358   -9.5997    8.5906 O.2       1 <0>        -0.4893
     38 O4         -0.6983   -6.1740    2.3213 O.3       1 <0>        -0.5348
     39 H2         -6.6997   -7.0599    1.0109 H         1 <0>         0.0970
     40 H3         -6.6155   -8.6504    0.0298 H         1 <0>         0.0953
     41 H4         -4.3531   -6.7386    0.6914 H         1 <0>         0.1089
     42 H5         -3.3181   -9.0976    0.1511 H         1 <0>         0.0857
     43 H6         -4.7127   -9.3706   -0.9207 H         1 <0>         0.0745
     44 H7         -4.8376   -8.3317   -3.0726 H         1 <0>         0.1285
     45 H8         -3.6516   -7.1978   -4.9068 H         1 <0>         0.1242
     46 H9         -1.4622   -6.1492   -4.4993 H         1 <0>         0.1240
     47 H10        -0.4543   -6.2326   -2.2554 H         1 <0>         0.1254
     48 H11         0.4673   -7.2034   -0.6497 H         1 <0>         0.0694
     49 H12        -0.3493   -5.6774   -0.2340 H         1 <0>         0.0656
     50 H13         2.2884   -6.8552    0.9536 H         1 <0>         0.0501
     51 H14         1.6046   -5.2606    1.3506 H         1 <0>         0.0806
     52 H15         4.0215   -5.8109    2.6887 H         1 <0>         0.0444
     53 H16         2.8539   -4.5337    3.1071 H         1 <0>         0.0809
     54 H17         4.3837   -5.0393    5.0074 H         1 <0>         0.0814
     55 H18         2.6909   -5.4179    5.4081 H         1 <0>         0.0459
     56 H19         3.1184   -9.0284    4.9648 H         1 <0>         0.0823
     57 H20         1.9507   -7.7512    5.3832 H         1 <0>         0.0488
     58 H21         1.5885   -8.5228    3.0645 H         1 <0>         0.0817
     59 H22         3.2814   -8.1442    2.6638 H         1 <0>         0.0444
     60 H23         5.1087   -6.4823    6.6883 H         1 <0>         0.0802
     61 H24         3.5105   -7.1323    7.1260 H         1 <0>         0.0420
     62 H25         4.2350   -9.3939    6.4126 H         1 <0>         0.0987
     63 H26         5.8332   -8.7439    5.9749 H         1 <0>         0.1072
     64 H27         9.1245   -7.7914    9.3848 H         1 <0>         0.1466
     65 H28         9.8524   -8.0573   11.7149 H         1 <0>         0.1405
     66 H29         8.3590   -8.9603   13.4088 H         1 <0>         0.1419
     67 H30         3.1103  -10.2696   11.0283 H         1 <0>         0.1464
     68 H31         3.8677  -10.5229   13.3504 H         1 <0>         0.1406
     69 H32         6.1161   -9.8835   14.0218 H         1 <0>         0.1419
     70 H33        -0.7505   -5.2265    2.1353 H         1 <0>         0.3707
@<TRIPOS>BOND
     1    1    2 2
     2    1   39 1
     3    1   40 1
     4    2    3 1
     5    2   41 1
     6    3    4 1
     7    3   42 1
     8    3   43 1
     9    4    9 ar
    10    4    5 ar
    11    5    6 ar
    12    5   44 1
    13    6    7 ar
    14    6   45 1
    15    7    8 ar
    16    7   46 1
    17    8    9 ar
    18    8   47 1
    19    9   10 1
    20   10   11 1
    21   11   12 1
    22   11   48 1
    23   11   49 1
    24   12   13 1
    25   12   14 1
    26   12   38 1
    27   14   15 1
    28   14   50 1
    29   14   51 1
    30   15   20 1
    31   15   16 1
    32   16   17 1
    33   16   52 1
    34   16   53 1
    35   17   18 1
    36   17   54 1
    37   17   55 1
    38   18   19 1
    39   18   21 1
    40   19   20 1
    41   19   56 1
    42   19   57 1
    43   20   58 1
    44   20   59 1
    45   21   22 1
    46   21   60 1
    47   21   61 1
    48   22   23 1
    49   22   62 1
    50   22   63 1
    51   23   36 am
    52   23   24 am
    53   24   25 2
    54   24   26 1
    55   26   31 ar
    56   26   27 ar
    57   27   28 ar
    58   27   64 1
    59   28   29 ar
    60   28   65 1
    61   29   30 ar
    62   29   66 1
    63   30   35 ar
    64   30   31 ar
    65   31   32 ar
    66   32   33 ar
    67   32   36 1
    68   33   34 ar
    69   33   67 1
    70   34   35 ar
    71   34   68 1
    72   35   69 1
    73   36   37 2
    74   38   70 1
@<TRIPOS>MOLECULE
ZINC19367353
   71    75     0     0     0
SMALL
USER_CHARGES

@<TRIPOS>ATOM
      1 C1         -0.0157    1.3058    0.0092 C.2       1 <0>        -0.1921
      2 C2          0.0021   -0.0041    0.0020 C.2       1 <0>        -0.1447
      3 C3          1.3172   -0.7397   -0.0145 C.3       1 <0>        -0.0474
      4 C4          1.3689   -1.7024    1.1438 C.ar      1 <0>        -0.1045
      5 C5          1.9659   -1.3243    2.3310 C.ar      1 <0>        -0.0766
      6 C6          2.0140   -2.2071    3.3938 C.ar      1 <0>        -0.1488
      7 C7          1.4647   -3.4703    3.2718 C.ar      1 <0>        -0.0839
      8 C8          0.8663   -3.8530    2.0871 C.ar      1 <0>        -0.2081
      9 C9          0.8121   -2.9669    1.0208 C.ar      1 <0>         0.1252
     10 O1          0.2189   -3.3391   -0.1440 O.3       1 <0>        -0.2987
     11 C10        -0.3332   -4.6560   -0.1990 C.3       1 <0>         0.0255
     12 C11        -0.9528   -4.8920   -1.5778 C.3       1 <0>         0.1158
     13 H1         -1.6791   -4.1071   -1.7890 H         1 <0>         0.1082
     14 C12        -1.6524   -6.2525   -1.5965 C.3       1 <0>         0.0238
     15 N1         -2.2474   -6.4791   -2.9204 N.3       1 <0>        -0.5266
     16 C13        -3.3376   -5.5277   -3.1777 C.3       1 <0>         0.0221
     17 C14        -3.8895   -5.7577   -4.5863 C.3       1 <0>         0.0001
     18 N2         -4.3828   -7.1365   -4.7000 N.4       1 <0>        -0.3812
     19 C15        -3.2774   -8.0748   -4.4648 C.3       1 <0>        -0.0077
     20 C16        -2.7205   -7.8641   -3.0551 C.3       1 <0>         0.0279
     21 C17        -4.9289   -7.3514   -6.0467 C.3       1 <0>        -0.0230
     22 C18        -5.5548   -8.7452   -6.1268 C.3       1 <0>         0.0727
     23 N3         -6.0994   -8.9595   -7.4698 N.am      1 <0>        -0.5593
     24 C19        -7.3746   -8.6042   -7.7167 C.2       1 <0>         0.5774
     25 O2         -8.0487   -8.1159   -6.8301 O.2       1 <0>        -0.4914
     26 C20        -7.9562   -8.8028   -9.0524 C.ar      1 <0>        -0.1792
     27 C21        -9.2645   -8.4514   -9.3503 C.ar      1 <0>         0.0103
     28 C22        -9.7695   -8.6594  -10.6285 C.ar      1 <0>        -0.1432
     29 C23        -9.0063   -9.2082  -11.6188 C.ar      1 <0>        -0.0321
     30 C24        -7.6754   -9.5782  -11.3582 C.ar      1 <0>        -0.0810
     31 C25        -7.1511   -9.3723  -10.0650 C.ar      1 <0>         0.0148
     32 C26        -5.8168   -9.7342   -9.7713 C.ar      1 <0>        -0.1791
     33 C27        -5.0348  -10.2923  -10.7718 C.ar      1 <0>         0.0106
     34 C28        -5.5627  -10.4898  -12.0423 C.ar      1 <0>        -0.1431
     35 C29        -6.8494  -10.1462  -12.3438 C.ar      1 <0>        -0.0322
     36 C30        -5.3046   -9.4995   -8.4132 C.2       1 <0>         0.5778
     37 O3         -4.1581   -9.7987   -8.1393 O.2       1 <0>        -0.4910
     38 O4          0.0740   -4.8707   -2.5715 O.3       1 <0>        -0.5359
     39 H2          0.9122    1.8585    0.0033 H         1 <0>         0.0980
     40 H3         -0.9582    1.8330    0.0166 H         1 <0>         0.0978
     41 H4         -0.9258   -0.5567    0.0079 H         1 <0>         0.1045
     42 H5          1.4134   -1.2911   -0.9498 H         1 <0>         0.0858
     43 H6          2.1349   -0.0241    0.0711 H         1 <0>         0.0768
     44 H7          2.3956   -0.3383    2.4288 H         1 <0>         0.1311
     45 H8          2.4817   -1.9099    4.3207 H         1 <0>         0.1272
     46 H9          1.5039   -4.1584    4.1033 H         1 <0>         0.1259
     47 H10         0.4375   -4.8397    1.9923 H         1 <0>         0.1237
     48 H11         0.4554   -5.3881   -0.0249 H         1 <0>         0.0684
     49 H12        -1.1014   -4.7602    0.5672 H         1 <0>         0.0699
     50 H13        -0.9262   -7.0374   -1.3853 H         1 <0>         0.0967
     51 H14        -2.4356   -6.2688   -0.8386 H         1 <0>         0.0603
     52 H15        -4.1321   -5.6786   -2.4468 H         1 <0>         0.0624
     53 H16        -2.9579   -4.5091   -3.0976 H         1 <0>         0.1277
     54 H17        -4.7077   -5.0624   -4.7740 H         1 <0>         0.1376
     55 H18        -3.0982   -5.5934   -5.3178 H         1 <0>         0.1412
     56 H19        -3.6419   -9.0974   -4.5623 H         1 <0>         0.1369
     57 H20        -2.4893   -7.8987   -5.1969 H         1 <0>         0.1430
     58 H21        -1.8905   -8.5501   -2.8857 H         1 <0>         0.1255
     59 H22        -3.5047   -8.0534   -2.3222 H         1 <0>         0.0619
     60 H23        -5.6896   -6.5990   -6.2546 H         1 <0>         0.1373
     61 H24        -4.1274   -7.2703   -6.7810 H         1 <0>         0.1376
     62 H25        -4.7940   -9.4976   -5.9189 H         1 <0>         0.1196
     63 H26        -6.3562   -8.8263   -5.3925 H         1 <0>         0.1194
     64 H27        -9.8924   -8.0156   -8.5873 H         1 <0>         0.1481
     65 H28       -10.7905   -8.3804  -10.8434 H         1 <0>         0.1455
     66 H29        -9.4255   -9.3584  -12.6027 H         1 <0>         0.1473
     67 H30        -4.0132  -10.5738  -10.5632 H         1 <0>         0.1483
     68 H31        -4.9402  -10.9255  -12.8097 H         1 <0>         0.1456
     69 H32        -7.2329  -10.3115  -13.3397 H         1 <0>         0.1473
     70 H33         0.7565   -5.5442   -2.4463 H         1 <0>         0.3780
     71 H34        -5.1071   -7.2919   -4.0151 H         1 <0>         0.4221
@<TRIPOS>BOND
     1    1    2 2
     2    1   39 1
     3    1   40 1
     4    2    3 1
     5    2   41 1
     6    3    4 1
     7    3   42 1
     8    3   43 1
     9    4    9 ar
    10    4    5 ar
    11    5    6 ar
    12    5   44 1
    13    6    7 ar
    14    6   45 1
    15    7    8 ar
    16    7   46 1
    17    8    9 ar
    18    8   47 1
    19    9   10 1
    20   10   11 1
    21   11   12 1
    22   11   48 1
    23   11   49 1
    24   12   13 1
    25   12   14 1
    26   12   38 1
    27   14   15 1
    28   14   50 1
    29   14   51 1
    30   15   20 1
    31   15   16 1
    32   16   17 1
    33   16   52 1
    34   16   53 1
    35   17   18 1
    36   17   54 1
    37   17   55 1
    38   18   19 1
    39   18   21 1
    40   18   71 1
    41   19   20 1
    42   19   56 1
    43   19   57 1
    44   20   58 1
    45   20   59 1
    46   21   22 1
    47   21   60 1
    48   21   61 1
    49   22   23 1
    50   22   62 1
    51   22   63 1
    52   23   36 am
    53   23   24 am
    54   24   25 2
    55   24   26 1
    56   26   31 ar
    57   26   27 ar
    58   27   28 ar
    59   27   64 1
    60   28   29 ar
    61   28   65 1
    62   29   30 ar
    63   29   66 1
    64   30   35 ar
    65   30   31 ar
    66   31   32 ar
    67   32   33 ar
    68   32   36 1
    69   33   34 ar
    70   33   67 1
    71   34   35 ar
    72   34   68 1
    73   35   69 1
    74   36   37 2
    75   38   70 1
@<TRIPOS>MOLECULE
ZINC19367353
   71    75     0     0     0
SMALL
USER_CHARGES

@<TRIPOS>ATOM
      1 C1         -0.0157    1.3058    0.0092 C.2       1 <0>        -0.1872
      2 C2          0.0021   -0.0041    0.0020 C.2       1 <0>        -0.1496
      3 C3          1.3172   -0.7397   -0.0145 C.3       1 <0>        -0.0476
      4 C4          1.3689   -1.7024    1.1438 C.ar      1 <0>        -0.0999
      5 C5          1.9659   -1.3243    2.3310 C.ar      1 <0>        -0.0758
      6 C6          2.0140   -2.2071    3.3938 C.ar      1 <0>        -0.1434
      7 C7          1.4647   -3.4703    3.2718 C.ar      1 <0>        -0.0837
      8 C8          0.8663   -3.8530    2.0871 C.ar      1 <0>        -0.2064
      9 C9          0.8121   -2.9669    1.0208 C.ar      1 <0>         0.1198
     10 O1          0.2189   -3.3391   -0.1440 O.3       1 <0>        -0.2976
     11 C10        -0.3332   -4.6560   -0.1990 C.3       1 <0>         0.0299
     12 C11        -0.9528   -4.8920   -1.5778 C.3       1 <0>         0.0862
     13 H1         -1.6791   -4.1071   -1.7890 H         1 <0>         0.1341
     14 C12        -1.6524   -6.2525   -1.5965 C.3       1 <0>        -0.0419
     15 N1         -2.2474   -6.4791   -2.9204 N.4       1 <0>        -0.3812
     16 C13        -3.3087   -5.4913   -3.1554 C.3       1 <0>        -0.0069
     17 C14        -3.9161   -5.7151   -4.5420 C.3       1 <0>         0.0288
     18 N2         -4.4643   -7.0766   -4.6197 N.3       1 <0>        -0.5328
     19 C15        -3.4180   -8.0760   -4.3618 C.3       1 <0>         0.0189
     20 C16        -2.8148   -7.8328   -2.9766 C.3       1 <0>        -0.0012
     21 C17        -5.1079   -7.3116   -5.9191 C.3       1 <0>         0.0441
     22 C18        -5.8776   -8.6332   -5.8754 C.3       1 <0>         0.0986
     23 N3         -6.5195   -8.8675   -7.1712 N.am      1 <0>        -0.5615
     24 C19        -7.7637   -8.3938   -7.3736 C.2       1 <0>         0.5736
     25 O2         -8.3306   -7.7849   -6.4865 O.2       1 <0>        -0.4878
     26 C20        -8.4404   -8.6083   -8.6612 C.ar      1 <0>        -0.1717
     27 C21        -9.7208   -8.1380   -8.9124 C.ar      1 <0>         0.0029
     28 C22       -10.3190   -8.3664  -10.1461 C.ar      1 <0>        -0.1407
     29 C23        -9.6760   -9.0510  -11.1372 C.ar      1 <0>        -0.0402
     30 C24        -8.3771   -9.5444  -10.9231 C.ar      1 <0>        -0.0788
     31 C25        -7.7592   -9.3191   -9.6753 C.ar      1 <0>         0.0111
     32 C26        -6.4542   -9.8029   -9.4290 C.ar      1 <0>        -0.1724
     33 C27        -5.7941  -10.4993  -10.4306 C.ar      1 <0>         0.0022
     34 C28        -6.4135  -10.7145  -11.6561 C.ar      1 <0>        -0.1420
     35 C29        -7.6735  -10.2544  -11.9115 C.ar      1 <0>        -0.0391
     36 C30        -5.8415   -9.5439   -8.1178 C.2       1 <0>         0.5764
     37 O3         -4.7177   -9.9466   -7.8853 O.2       1 <0>        -0.4982
     38 O4          0.0740   -4.8707   -2.5715 O.3       1 <0>        -0.5430
     39 H2          0.9122    1.8585    0.0033 H         1 <0>         0.0988
     40 H3         -0.9582    1.8330    0.0166 H         1 <0>         0.0993
     41 H4         -0.9258   -0.5567    0.0079 H         1 <0>         0.1044
     42 H5          1.4134   -1.2911   -0.9498 H         1 <0>         0.0844
     43 H6          2.1349   -0.0241    0.0711 H         1 <0>         0.0781
     44 H7          2.3956   -0.3383    2.4288 H         1 <0>         0.1332
     45 H8          2.4817   -1.9099    4.3207 H         1 <0>         0.1294
     46 H9          1.5039   -4.1584    4.1033 H         1 <0>         0.1279
     47 H10         0.4375   -4.8397    1.9923 H         1 <0>         0.1236
     48 H11         0.4554   -5.3881   -0.0249 H         1 <0>         0.0759
     49 H12        -1.1014   -4.7602    0.5672 H         1 <0>         0.0808
     50 H13        -0.9262   -7.0374   -1.3853 H         1 <0>         0.1394
     51 H14        -2.4356   -6.2688   -0.8386 H         1 <0>         0.1460
     52 H15        -4.0836   -5.6032   -2.3970 H         1 <0>         0.1407
     53 H16        -2.8889   -4.4869   -3.1005 H         1 <0>         0.1380
     54 H17        -4.7138   -4.9917   -4.7108 H         1 <0>         0.1264
     55 H18        -3.1444   -5.5899   -5.3016 H         1 <0>         0.0639
     56 H19        -3.8523   -9.0751   -4.3990 H         1 <0>         0.1270
     57 H20        -2.6381   -7.9897   -5.1184 H         1 <0>         0.0657
     58 H21        -2.0287   -8.5643   -2.7891 H         1 <0>         0.1372
     59 H22        -3.5922   -7.9327   -2.2192 H         1 <0>         0.1403
     60 H23        -5.7982   -6.4961   -6.1354 H         1 <0>         0.0949
     61 H24        -4.3470   -7.3598   -6.6981 H         1 <0>         0.0542
     62 H25        -5.1874   -9.4486   -5.6590 H         1 <0>         0.0977
     63 H26        -6.6385   -8.5849   -5.0964 H         1 <0>         0.1112
     64 H27       -10.2545   -7.5934   -8.1476 H         1 <0>         0.1473
     65 H28       -11.3167   -7.9936  -10.3250 H         1 <0>         0.1434
     66 H29       -10.1656   -9.2138  -12.0860 H         1 <0>         0.1450
     67 H30        -4.7964  -10.8750  -10.2579 H         1 <0>         0.1460
     68 H31        -5.8854  -11.2587  -12.4251 H         1 <0>         0.1429
     69 H32        -8.1300  -10.4368  -12.8732 H         1 <0>         0.1450
     70 H33         0.7565   -5.5442   -2.4463 H         1 <0>         0.3897
     71 H34        -1.5360   -6.3831   -3.6295 H         1 <0>         0.4261
@<TRIPOS>BOND
     1    1    2 2
     2    1   39 1
     3    1   40 1
     4    2    3 1
     5    2   41 1
     6    3    4 1
     7    3   42 1
     8    3   43 1
     9    4    9 ar
    10    4    5 ar
    11    5    6 ar
    12    5   44 1
    13    6    7 ar
    14    6   45 1
    15    7    8 ar
    16    7   46 1
    17    8    9 ar
    18    8   47 1
    19    9   10 1
    20   10   11 1
    21   11   12 1
    22   11   48 1
    23   11   49 1
    24   12   13 1
    25   12   14 1
    26   12   38 1
    27   14   15 1
    28   14   50 1
    29   14   51 1
    30   15   20 1
    31   15   16 1
    32   15   71 1
    33   16   17 1
    34   16   52 1
    35   16   53 1
    36   17   18 1
    37   17   54 1
    38   17   55 1
    39   18   19 1
    40   18   21 1
    41   19   20 1
    42   19   56 1
    43   19   57 1
    44   20   58 1
    45   20   59 1
    46   21   22 1
    47   21   60 1
    48   21   61 1
    49   22   23 1
    50   22   62 1
    51   22   63 1
    52   23   36 am
    53   23   24 am
    54   24   25 2
    55   24   26 1
    56   26   31 ar
    57   26   27 ar
    58   27   28 ar
    59   27   64 1
    60   28   29 ar
    61   28   65 1
    62   29   30 ar
    63   29   66 1
    64   30   35 ar
    65   30   31 ar
    66   31   32 ar
    67   32   33 ar
    68   32   36 1
    69   33   34 ar
    70   33   67 1
    71   34   35 ar
    72   34   68 1
    73   35   69 1
    74   36   37 2
    75   38   70 1
@<TRIPOS>MOLECULE
ZINC19367353
   70    74     0     0     0
SMALL
USER_CHARGES

@<TRIPOS>ATOM
      1 C1         -0.0157    1.3058    0.0092 C.2       1 <0>        -0.1978
      2 C2          0.0021   -0.0041    0.0020 C.2       1 <0>        -0.1395
      3 C3         -1.2926   -0.7753    0.0102 C.3       1 <0>        -0.0476
      4 C4         -1.3183   -1.7262   -1.1586 C.ar      1 <0>        -0.1076
      5 C5         -1.9255   -1.3514   -2.3417 C.ar      1 <0>        -0.0778
      6 C6         -1.9499   -2.2234   -3.4141 C.ar      1 <0>        -0.1548
      7 C7         -1.3665   -3.4726   -3.3059 C.ar      1 <0>        -0.0839
      8 C8         -0.7578   -3.8519   -2.1254 C.ar      1 <0>        -0.2089
      9 C9         -0.7274   -2.9764   -1.0494 C.ar      1 <0>         0.1311
     10 O1         -0.1242   -3.3451    0.1113 O.3       1 <0>        -0.2979
     11 C10         0.4634   -4.6471    0.1519 C.3       1 <0>         0.0271
     12 C11         1.0894   -4.8814    1.5282 C.3       1 <0>         0.1164
     13 H1          1.7941   -4.0794    1.7480 H         1 <0>         0.1078
     14 C12         1.8256   -6.2226    1.5319 C.3       1 <0>         0.0265
     15 N1          2.4267   -6.4475    2.8533 N.3       1 <0>        -0.5273
     16 C13         3.4891   -5.4684    3.1222 C.3       1 <0>         0.0556
     17 C14         4.0338   -5.6859    4.5359 C.3       1 <0>         0.0600
     18 N2          4.5443   -7.0588    4.6555 N.3       1 <0>        -0.5345
     19 C15         3.4819   -8.0379    4.3866 C.3       1 <0>         0.0533
     20 C16         2.9372   -7.8203    2.9729 C.3       1 <0>         0.0585
     21 C17         5.1454   -7.2837    5.9769 C.3       1 <0>         0.0473
     22 C18         5.8816   -8.6249    5.9806 C.3       1 <0>         0.0996
     23 N3          6.4810   -8.8492    7.2984 N.am      1 <0>        -0.5593
     24 C19         7.7309   -8.4031    7.5266 C.2       1 <0>         0.5700
     25 O2          8.3377   -7.8267    6.6443 O.2       1 <0>        -0.4860
     26 C20         8.3658   -8.6085    8.8368 C.ar      1 <0>        -0.1617
     27 C21         9.6505   -8.1657    9.1149 C.ar      1 <0>        -0.0047
     28 C22        10.2080   -8.3842   10.3692 C.ar      1 <0>        -0.1386
     29 C23         9.5203   -9.0322   11.3549 C.ar      1 <0>        -0.0483
     30 C24         8.2156   -9.4969   11.1138 C.ar      1 <0>        -0.0764
     31 C25         7.6387   -9.2814    9.8449 C.ar      1 <0>         0.0079
     32 C26         6.3290   -9.7369    9.5712 C.ar      1 <0>        -0.1620
     33 C27         5.6235  -10.3961   10.5671 C.ar      1 <0>        -0.0047
     34 C28         6.2029  -10.6021   11.8136 C.ar      1 <0>        -0.1389
     35 C29         7.4667  -10.1689   12.0956 C.ar      1 <0>        -0.0479
     36 C30         5.7597   -9.4891    8.2384 C.2       1 <0>         0.5707
     37 O3          4.6329   -9.8679    7.9821 O.2       1 <0>        -0.4901
     38 O4          0.0626   -4.8988    2.5218 O.3       1 <0>        -0.5355
     39 H2          0.9122    1.8585    0.0033 H         1 <0>         0.0970
     40 H3         -0.9582    1.8330    0.0166 H         1 <0>         0.0960
     41 H4          0.9446   -0.5313   -0.0098 H         1 <0>         0.1068
     42 H5         -1.3737   -1.3393    0.9394 H         1 <0>         0.0877
     43 H6         -2.1295   -0.0812   -0.0676 H         1 <0>         0.0748
     44 H7         -2.3819   -0.3764   -2.4286 H         1 <0>         0.1285
     45 H8         -2.4256   -1.9288   -4.3378 H         1 <0>         0.1243
     46 H9         -1.3871   -4.1522   -4.1449 H         1 <0>         0.1241
     47 H10        -0.3023   -4.8275   -2.0414 H         1 <0>         0.1255
     48 H11        -0.3050   -5.3984   -0.0303 H         1 <0>         0.0662
     49 H12         1.2340   -4.7220   -0.6153 H         1 <0>         0.0696
     50 H13         1.1209   -7.0245    1.3121 H         1 <0>         0.0824
     51 H14         2.6089   -6.2092    0.7740 H         1 <0>         0.0478
     52 H15         4.2940   -5.5971    2.3986 H         1 <0>         0.0441
     53 H16         3.0836   -4.4600    3.0400 H         1 <0>         0.0837
     54 H17         4.8417   -4.9796    4.7270 H         1 <0>         0.0813
     55 H18         3.2352   -5.5304    5.2612 H         1 <0>         0.0467
     56 H19         3.8874   -9.0463    4.4688 H         1 <0>         0.0824
     57 H20         2.6770   -7.9091    5.1102 H         1 <0>         0.0478
     58 H21         2.1293   -8.5267    2.7818 H         1 <0>         0.0809
     59 H22         3.7358   -7.9758    2.2476 H         1 <0>         0.0441
     60 H23         5.8501   -6.4818    6.1967 H         1 <0>         0.0804
     61 H24         4.3621   -7.2970    6.7348 H         1 <0>         0.0419
     62 H25         5.1769   -9.4269    5.7608 H         1 <0>         0.0984
     63 H26         6.6648   -8.6116    5.2227 H         1 <0>         0.1072
     64 H27        10.2190   -7.6502    8.3550 H         1 <0>         0.1467
     65 H28        11.2097   -8.0332   10.5690 H         1 <0>         0.1406
     66 H29         9.9791   -9.1882   12.3201 H         1 <0>         0.1419
     67 H30         4.6217  -10.7499   10.3736 H         1 <0>         0.1463
     68 H31         5.6398  -11.1172   12.5777 H         1 <0>         0.1405
     69 H32         7.8915  -10.3433   13.0731 H         1 <0>         0.1419
     70 H33        -0.6014   -5.5892    2.3891 H         1 <0>         0.3725
@<TRIPOS>BOND
     1    1    2 2
     2    1   39 1
     3    1   40 1
     4    2    3 1
     5    2   41 1
     6    3    4 1
     7    3   42 1
     8    3   43 1
     9    4    9 ar
    10    4    5 ar
    11    5    6 ar
    12    5   44 1
    13    6    7 ar
    14    6   45 1
    15    7    8 ar
    16    7   46 1
    17    8    9 ar
    18    8   47 1
    19    9   10 1
    20   10   11 1
    21   11   12 1
    22   11   48 1
    23   11   49 1
    24   12   13 1
    25   12   14 1
    26   12   38 1
    27   14   15 1
    28   14   50 1
    29   14   51 1
    30   15   20 1
    31   15   16 1
    32   16   17 1
    33   16   52 1
    34   16   53 1
    35   17   18 1
    36   17   54 1
    37   17   55 1
    38   18   19 1
    39   18   21 1
    40   19   20 1
    41   19   56 1
    42   19   57 1
    43   20   58 1
    44   20   59 1
    45   21   22 1
    46   21   60 1
    47   21   61 1
    48   22   23 1
    49   22   62 1
    50   22   63 1
    51   23   36 am
    52   23   24 am
    53   24   25 2
    54   24   26 1
    55   26   31 ar
    56   26   27 ar
    57   27   28 ar
    58   27   64 1
    59   28   29 ar
    60   28   65 1
    61   29   30 ar
    62   29   66 1
    63   30   35 ar
    64   30   31 ar
    65   31   32 ar
    66   32   33 ar
    67   32   36 1
    68   33   34 ar
    69   33   67 1
    70   34   35 ar
    71   34   68 1
    72   35   69 1
    73   36   37 2
    74   38   70 1
@<TRIPOS>MOLECULE
ZINC09781788
   74    78     0     0     0
SMALL
USER_CHARGES
[1-[2-hydroxy-3-(2-isopropyl-5-methyl-phenoxy)-propyl]-4-piperidyl]methylBLAHdione
@<TRIPOS>ATOM
      1 C1         -2.5588    3.8646    0.0453 C.3       1 <0>        -0.1194
      2 C2         -1.2415    3.1328    0.0298 C.ar      1 <0>        -0.0496
      3 C3         -1.2194    1.7501    0.0173 C.ar      1 <0>        -0.1456
      4 C4         -0.0126    1.0758    0.0080 C.ar      1 <0>        -0.0720
      5 C5          1.1748    1.7823    0.0004 C.ar      1 <0>        -0.1030
      6 C6          1.1553    3.1692    0.0076 C.ar      1 <0>         0.1226
      7 C7         -0.0572    3.8436    0.0223 C.ar      1 <0>        -0.2075
      8 O1          2.3218    3.8664   -0.0003 O.3       1 <0>        -0.2985
      9 C8          2.2256    5.2921    0.0079 C.3       1 <0>         0.0305
     10 C9          3.6304    5.8982   -0.0028 C.3       1 <0>         0.0851
     11 H1          4.2057    5.4966    0.8315 H         1 <0>         0.1332
     12 C10         3.5308    7.4190    0.1316 C.3       1 <0>        -0.0385
     13 C11         5.6394    7.5890    1.3086 C.3       1 <0>        -0.0052
     14 C12         7.0803    8.0916    1.1934 C.3       1 <0>        -0.1403
     15 C13         7.0751    9.6180    1.0719 C.3       1 <0>        -0.1141
     16 C14         6.2372   10.0225   -0.1441 C.3       1 <0>        -0.1392
     17 C15         4.8207    9.4639    0.0098 C.3       1 <0>         0.0016
     18 C16         8.5090   10.1217    0.8953 C.3       1 <0>         0.0995
     19 N1          9.2788    9.8393    2.1093 N.am      1 <0>        -0.5621
     20 C17         9.3103   10.7647    3.0870 C.2       1 <0>         0.5733
     21 O2          8.7050   11.8105    2.9495 O.2       1 <0>        -0.4898
     22 C18        10.0685   10.5157    4.3219 C.ar      1 <0>        -0.1741
     23 C19        10.1229   11.4380    5.3565 C.ar      1 <0>         0.0035
     24 C20        10.8568   11.1584    6.5033 C.ar      1 <0>        -0.1410
     25 C21        11.5382    9.9841    6.6480 C.ar      1 <0>        -0.0392
     26 C22        11.5081    9.0222    5.6233 C.ar      1 <0>        -0.0794
     27 C23        10.7669    9.2941    4.4544 C.ar      1 <0>         0.0112
     28 C24        10.7166    8.3470    3.4064 C.ar      1 <0>        -0.1758
     29 C25        11.4053    7.1511    3.5460 C.ar      1 <0>         0.0032
     30 C26        12.1322    6.8950    4.7027 C.ar      1 <0>        -0.1427
     31 C27        12.1919    7.7981    5.7250 C.ar      1 <0>        -0.0377
     32 C28         9.9332    8.6662    2.2039 C.2       1 <0>         0.5742
     33 O3          9.8761    7.8665    1.2894 O.2       1 <0>        -0.4943
     34 O4          4.2814    5.5702   -1.2319 O.3       1 <0>        -0.5417
     35 C29         2.4899    1.0466   -0.0151 C.3       1 <0>        -0.0497
     36 C30         2.5944    0.1623    1.2291 C.3       1 <0>        -0.1453
     37 C31         2.5715    0.1741   -1.2693 C.3       1 <0>        -0.1449
     38 H2         -2.8858    4.0459   -0.9785 H         1 <0>         0.0750
     39 H3         -3.3039    3.2606    0.5632 H         1 <0>         0.0728
     40 H4         -2.4395    4.8166    0.5626 H         1 <0>         0.0652
     41 H5         -2.1465    1.1961    0.0187 H         1 <0>         0.1279
     42 H6          0.0021   -0.0041    0.0020 H         1 <0>         0.1326
     43 H7         -0.0751    4.9235    0.0276 H         1 <0>         0.1225
     44 H8          1.6798    5.6245   -0.8752 H         1 <0>         0.0754
     45 H9          1.6972    5.6155    0.9047 H         1 <0>         0.0794
     46 H10         2.9555    7.8205   -0.7026 H         1 <0>         0.1374
     47 H11         3.0342    7.6692    1.0691 H         1 <0>         0.1446
     48 H12         5.1773    8.0123    2.2004 H         1 <0>         0.1292
     49 H13         5.6388    6.5014    1.3809 H         1 <0>         0.1304
     50 H14         7.5474    7.6578    0.3093 H         1 <0>         0.1013
     51 H15         7.6398    7.7992    2.0819 H         1 <0>         0.1040
     52 H16         6.6440   10.0545    1.9729 H         1 <0>         0.0943
     53 H17         6.6911    9.6190   -1.0493 H         1 <0>         0.0944
     54 H18         6.1944   11.1096   -0.2112 H         1 <0>         0.1188
     55 H19         4.2255    9.7381   -0.8612 H         1 <0>         0.1319
     56 H20         4.3625    9.8785    0.9077 H         1 <0>         0.1315
     57 H21         8.9699    9.6158    0.0469 H         1 <0>         0.1056
     58 H22         8.4968   11.1966    0.7146 H         1 <0>         0.1086
     59 H23         9.5940   12.3758    5.2706 H         1 <0>         0.1471
     60 H24        10.8892   11.8879    7.2990 H         1 <0>         0.1437
     61 H25        12.1003    9.7940    7.5504 H         1 <0>         0.1453
     62 H26        11.3765    6.4172    2.7543 H         1 <0>         0.1466
     63 H27        12.6629    5.9589    4.7950 H         1 <0>         0.1432
     64 H28        12.7644    7.5718    6.6124 H         1 <0>         0.1452
     65 H29         3.8238    5.8968   -2.0187 H         1 <0>         0.3893
     66 H30         3.3087    1.7662   -0.0192 H         1 <0>         0.0819
     67 H31         3.5456   -0.3698    1.2179 H         1 <0>         0.0602
     68 H32         2.5363    0.7839    2.1226 H         1 <0>         0.0533
     69 H33         1.7756   -0.5572    1.2332 H         1 <0>         0.0578
     70 H34         2.4971    0.8041   -2.1556 H         1 <0>         0.0541
     71 H35         3.5227   -0.3580   -1.2805 H         1 <0>         0.0602
     72 H36         1.7527   -0.5454   -1.2652 H         1 <0>         0.0574
     73 N2          4.8931    7.9898    0.0970 N.4       1 <0>        -0.3887
     74 H37         5.3840    7.6309   -0.7303 H         1 <0>         0.4331
@<TRIPOS>BOND
     1    1    2 1
     2    1   38 1
     3    1   39 1
     4    1   40 1
     5    2    7 ar
     6    2    3 ar
     7    3    4 ar
     8    3   41 1
     9    4    5 ar
    10    4   42 1
    11    5    6 ar
    12    5   35 1
    13    6    7 ar
    14    6    8 1
    15    7   43 1
    16    8    9 1
    17    9   10 1
    18    9   44 1
    19    9   45 1
    20   10   11 1
    21   10   12 1
    22   10   34 1
    23   12   46 1
    24   12   47 1
    25   12   73 1
    26   13   14 1
    27   13   48 1
    28   13   49 1
    29   13   73 1
    30   14   15 1
    31   14   50 1
    32   14   51 1
    33   15   16 1
    34   15   18 1
    35   15   52 1
    36   16   17 1
    37   16   53 1
    38   16   54 1
    39   17   55 1
    40   17   56 1
    41   17   73 1
    42   18   19 1
    43   18   57 1
    44   18   58 1
    45   19   32 am
    46   19   20 am
    47   20   21 2
    48   20   22 1
    49   22   27 ar
    50   22   23 ar
    51   23   24 ar
    52   23   59 1
    53   24   25 ar
    54   24   60 1
    55   25   26 ar
    56   25   61 1
    57   26   31 ar
    58   26   27 ar
    59   27   28 ar
    60   28   29 ar
    61   28   32 1
    62   29   30 ar
    63   29   62 1
    64   30   31 ar
    65   30   63 1
    66   31   64 1
    67   32   33 2
    68   34   65 1
    69   35   36 1
    70   35   37 1
    71   35   66 1
    72   36   67 1
    73   36   68 1
    74   36   69 1
    75   37   70 1
    76   37   71 1
    77   37   72 1
    78   73   74 1
@<TRIPOS>MOLECULE
ZINC12170472
   74    78     0     0     0
SMALL
USER_CHARGES
[1-[(2R)-2-hydroxy-3-(2-isopropyl-5-methyl-phenoxy)propyl]-4-piperidyl]methylBLAHdione
@<TRIPOS>ATOM
      1 C1         -2.4394   12.3355   -1.2500 C.3       1 <0>        -0.1194
      2 C2         -3.1190   11.3157   -2.1270 C.ar      1 <0>        -0.0497
      3 C3         -3.8686   11.7286   -3.2132 C.ar      1 <0>        -0.1455
      4 C4         -4.4937   10.7956   -4.0194 C.ar      1 <0>        -0.0720
      5 C5         -4.3654    9.4475   -3.7454 C.ar      1 <0>        -0.1028
      6 C6         -3.6184    9.0310   -2.6533 C.ar      1 <0>         0.1226
      7 C7         -2.9924    9.9694   -1.8454 C.ar      1 <0>        -0.2075
      8 O1         -3.4953    7.7058   -2.3784 O.3       1 <0>        -0.2985
      9 C8         -2.7061    7.3497   -1.2415 C.3       1 <0>         0.0304
     10 C9         -2.6837    5.8271   -1.0930 C.3       1 <0>         0.0858
     11 H1         -2.3354    5.3764   -2.0223 H         1 <0>         0.1331
     12 C10        -1.7396    5.4397    0.0470 C.3       1 <0>        -0.0391
     13 C11        -0.8360    3.4140   -0.9229 C.3       1 <0>        -0.0026
     14 C12        -0.9027    1.8859   -0.8743 C.3       1 <0>        -0.1387
     15 C13        -0.4066    1.4014    0.4909 C.3       1 <0>        -0.1138
     16 C14        -1.2586    2.0389    1.5919 C.3       1 <0>        -0.1421
     17 C15        -1.1828    3.5627    1.4708 C.3       1 <0>         0.0006
     18 C16        -0.5280   -0.1218    0.5679 C.3       1 <0>         0.0992
     19 N1          0.0536   -0.5950    1.8265 N.am      1 <0>        -0.5621
     20 C17         1.3601   -0.9200    1.8553 C.2       1 <0>         0.5730
     21 O2          2.0313   -0.8166    0.8465 O.2       1 <0>        -0.4890
     22 C18         1.9806   -1.3947    3.1009 C.ar      1 <0>        -0.1741
     23 C19         3.3233   -1.7341    3.1770 C.ar      1 <0>         0.0037
     24 C20         3.8633   -2.1819    4.3769 C.ar      1 <0>        -0.1407
     25 C21         3.1019   -2.3005    5.5041 C.ar      1 <0>        -0.0393
     26 C22         1.7370   -1.9658    5.4696 C.ar      1 <0>        -0.0794
     27 C23         1.1770   -1.5102    4.2579 C.ar      1 <0>         0.0113
     28 C24        -0.1921   -1.1655    4.1910 C.ar      1 <0>        -0.1758
     29 C25        -0.9723   -1.2823    5.3319 C.ar      1 <0>         0.0029
     30 C26        -0.4088   -1.7325    6.5200 C.ar      1 <0>        -0.1430
     31 C27         0.9117   -2.0698    6.6029 C.ar      1 <0>        -0.0375
     32 C28        -0.7393   -0.6941    2.9103 C.2       1 <0>         0.5746
     33 O3         -1.9147   -0.3925    2.8293 O.2       1 <0>        -0.4956
     34 O4         -4.0014    5.3576   -0.8005 O.3       1 <0>        -0.5421
     35 C29        -5.0416    8.4307   -4.6285 C.3       1 <0>        -0.0496
     36 C30        -6.5524    8.6723   -4.6203 C.3       1 <0>        -0.1451
     37 C31        -4.5116    8.5637   -6.0576 C.3       1 <0>        -0.1453
     38 H2         -1.4389   12.5356   -1.6336 H         1 <0>         0.0749
     39 H3         -3.0195   13.2583   -1.2491 H         1 <0>         0.0728
     40 H4         -2.3681   11.9502   -0.2328 H         1 <0>         0.0652
     41 H5         -3.9662   12.7817   -3.4319 H         1 <0>         0.1278
     42 H6         -5.0789   11.1206   -4.8670 H         1 <0>         0.1327
     43 H7         -2.4062    9.6475   -0.9974 H         1 <0>         0.1224
     44 H8         -3.1376    7.7959   -0.3455 H         1 <0>         0.0753
     45 H9         -1.6886    7.7166   -1.3763 H         1 <0>         0.0795
     46 H10        -2.1139    5.8510    0.9844 H         1 <0>         0.1371
     47 H11        -0.7452    5.8385   -0.1535 H         1 <0>         0.1447
     48 H12         0.1962    3.7370   -0.7877 H         1 <0>         0.1323
     49 H13        -1.2021    3.7630   -1.8885 H         1 <0>         0.1313
     50 H14        -0.2721    1.4689   -1.6596 H         1 <0>         0.1189
     51 H15        -1.9326    1.5616   -1.0233 H         1 <0>         0.0952
     52 H16         0.6359    1.6909    0.6233 H         1 <0>         0.0944
     53 H17        -2.2943    1.7171    1.4828 H         1 <0>         0.1007
     54 H18        -0.8821    1.7313    2.5674 H         1 <0>         0.1044
     55 H19        -0.1490    3.8850    1.5948 H         1 <0>         0.1290
     56 H20        -1.8009    4.0194    2.2438 H         1 <0>         0.1295
     57 H21        -1.5796   -0.4052    0.5244 H         1 <0>         0.1058
     58 H22         0.0045   -0.5716   -0.2702 H         1 <0>         0.1089
     59 H23         3.9506   -1.6505    2.3018 H         1 <0>         0.1473
     60 H24         4.9105   -2.4426    4.4186 H         1 <0>         0.1438
     61 H25         3.5486   -2.6512    6.4227 H         1 <0>         0.1454
     62 H26        -2.0200   -1.0225    5.2970 H         1 <0>         0.1463
     63 H27        -1.0306   -1.8179    7.3989 H         1 <0>         0.1431
     64 H28         1.3224   -2.4164    7.5397 H         1 <0>         0.1452
     65 H29        -4.3755    5.7184    0.0149 H         1 <0>         0.3901
     66 H30        -4.8319    7.4284   -4.2551 H         1 <0>         0.0819
     67 H31        -6.7621    9.6746   -4.9937 H         1 <0>         0.0575
     68 H32        -7.0414    7.9369   -5.2590 H         1 <0>         0.0602
     69 H33        -6.9299    8.5776   -3.6021 H         1 <0>         0.0541
     70 H34        -3.4353    8.3915   -6.0635 H         1 <0>         0.0534
     71 H35        -5.0007    7.8282   -6.6964 H         1 <0>         0.0602
     72 H36        -4.7213    9.5660   -6.4311 H         1 <0>         0.0578
     73 N2         -1.6969    3.9660    0.1446 N.4       1 <0>        -0.3899
     74 H37        -2.6480    3.5966    0.0296 H         1 <0>         0.4339
@<TRIPOS>BOND
     1    1    2 1
     2    1   38 1
     3    1   39 1
     4    1   40 1
     5    2    7 ar
     6    2    3 ar
     7    3    4 ar
     8    3   41 1
     9    4    5 ar
    10    4   42 1
    11    5    6 ar
    12    5   35 1
    13    6    7 ar
    14    6    8 1
    15    7   43 1
    16    8    9 1
    17    9   10 1
    18    9   44 1
    19    9   45 1
    20   10   11 1
    21   10   12 1
    22   10   34 1
    23   12   46 1
    24   12   47 1
    25   12   73 1
    26   13   14 1
    27   13   48 1
    28   13   49 1
    29   13   73 1
    30   14   15 1
    31   14   50 1
    32   14   51 1
    33   15   16 1
    34   15   18 1
    35   15   52 1
    36   16   17 1
    37   16   53 1
    38   16   54 1
    39   17   55 1
    40   17   56 1
    41   17   73 1
    42   18   19 1
    43   18   57 1
    44   18   58 1
    45   19   32 am
    46   19   20 am
    47   20   21 2
    48   20   22 1
    49   22   27 ar
    50   22   23 ar
    51   23   24 ar
    52   23   59 1
    53   24   25 ar
    54   24   60 1
    55   25   26 ar
    56   25   61 1
    57   26   31 ar
    58   26   27 ar
    59   27   28 ar
    60   28   29 ar
    61   28   32 1
    62   29   30 ar
    63   29   62 1
    64   30   31 ar
    65   30   63 1
    66   31   64 1
    67   32   33 2
    68   34   65 1
    69   35   36 1
    70   35   37 1
    71   35   66 1
    72   36   67 1
    73   36   68 1
    74   36   69 1
    75   37   70 1
    76   37   71 1
    77   37   72 1
    78   73   74 1
@<TRIPOS>MOLECULE
ZINC08616635
   66    70     0     0     0
SMALL
USER_CHARGES
1-(4-methoxyphenoxy)-3-[[1-(9-phenyl-7-thia-3,5-diazabicyclo[4.3.0]nona-2,4,8,10-tetraen-2-yl)-4-piperidyl]amino]propan-2-ol
@<TRIPOS>ATOM
      1 C1          2.9351   -1.6052   -8.6385 C.3       1 <0>         0.0256
      2 O1          1.6911   -0.9041   -8.6911 O.3       1 <0>        -0.3137
      3 C2          1.1646   -0.4914   -7.5072 C.ar      1 <0>         0.1045
      4 C3         -0.0406    0.1948   -7.4858 C.ar      1 <0>        -0.1095
      5 C4         -0.5755    0.6140   -6.2832 C.ar      1 <0>        -0.1011
      6 C5          0.0923    0.3481   -5.0970 C.ar      1 <0>         0.0797
      7 C6          1.2998   -0.3338   -5.1188 C.ar      1 <0>        -0.1669
      8 C7          1.8325   -0.7569   -6.3210 C.ar      1 <0>        -0.1714
      9 O2         -0.4343    0.7608   -3.9131 O.3       1 <0>        -0.3014
     10 C8          0.3070    0.4527   -2.7309 C.3       1 <0>         0.0304
     11 C9         -0.4366    0.9925   -1.5075 C.3       1 <0>         0.0868
     12 H1         -1.4533    0.5998   -1.4978 H         1 <0>         0.1347
     13 C10         0.2912    0.5556   -0.2346 C.3       1 <0>        -0.0385
     14 C11         0.1839    0.5674    2.1843 C.3       1 <0>         0.0279
     15 C12        -0.2028   -0.8734    2.5295 C.3       1 <0>        -0.1369
     16 C13         0.4492   -1.2673    3.8568 C.3       1 <0>         0.0666
     17 N1         -0.0009   -0.3539    4.9148 N.pl3     1 <0>        -0.4766
     18 C14         0.4006    1.0293    4.6284 C.3       1 <0>         0.0615
     19 C15        -0.2529    1.4918    3.3241 C.3       1 <0>        -0.1470
     20 C16         0.4665   -0.7597    6.1521 C.ar      1 <0>         0.3897
     21 C17        -0.4218   -1.3246    7.1061 C.ar      1 <0>        -0.1515
     22 C18        -1.8562   -1.5744    7.0086 C.2       1 <0>        -0.0574
     23 C19        -2.4938   -2.1300    8.0658 C.2       1 <0>        -0.1389
     24 S1         -1.1942   -2.3527    9.2653 S.3       1 <0>         0.1453
     25 C20         0.1650   -1.7014    8.3313 C.ar      1 <0>         0.1156
     26 N2          1.4539   -1.5331    8.5566 N.ar      1 <0>        -0.4709
     27 C21         2.2296   -1.0032    7.6311 C.ar      1 <0>         0.3335
     28 N3          1.7474   -0.6312    6.4590 N.ar      1 <0>        -0.5543
     29 C22        -2.6012   -1.2259    5.7757 C.ar      1 <0>        -0.0208
     30 C23        -2.5914    0.0844    5.2988 C.ar      1 <0>        -0.0533
     31 C24        -3.2822    0.4017    4.1471 C.ar      1 <0>        -0.1419
     32 C25        -3.9928   -0.5748    3.4723 C.ar      1 <0>        -0.1215
     33 C26        -4.0108   -1.8753    3.9438 C.ar      1 <0>        -0.1219
     34 C27        -3.3192   -2.2057    5.0912 C.ar      1 <0>        -0.0985
     35 O3         -0.4778    2.4197   -1.5667 O.3       1 <0>        -0.5423
     36 H2          3.6939   -0.9656   -8.1877 H         1 <0>         0.0562
     37 H3          2.8183   -2.5082   -8.0393 H         1 <0>         0.0561
     38 H4          3.2422   -1.8767   -9.6486 H         1 <0>         0.1054
     39 H5         -0.5607    0.4015   -8.4095 H         1 <0>         0.1440
     40 H6         -1.5137    1.1486   -6.2666 H         1 <0>         0.1413
     41 H7          1.8220   -0.5371   -4.1955 H         1 <0>         0.1260
     42 H8          2.7708   -1.2915   -6.3376 H         1 <0>         0.1339
     43 H9          1.2928    0.9139   -2.7896 H         1 <0>         0.0749
     44 H10         0.4162   -0.6282   -2.6419 H         1 <0>         0.0792
     45 H11         0.4010   -0.5288   -0.2328 H         1 <0>         0.1443
     46 H12         1.2764    1.0207   -0.2016 H         1 <0>         0.1393
     47 H13         1.2641    0.6345    2.0545 H         1 <0>         0.1398
     48 H14        -1.2865   -0.9475    2.6202 H         1 <0>         0.1041
     49 H15         0.1436   -1.5419    1.7413 H         1 <0>         0.0954
     50 H16         1.5333   -1.2063    3.7611 H         1 <0>         0.0630
     51 H17         0.1641   -2.2878    4.1125 H         1 <0>         0.0962
     52 H18         1.4849    1.0796    4.5291 H         1 <0>         0.0691
     53 H19         0.0802    1.6767    5.4446 H         1 <0>         0.0961
     54 H20         0.0577    2.5131    3.1037 H         1 <0>         0.0995
     55 H21        -1.3373    1.4549    3.4273 H         1 <0>         0.1057
     56 H22        -3.5405   -2.3787    8.1600 H         1 <0>         0.2032
     57 H23         3.2823   -0.8736    7.8347 H         1 <0>         0.2128
     58 H24        -2.0407    0.8484    5.8273 H         1 <0>         0.1152
     59 H25        -3.2720    1.4153    3.7746 H         1 <0>         0.1175
     60 H26        -4.5353   -0.3209    2.5737 H         1 <0>         0.1194
     61 H27        -4.5671   -2.6334    3.4126 H         1 <0>         0.1238
     62 H28        -3.3337   -3.2214    5.4582 H         1 <0>         0.1225
     63 H29         0.3938    2.8382   -1.5784 H         1 <0>         0.3902
     64 N4         -0.4953    0.9763    0.9404 N.4       1 <0>        -0.5116
     65 H30        -1.4231    0.5382    0.9014 H         1 <0>         0.4337
     66 H31        -0.5984    1.9978    0.9308 H         1 <0>         0.4378
@<TRIPOS>BOND
     1    1    2 1
     2    1   36 1
     3    1   37 1
     4    1   38 1
     5    2    3 1
     6    3    8 ar
     7    3    4 ar
     8    4    5 ar
     9    4   39 1
    10    5    6 ar
    11    5   40 1
    12    6    7 ar
    13    6    9 1
    14    7    8 ar
    15    7   41 1
    16    8   42 1
    17    9   10 1
    18   10   11 1
    19   10   43 1
    20   10   44 1
    21   11   12 1
    22   11   13 1
    23   11   35 1
    24   13   45 1
    25   13   46 1
    26   13   64 1
    27   14   19 1
    28   14   15 1
    29   14   47 1
    30   14   64 1
    31   15   16 1
    32   15   48 1
    33   15   49 1
    34   16   17 1
    35   16   50 1
    36   16   51 1
    37   17   18 1
    38   17   20 1
    39   18   19 1
    40   18   52 1
    41   18   53 1
    42   19   54 1
    43   19   55 1
    44   20   28 ar
    45   20   21 ar
    46   21   25 ar
    47   21   22 1
    48   22   23 2
    49   22   29 1
    50   23   24 1
    51   23   56 1
    52   24   25 1
    53   25   26 ar
    54   26   27 ar
    55   27   28 ar
    56   27   57 1
    57   29   34 ar
    58   29   30 ar
    59   30   31 ar
    60   30   58 1
    61   31   32 ar
    62   31   59 1
    63   32   33 ar
    64   32   60 1
    65   33   34 ar
    66   33   61 1
    67   34   62 1
    68   35   63 1
    69   64   65 1
    70   64   66 1
@<TRIPOS>MOLECULE
ZINC08616637
   66    70     0     0     0
SMALL
USER_CHARGES
1-(4-methoxyphenoxy)-3-[[1-(9-phenyl-7-thia-3,5-diazabicyclo[4.3.0]nona-2,4,8,10-tetraen-2-yl)-4-piperidyl]amino]propan-2-ol
@<TRIPOS>ATOM
      1 C1          5.5313    0.5181   -0.2875 C.3       1 <0>         0.0256
      2 O1          4.3761   -0.3125   -0.1545 O.3       1 <0>        -0.3138
      3 C2          3.1733    0.3142   -0.0557 C.ar      1 <0>         0.1045
      4 C3          2.0114   -0.4318    0.0756 C.ar      1 <0>        -0.1095
      5 C4          0.7896    0.2047    0.1760 C.ar      1 <0>        -0.1011
      6 C5          0.7247    1.5898    0.1454 C.ar      1 <0>         0.0797
      7 C6          1.8866    2.3358    0.0141 C.ar      1 <0>        -0.1669
      8 C7          3.1084    1.6993   -0.0858 C.ar      1 <0>        -0.1713
      9 O2         -0.4786    2.2162    0.2386 O.3       1 <0>        -0.3014
     10 C8         -0.4711    3.6447    0.2002 C.3       1 <0>         0.0304
     11 C9         -1.9049    4.1656    0.3171 C.3       1 <0>         0.0867
     12 H1         -2.5204    3.7133   -0.4605 H         1 <0>         0.1358
     13 C10        -1.9100    5.6866    0.1512 C.3       1 <0>        -0.0388
     14 C11        -3.3306    7.6470    0.1090 C.3       1 <0>         0.0277
     15 C12        -3.0520    8.3130    1.4593 C.3       1 <0>        -0.1363
     16 C13        -3.1607    9.8318    1.3054 C.3       1 <0>         0.0666
     17 N1         -4.5058   10.1835    0.8327 N.pl3     1 <0>        -0.4764
     18 C14        -4.7766    9.5938   -0.4847 C.3       1 <0>         0.0614
     19 C15        -4.7178    8.0679   -0.3839 C.3       1 <0>        -0.1472
     20 C16        -4.6792   11.5558    0.8067 C.ar      1 <0>         0.3897
     21 C17        -5.5130   12.1931    1.7643 C.ar      1 <0>        -0.1515
     22 C18        -6.2832   11.6139    2.8601 C.2       1 <0>        -0.0573
     23 C19        -7.0129   12.4369    3.6494 C.2       1 <0>        -0.1389
     24 S1         -6.7063   14.0526    2.9617 S.3       1 <0>         0.1452
     25 C20        -5.6152   13.5938    1.6416 C.ar      1 <0>         0.1155
     26 N2         -4.9715   14.2496    0.6951 N.ar      1 <0>        -0.4709
     27 C21        -4.2104   13.6026   -0.1658 C.ar      1 <0>         0.3334
     28 N3         -4.0660   12.2909   -0.1069 N.ar      1 <0>        -0.5543
     29 C22        -6.2672   10.1521    3.1041 C.ar      1 <0>        -0.0212
     30 C23        -6.6551    9.2701    2.0963 C.ar      1 <0>        -0.0535
     31 C24        -6.6326    7.9098    2.3275 C.ar      1 <0>        -0.1418
     32 C25        -6.2372    7.4213    3.5599 C.ar      1 <0>        -0.1204
     33 C26        -5.8568    8.2919    4.5655 C.ar      1 <0>        -0.1221
     34 C27        -5.8697    9.6539    4.3442 C.ar      1 <0>        -0.0986
     35 O3         -2.4324    3.8247    1.6007 O.3       1 <0>        -0.5424
     36 H2          5.6116    1.1707    0.5818 H         1 <0>         0.0561
     37 H3          6.4219   -0.1065   -0.3564 H         1 <0>         0.1054
     38 H4          5.4416    1.1237   -1.1894 H         1 <0>         0.0562
     39 H5          2.0620   -1.5104    0.0991 H         1 <0>         0.1440
     40 H6         -0.1150   -0.3762    0.2786 H         1 <0>         0.1413
     41 H7          1.8360    3.4143   -0.0100 H         1 <0>         0.1260
     42 H8          4.0132    2.2802   -0.1874 H         1 <0>         0.1339
     43 H9          0.1233    4.0273    1.0300 H         1 <0>         0.0746
     44 H10        -0.0382    3.9806   -0.7420 H         1 <0>         0.0795
     45 H11        -1.2946    6.1390    0.9288 H         1 <0>         0.1377
     46 H12        -1.5077    5.9467   -0.8278 H         1 <0>         0.1459
     47 H13        -2.5769    7.9596   -0.6138 H         1 <0>         0.1400
     48 H14        -3.7820    7.9692    2.1921 H         1 <0>         0.1041
     49 H15        -2.0483    8.0511    1.7941 H         1 <0>         0.0945
     50 H16        -2.4203   10.1767    0.5835 H         1 <0>         0.0629
     51 H17        -2.9781   10.3083    2.2686 H         1 <0>         0.0961
     52 H18        -4.0287    9.9398   -1.1982 H         1 <0>         0.0693
     53 H19        -5.7678    9.8976   -0.8215 H         1 <0>         0.0962
     54 H20        -4.9035    7.6310   -1.3651 H         1 <0>         0.0997
     55 H21        -5.4748    7.7202    0.3191 H         1 <0>         0.1058
     56 H22        -7.6333   12.1765    4.4942 H         1 <0>         0.2032
     57 H23        -3.6915   14.1575   -0.9334 H         1 <0>         0.2128
     58 H24        -6.9682    9.6505    1.1352 H         1 <0>         0.1151
     59 H25        -6.9289    7.2254    1.5463 H         1 <0>         0.1172
     60 H26        -6.2252    6.3561    3.7376 H         1 <0>         0.1200
     61 H27        -5.5487    7.9047    5.5255 H         1 <0>         0.1237
     62 H28        -5.5721   10.3325    5.1299 H         1 <0>         0.1224
     63 H29        -1.9332    4.1942    2.3419 H         1 <0>         0.3894
     64 N4         -3.2953    6.1806    0.2652 N.4       1 <0>        -0.5111
     65 H30        -3.6697    5.9292    1.1876 H         1 <0>         0.4370
     66 H31        -3.8705    5.7480   -0.4671 H         1 <0>         0.4345
@<TRIPOS>BOND
     1    1    2 1
     2    1   36 1
     3    1   37 1
     4    1   38 1
     5    2    3 1
     6    3    8 ar
     7    3    4 ar
     8    4    5 ar
     9    4   39 1
    10    5    6 ar
    11    5   40 1
    12    6    7 ar
    13    6    9 1
    14    7    8 ar
    15    7   41 1
    16    8   42 1
    17    9   10 1
    18   10   11 1
    19   10   43 1
    20   10   44 1
    21   11   12 1
    22   11   13 1
    23   11   35 1
    24   13   45 1
    25   13   46 1
    26   13   64 1
    27   14   19 1
    28   14   15 1
    29   14   47 1
    30   14   64 1
    31   15   16 1
    32   15   48 1
    33   15   49 1
    34   16   17 1
    35   16   50 1
    36   16   51 1
    37   17   18 1
    38   17   20 1
    39   18   19 1
    40   18   52 1
    41   18   53 1
    42   19   54 1
    43   19   55 1
    44   20   28 ar
    45   20   21 ar
    46   21   25 ar
    47   21   22 1
    48   22   23 2
    49   22   29 1
    50   23   24 1
    51   23   56 1
    52   24   25 1
    53   25   26 ar
    54   26   27 ar
    55   27   28 ar
    56   27   57 1
    57   29   34 ar
    58   29   30 ar
    59   30   31 ar
    60   30   58 1
    61   31   32 ar
    62   31   59 1
    63   32   33 ar
    64   32   60 1
    65   33   34 ar
    66   33   61 1
    67   34   62 1
    68   35   63 1
    69   64   65 1
    70   64   66 1
@<TRIPOS>MOLECULE
ZINC11847320
   73    77     0     0     0
SMALL
USER_CHARGES
[1-[(2S)-3-(4-allyl-2-methoxy-phenoxy)-2-hydroxy-propyl]-4-piperidyl]methylBLAHdione
@<TRIPOS>ATOM
      1 C1         -5.9611    9.0304    5.5828 C.3       1 <0>         0.0241
      2 O1         -5.1857    8.5247    4.4943 O.3       1 <0>        -0.3071
      3 C2         -4.7254    9.4309    3.5907 C.ar      1 <0>         0.1118
      4 C3         -5.0092   10.7776    3.7517 C.ar      1 <0>        -0.1663
      5 C4         -4.5454   11.6968    2.8292 C.ar      1 <0>        -0.0612
      6 C5         -3.7934   11.2764    1.7479 C.ar      1 <0>        -0.1151
      7 C6         -3.5019    9.9350    1.5845 C.ar      1 <0>        -0.1676
      8 C7         -3.9637    9.0084    2.5055 C.ar      1 <0>         0.0834
      9 O2         -3.6778    7.6885    2.3462 O.3       1 <0>        -0.2910
     10 C8         -2.8961    7.3270    1.2059 C.3       1 <0>         0.0295
     11 C9         -2.6788    5.8125    1.1958 C.3       1 <0>         0.0856
     12 H1         -2.2359    5.5027    2.1423 H         1 <0>         0.1333
     13 C10        -1.7396    5.4397    0.0470 C.3       1 <0>        -0.0384
     14 C11        -0.8323    3.5623   -1.1830 C.3       1 <0>         0.0016
     15 C12        -0.7618    2.0343   -1.2280 C.3       1 <0>        -0.1392
     16 C13        -0.0187    1.5258    0.0104 C.3       1 <0>        -0.1141
     17 C14        -0.7379    2.0208    1.2682 C.3       1 <0>        -0.1403
     18 C15        -0.8105    3.5493    1.2401 C.3       1 <0>        -0.0055
     19 C16         0.0021   -0.0041    0.0020 C.3       1 <0>         0.0995
     20 N1          0.8116   -0.4876    1.1232 N.am      1 <0>        -0.5622
     21 C17         2.1291   -0.6901    0.9318 C.2       1 <0>         0.5733
     22 O3          2.6226   -0.4704   -0.1578 O.2       1 <0>        -0.4898
     23 C18         2.9750   -1.1708    2.0341 C.ar      1 <0>        -0.1739
     24 C19         4.3368   -1.3867    1.8829 C.ar      1 <0>         0.0034
     25 C20         5.0941   -1.8458    2.9542 C.ar      1 <0>        -0.1410
     26 C21         4.5317   -2.0953    4.1732 C.ar      1 <0>        -0.0392
     27 C22         3.1550   -1.8885    4.3685 C.ar      1 <0>        -0.0793
     28 C23         2.3755   -1.4228    3.2890 C.ar      1 <0>         0.0112
     29 C24         0.9888   -1.2046    3.4537 C.ar      1 <0>        -0.1756
     30 C25         0.4099   -1.4548    4.6891 C.ar      1 <0>         0.0031
     31 C26         1.1886   -1.9134    5.7451 C.ar      1 <0>        -0.1425
     32 C27         2.5294   -2.1298    5.6041 C.ar      1 <0>        -0.0379
     33 C28         0.2097   -0.7184    2.3054 C.2       1 <0>         0.5741
     34 O4         -0.9849   -0.5241    2.4239 O.2       1 <0>        -0.4940
     35 O5         -3.9337    5.1525    1.0185 O.3       1 <0>        -0.5410
     36 C29        -4.8598   13.1604    3.0028 C.3       1 <0>        -0.0562
     37 C30        -6.1524   13.4835    2.2986 C.2       1 <0>        -0.1553
     38 C31        -7.1325   14.0514    2.9565 C.2       1 <0>        -0.1848
     39 H2         -5.3633    9.7385    6.1567 H         1 <0>         0.0574
     40 H3         -6.8471    9.5332    5.1951 H         1 <0>         0.0579
     41 H4         -6.2644    8.2051    6.2271 H         1 <0>         0.1042
     42 H5         -5.5964   11.1086    4.5955 H         1 <0>         0.1387
     43 H6         -3.4331   11.9975    1.0291 H         1 <0>         0.1305
     44 H7         -2.9145    9.6091    0.7387 H         1 <0>         0.1312
     45 H8         -1.9313    7.8322    1.2518 H         1 <0>         0.0793
     46 H9         -3.4193    7.6250    0.2974 H         1 <0>         0.0751
     47 H10        -0.7824    5.9432    0.1822 H         1 <0>         0.1447
     48 H11        -2.1825    5.7495   -0.8996 H         1 <0>         0.1374
     49 H12         0.1775    3.9727   -1.1842 H         1 <0>         0.1315
     50 H13        -1.3733    3.9268   -2.0563 H         1 <0>         0.1319
     51 H14        -0.2294    1.7208   -2.1261 H         1 <0>         0.1187
     52 H15        -1.7714    1.6236   -1.2408 H         1 <0>         0.0944
     53 H16         1.0036    1.9040    0.0027 H         1 <0>         0.0942
     54 H17        -1.7471    1.6100    1.2959 H         1 <0>         0.1012
     55 H18        -0.1886    1.6979    2.1525 H         1 <0>         0.1039
     56 H19         0.1992    3.9597    1.2276 H         1 <0>         0.1292
     57 H20        -1.3357    3.9043    2.1268 H         1 <0>         0.1309
     58 H21        -1.0158   -0.3818    0.0993 H         1 <0>         0.1055
     59 H22         0.4324   -0.3564   -0.9354 H         1 <0>         0.1085
     60 H23         4.8097   -1.1981    0.9305 H         1 <0>         0.1471
     61 H24         6.1530   -2.0093    2.8192 H         1 <0>         0.1436
     62 H25         5.1448   -2.4515    4.9877 H         1 <0>         0.1452
     63 H26        -0.6484   -1.2926    4.8309 H         1 <0>         0.1466
     64 H27         0.7218   -2.1036    6.7002 H         1 <0>         0.1432
     65 H28         3.1097   -2.4862    6.4423 H         1 <0>         0.1451
     66 H29        -4.3856    5.3814    0.1948 H         1 <0>         0.3888
     67 H30        -4.9577   13.3875    4.0643 H         1 <0>         0.0791
     68 H31        -4.0543   13.7581    2.5761 H         1 <0>         0.0864
     69 H32        -6.2707   13.2468    1.2515 H         1 <0>         0.1098
     70 H33        -7.0142   14.2881    4.0036 H         1 <0>         0.0980
     71 H34        -8.0588   14.2829    2.4519 H         1 <0>         0.1010
     72 N2         -1.5584    3.9734    0.0376 N.4       1 <0>        -0.3887
     73 H35        -2.4813    3.5234    0.0435 H         1 <0>         0.4331
@<TRIPOS>BOND
     1    1    2 1
     2    1   39 1
     3    1   40 1
     4    1   41 1
     5    2    3 1
     6    3    8 ar
     7    3    4 ar
     8    4    5 ar
     9    4   42 1
    10    5    6 ar
    11    5   36 1
    12    6    7 ar
    13    6   43 1
    14    7    8 ar
    15    7   44 1
    16    8    9 1
    17    9   10 1
    18   10   11 1
    19   10   45 1
    20   10   46 1
    21   11   12 1
    22   11   13 1
    23   11   35 1
    24   13   47 1
    25   13   48 1
    26   13   72 1
    27   14   15 1
    28   14   49 1
    29   14   50 1
    30   14   72 1
    31   15   16 1
    32   15   51 1
    33   15   52 1
    34   16   17 1
    35   16   19 1
    36   16   53 1
    37   17   18 1
    38   17   54 1
    39   17   55 1
    40   18   56 1
    41   18   57 1
    42   18   72 1
    43   19   20 1
    44   19   58 1
    45   19   59 1
    46   20   33 am
    47   20   21 am
    48   21   22 2
    49   21   23 1
    50   23   28 ar
    51   23   24 ar
    52   24   25 ar
    53   24   60 1
    54   25   26 ar
    55   25   61 1
    56   26   27 ar
    57   26   62 1
    58   27   32 ar
    59   27   28 ar
    60   28   29 ar
    61   29   30 ar
    62   29   33 1
    63   30   31 ar
    64   30   63 1
    65   31   32 ar
    66   31   64 1
    67   32   65 1
    68   33   34 2
    69   35   66 1
    70   36   37 1
    71   36   67 1
    72   36   68 1
    73   37   38 2
    74   37   69 1
    75   38   70 1
    76   38   71 1
    77   72   73 1
@<TRIPOS>MOLECULE
ZINC11847321
   73    77     0     0     0
SMALL
USER_CHARGES
[1-[(2R)-3-(4-allyl-2-methoxy-phenoxy)-2-hydroxy-propyl]-4-piperidyl]methylBLAHdione
@<TRIPOS>ATOM
      1 C1         -6.4317    7.6307   -3.8197 C.3       1 <0>         0.0241
      2 O1         -6.0603    6.4171   -4.4764 O.3       1 <0>        -0.3072
      3 C2         -4.8134    5.9357   -4.2252 C.ar      1 <0>         0.1118
      4 C3         -3.9664    6.6167   -3.3657 C.ar      1 <0>        -0.1684
      5 C4         -2.6994    6.1258   -3.1110 C.ar      1 <0>        -0.0611
      6 C5         -2.2723    4.9587   -3.7168 C.ar      1 <0>        -0.1129
      7 C6         -3.1144    4.2714   -4.5709 C.ar      1 <0>        -0.1674
      8 C7         -4.3856    4.7580   -4.8305 C.ar      1 <0>         0.0835
      9 O2         -5.2134    4.0859   -5.6745 O.3       1 <0>        -0.2910
     10 C8         -4.7072    2.8844   -6.2595 C.3       1 <0>         0.0294
     11 C9         -5.7724    2.2734   -7.1722 C.3       1 <0>         0.0863
     12 H1         -6.0901    3.0139   -7.9062 H         1 <0>         0.1336
     13 C10        -5.1887    1.0573   -7.8942 C.3       1 <0>        -0.0392
     14 C11        -5.8819   -0.9139   -9.1166 C.3       1 <0>         0.0007
     15 C12        -7.0324   -1.5291   -9.9165 C.3       1 <0>        -0.1423
     16 C13        -7.2534   -0.7133  -11.1933 C.3       1 <0>        -0.1137
     17 C14        -7.5432    0.7421  -10.8158 C.3       1 <0>        -0.1389
     18 C15        -6.3779    1.2915   -9.9898 C.3       1 <0>        -0.0024
     19 C16        -8.4418   -1.2871  -11.9674 C.3       1 <0>         0.0992
     20 N1         -8.1163   -2.6381  -12.4309 N.am      1 <0>        -0.5620
     21 C17        -7.5416   -2.7881  -13.6394 C.2       1 <0>         0.5729
     22 O3         -7.3033   -1.8097  -14.3213 O.2       1 <0>        -0.4890
     23 C18        -7.1963   -4.1278  -14.1371 C.ar      1 <0>        -0.1738
     24 C19        -6.5980   -4.3277  -15.3724 C.ar      1 <0>         0.0036
     25 C20        -6.2940   -5.6145  -15.8010 C.ar      1 <0>        -0.1407
     26 C21        -6.5696   -6.7085  -15.0320 C.ar      1 <0>        -0.0394
     27 C22        -7.1748   -6.5493  -13.7731 C.ar      1 <0>        -0.0793
     28 C23        -7.4882   -5.2485  -13.3268 C.ar      1 <0>         0.0111
     29 C24        -8.0966   -5.0554  -12.0658 C.ar      1 <0>        -0.1756
     30 C25        -8.3790   -6.1615  -11.2779 C.ar      1 <0>         0.0028
     31 C26        -8.0653   -7.4383  -11.7289 C.ar      1 <0>        -0.1429
     32 C27        -7.4775   -7.6436  -12.9441 C.ar      1 <0>        -0.0377
     33 C28        -8.4078   -3.6845  -11.6350 C.2       1 <0>         0.5746
     34 O4         -8.9318   -3.4945  -10.5541 O.2       1 <0>        -0.4954
     35 O5         -6.8959    1.8677   -6.3878 O.3       1 <0>        -0.5416
     36 C29        -1.7795    6.8677   -2.1759 C.3       1 <0>        -0.0562
     37 C30        -1.9828    6.3670   -0.7691 C.2       1 <0>        -0.1549
     38 C31        -0.9635    5.9164   -0.0806 C.2       1 <0>        -0.1846
     39 H2         -6.3845    7.4887   -2.7401 H         1 <0>         0.0577
     40 H3         -5.7462    8.4263   -4.1118 H         1 <0>         0.0578
     41 H4         -7.4475    7.9028   -4.1064 H         1 <0>         0.1042
     42 H5         -4.2959    7.5311   -2.8949 H         1 <0>         0.1395
     43 H6         -1.2802    4.5807   -3.5187 H         1 <0>         0.1294
     44 H7         -2.7799    3.3576   -5.0394 H         1 <0>         0.1311
     45 H8         -3.8156    3.1123   -6.8436 H         1 <0>         0.0795
     46 H9         -4.4538    2.1753   -5.4714 H         1 <0>         0.0749
     47 H10        -4.3264    1.3652   -8.4856 H         1 <0>         0.1451
     48 H11        -4.8790    0.3131   -7.1604 H         1 <0>         0.1369
     49 H12        -4.9703   -0.9390   -9.7136 H         1 <0>         0.1290
     50 H13        -5.7313   -1.4841   -8.1999 H         1 <0>         0.1294
     51 H14        -7.9413   -1.5170   -9.3150 H         1 <0>         0.1007
     52 H15        -6.7835   -2.5571  -10.1801 H         1 <0>         0.1042
     53 H16        -6.3587   -0.7573  -11.8143 H         1 <0>         0.0944
     54 H17        -8.4601    0.7900  -10.2284 H         1 <0>         0.0952
     55 H18        -7.6593    1.3369  -11.7218 H         1 <0>         0.1187
     56 H19        -6.5876    2.3231   -9.7073 H         1 <0>         0.1317
     57 H20        -5.4640    1.2559  -10.5828 H         1 <0>         0.1321
     58 H21        -9.3148   -1.3269  -11.3159 H         1 <0>         0.1058
     59 H22        -8.6578   -0.6507  -12.8256 H         1 <0>         0.1089
     60 H23        -6.3680   -3.4815  -16.0029 H         1 <0>         0.1472
     61 H24        -5.8289   -5.7523  -16.7659 H         1 <0>         0.1437
     62 H25        -6.3222   -7.6967  -15.3908 H         1 <0>         0.1453
     63 H26        -8.8434   -6.0304  -10.3117 H         1 <0>         0.1464
     64 H27        -8.2923   -8.2887  -11.1030 H         1 <0>         0.1431
     65 H28        -7.2447   -8.6471  -13.2684 H         1 <0>         0.1451
     66 H29        -6.6865    1.2082   -5.7124 H         1 <0>         0.3895
     67 H30        -2.0018    7.9340   -2.2177 H         1 <0>         0.0847
     68 H31        -0.7449    6.7002   -2.4753 H         1 <0>         0.0810
     69 H32        -2.9696    6.3755   -0.3302 H         1 <0>         0.1093
     70 H33         0.0232    5.9079   -0.5195 H         1 <0>         0.0981
     71 H34        -1.1100    5.5534    0.9260 H         1 <0>         0.1006
     72 N2         -6.2334    0.4780   -8.7637 N.4       1 <0>        -0.3899
     73 H35        -7.1264    0.4777   -8.2571 H         1 <0>         0.4337
@<TRIPOS>BOND
     1    1    2 1
     2    1   39 1
     3    1   40 1
     4    1   41 1
     5    2    3 1
     6    3    8 ar
     7    3    4 ar
     8    4    5 ar
     9    4   42 1
    10    5    6 ar
    11    5   36 1
    12    6    7 ar
    13    6   43 1
    14    7    8 ar
    15    7   44 1
    16    8    9 1
    17    9   10 1
    18   10   11 1
    19   10   45 1
    20   10   46 1
    21   11   12 1
    22   11   13 1
    23   11   35 1
    24   13   47 1
    25   13   48 1
    26   13   72 1
    27   14   15 1
    28   14   49 1
    29   14   50 1
    30   14   72 1
    31   15   16 1
    32   15   51 1
    33   15   52 1
    34   16   17 1
    35   16   19 1
    36   16   53 1
    37   17   18 1
    38   17   54 1
    39   17   55 1
    40   18   56 1
    41   18   57 1
    42   18   72 1
    43   19   20 1
    44   19   58 1
    45   19   59 1
    46   20   33 am
    47   20   21 am
    48   21   22 2
    49   21   23 1
    50   23   28 ar
    51   23   24 ar
    52   24   25 ar
    53   24   60 1
    54   25   26 ar
    55   25   61 1
    56   26   27 ar
    57   26   62 1
    58   27   32 ar
    59   27   28 ar
    60   28   29 ar
    61   29   30 ar
    62   29   33 1
    63   30   31 ar
    64   30   63 1
    65   31   32 ar
    66   31   64 1
    67   32   65 1
    68   33   34 2
    69   35   66 1
    70   36   37 1
    71   36   67 1
    72   36   68 1
    73   37   38 2
    74   37   69 1
    75   38   70 1
    76   38   71 1
    77   72   73 1
@<TRIPOS>MOLECULE
ZINC11847507
   78    82     0     0     0
SMALL
USER_CHARGES
[1-[(2S)-3-(2-tert-butyl-4-methoxy-phenoxy)-2-hydroxy-propyl]-4-piperidyl]methylBLAHdione
@<TRIPOS>ATOM
      1 C1         -6.0343    9.1401    5.6724 C.3       1 <0>        -0.1511
      2 C2         -5.2312    8.4207    4.5868 C.3       1 <0>        -0.0191
      3 C3         -6.1290    7.4057    3.8765 C.3       1 <0>        -0.1392
      4 C4         -4.0463    7.6939    5.2262 C.3       1 <0>        -0.1377
      5 C5         -4.7229    9.4277    3.5875 C.ar      1 <0>        -0.0507
      6 C6         -5.0089   10.7692    3.7522 C.ar      1 <0>        -0.1164
      7 C7         -4.5455   11.6953    2.8298 C.ar      1 <0>         0.1077
      8 C8         -3.7909   11.2751    1.7443 C.ar      1 <0>        -0.1773
      9 C9         -3.5006    9.9346    1.5825 C.ar      1 <0>        -0.1648
     10 C10        -3.9637    9.0083    2.5055 C.ar      1 <0>         0.0855
     11 O1         -3.6778    7.6885    2.3462 O.3       1 <0>        -0.2904
     12 C11        -2.8961    7.3270    1.2059 C.3       1 <0>         0.0264
     13 C12        -2.6788    5.8125    1.1958 C.3       1 <0>         0.0857
     14 H1         -2.2359    5.5027    2.1423 H         1 <0>         0.1330
     15 C13        -1.7396    5.4397    0.0470 C.3       1 <0>        -0.0389
     16 C14        -0.8323    3.5623   -1.1830 C.3       1 <0>         0.0016
     17 C15        -0.7618    2.0343   -1.2280 C.3       1 <0>        -0.1392
     18 C16        -0.0187    1.5258    0.0104 C.3       1 <0>        -0.1142
     19 C17        -0.7379    2.0208    1.2682 C.3       1 <0>        -0.1402
     20 C18        -0.8105    3.5493    1.2401 C.3       1 <0>        -0.0052
     21 C19         0.0021   -0.0041    0.0020 C.3       1 <0>         0.0995
     22 N1          0.8116   -0.4876    1.1232 N.am      1 <0>        -0.5622
     23 C20         2.1291   -0.6901    0.9318 C.2       1 <0>         0.5733
     24 O2          2.6226   -0.4704   -0.1578 O.2       1 <0>        -0.4899
     25 C21         2.9750   -1.1708    2.0341 C.ar      1 <0>        -0.1742
     26 C22         4.3368   -1.3867    1.8829 C.ar      1 <0>         0.0036
     27 C23         5.0941   -1.8458    2.9542 C.ar      1 <0>        -0.1410
     28 C24         4.5317   -2.0953    4.1732 C.ar      1 <0>        -0.0391
     29 C25         3.1550   -1.8885    4.3685 C.ar      1 <0>        -0.0794
     30 C26         2.3755   -1.4228    3.2890 C.ar      1 <0>         0.0113
     31 C27         0.9888   -1.2046    3.4537 C.ar      1 <0>        -0.1759
     32 C28         0.4099   -1.4548    4.6891 C.ar      1 <0>         0.0032
     33 C29         1.1886   -1.9134    5.7451 C.ar      1 <0>        -0.1426
     34 C30         2.5294   -2.1298    5.6041 C.ar      1 <0>        -0.0377
     35 C31         0.2097   -0.7184    2.3054 C.2       1 <0>         0.5743
     36 O3         -0.9849   -0.5241    2.4239 O.2       1 <0>        -0.4942
     37 O4         -3.9337    5.1525    1.0185 O.3       1 <0>        -0.5412
     38 O5         -4.8314   13.0151    2.9891 O.3       1 <0>        -0.3142
     39 C32        -4.3224   13.9130    2.0008 C.3       1 <0>         0.0263
     40 H2         -6.8784    9.6578    5.2169 H         1 <0>         0.0609
     41 H3         -6.4019    8.4117    6.3952 H         1 <0>         0.0626
     42 H4         -5.3946    9.8632    6.1785 H         1 <0>         0.0605
     43 H5         -5.5569    6.8932    3.1031 H         1 <0>         0.0695
     44 H6         -6.4967    6.6773    4.5993 H         1 <0>         0.0576
     45 H7         -6.9731    7.9234    3.4210 H         1 <0>         0.0520
     46 H8         -3.4067    8.4170    5.7323 H         1 <0>         0.0528
     47 H9         -4.4140    6.9655    5.9490 H         1 <0>         0.0585
     48 H10        -3.4742    7.1814    4.4528 H         1 <0>         0.0635
     49 H11        -5.5970   11.0963    4.5969 H         1 <0>         0.1462
     50 H12        -3.4306   11.9962    1.0255 H         1 <0>         0.1322
     51 H13        -2.9133    9.6075    0.7372 H         1 <0>         0.1256
     52 H14        -1.9313    7.8322    1.2518 H         1 <0>         0.0778
     53 H15        -3.4193    7.6250    0.2974 H         1 <0>         0.0739
     54 H16        -0.7824    5.9432    0.1822 H         1 <0>         0.1440
     55 H17        -2.1825    5.7495   -0.8996 H         1 <0>         0.1369
     56 H18         0.1775    3.9727   -1.1842 H         1 <0>         0.1314
     57 H19        -1.3733    3.9268   -2.0563 H         1 <0>         0.1318
     58 H20        -0.2294    1.7208   -2.1261 H         1 <0>         0.1187
     59 H21        -1.7714    1.6236   -1.2408 H         1 <0>         0.0944
     60 H22         1.0036    1.9040    0.0027 H         1 <0>         0.0942
     61 H23        -1.7471    1.6100    1.2959 H         1 <0>         0.1013
     62 H24        -0.1886    1.6979    2.1525 H         1 <0>         0.1040
     63 H25         0.1992    3.9597    1.2276 H         1 <0>         0.1289
     64 H26        -1.3357    3.9043    2.1268 H         1 <0>         0.1306
     65 H27        -1.0158   -0.3818    0.0993 H         1 <0>         0.1056
     66 H28         0.4324   -0.3564   -0.9354 H         1 <0>         0.1085
     67 H29         4.8097   -1.1981    0.9305 H         1 <0>         0.1471
     68 H30         6.1530   -2.0093    2.8192 H         1 <0>         0.1436
     69 H31         5.1448   -2.4515    4.9877 H         1 <0>         0.1453
     70 H32        -0.6484   -1.2926    4.8309 H         1 <0>         0.1466
     71 H33         0.7218   -2.1036    6.7002 H         1 <0>         0.1432
     72 H34         3.1097   -2.4862    6.4423 H         1 <0>         0.1452
     73 H35        -4.3856    5.3814    0.1948 H         1 <0>         0.3890
     74 H36        -3.2345   13.8496    1.9781 H         1 <0>         0.0556
     75 H37        -4.7226   13.6426    1.0236 H         1 <0>         0.0557
     76 H38        -4.6219   14.9318    2.2467 H         1 <0>         0.1046
     77 N2         -1.5584    3.9734    0.0376 N.4       1 <0>        -0.3885
     78 H39        -2.4813    3.5234    0.0435 H         1 <0>         0.4330
@<TRIPOS>BOND
     1    1    2 1
     2    1   40 1
     3    1   41 1
     4    1   42 1
     5    2    3 1
     6    2    4 1
     7    2    5 1
     8    3   43 1
     9    3   44 1
    10    3   45 1
    11    4   46 1
    12    4   47 1
    13    4   48 1
    14    5   10 ar
    15    5    6 ar
    16    6    7 ar
    17    6   49 1
    18    7    8 ar
    19    7   38 1
    20    8    9 ar
    21    8   50 1
    22    9   10 ar
    23    9   51 1
    24   10   11 1
    25   11   12 1
    26   12   13 1
    27   12   52 1
    28   12   53 1
    29   13   14 1
    30   13   15 1
    31   13   37 1
    32   15   54 1
    33   15   55 1
    34   15   77 1
    35   16   17 1
    36   16   56 1
    37   16   57 1
    38   16   77 1
    39   17   18 1
    40   17   58 1
    41   17   59 1
    42   18   19 1
    43   18   21 1
    44   18   60 1
    45   19   20 1
    46   19   61 1
    47   19   62 1
    48   20   63 1
    49   20   64 1
    50   20   77 1
    51   21   22 1
    52   21   65 1
    53   21   66 1
    54   22   35 am
    55   22   23 am
    56   23   24 2
    57   23   25 1
    58   25   30 ar
    59   25   26 ar
    60   26   27 ar
    61   26   67 1
    62   27   28 ar
    63   27   68 1
    64   28   29 ar
    65   28   69 1
    66   29   34 ar
    67   29   30 ar
    68   30   31 ar
    69   31   32 ar
    70   31   35 1
    71   32   33 ar
    72   32   70 1
    73   33   34 ar
    74   33   71 1
    75   34   72 1
    76   35   36 2
    77   37   73 1
    78   38   39 1
    79   39   74 1
    80   39   75 1
    81   39   76 1
    82   77   78 1
@<TRIPOS>MOLECULE
ZINC11847508
   78    82     0     0     0
SMALL
USER_CHARGES
[1-[(2R)-3-(2-tert-butyl-4-methoxy-phenoxy)-2-hydroxy-propyl]-4-piperidyl]methylBLAHdione
@<TRIPOS>ATOM
      1 C1         -1.2116   -1.9003    6.3800 C.3       1 <0>        -0.1513
      2 C2         -0.2621   -1.9748    5.1826 C.3       1 <0>        -0.0191
      3 C3          0.2571   -3.4061    5.0317 C.3       1 <0>        -0.1377
      4 C4          0.9167   -1.0256    5.4067 C.3       1 <0>        -0.1392
      5 C5         -0.9994   -1.5734    3.9311 C.ar      1 <0>        -0.0506
      6 C6         -2.3320   -1.2153    3.9992 C.ar      1 <0>        -0.1164
      7 C7         -3.0106   -0.8464    2.8475 C.ar      1 <0>         0.1077
      8 C8         -2.3500   -0.8318    1.6278 C.ar      1 <0>        -0.1774
      9 C9         -1.0192   -1.1948    1.5589 C.ar      1 <0>        -0.1648
     10 C10        -0.3404   -1.5638    2.7110 C.ar      1 <0>         0.0855
     11 O1          0.9711   -1.9167    2.6438 O.3       1 <0>        -0.2905
     12 C11         1.5864   -1.8846    1.3545 C.3       1 <0>         0.0264
     13 C12         3.0510   -2.3097    1.4775 C.3       1 <0>         0.0864
     14 H1          3.1068   -3.2847    1.9616 H         1 <0>         0.1332
     15 C13         3.6759   -2.3959    0.0836 C.3       1 <0>        -0.0397
     16 C14         5.8365   -2.4623   -1.0063 C.3       1 <0>         0.0006
     17 C15         7.3179   -2.7808   -0.7918 C.3       1 <0>        -0.1421
     18 C16         7.4751   -4.2730   -0.4862 C.3       1 <0>        -0.1137
     19 C17         6.6378   -4.6243    0.7468 C.3       1 <0>        -0.1388
     20 C18         5.1761   -4.2523    0.4877 C.3       1 <0>        -0.0022
     21 C19         8.9471   -4.5862   -0.2108 C.3       1 <0>         0.0992
     22 N1          9.7300   -4.3628   -1.4288 N.am      1 <0>        -0.5622
     23 C20         9.9024   -5.3872   -2.2857 C.2       1 <0>         0.5730
     24 O2          9.4103   -6.4715   -2.0388 O.2       1 <0>        -0.4890
     25 C21        10.6783   -5.2005   -3.5206 C.ar      1 <0>        -0.1741
     26 C22        10.8753   -6.2259   -4.4337 C.ar      1 <0>         0.0037
     27 C23        11.6202   -6.0015   -5.5856 C.ar      1 <0>        -0.1407
     28 C24        12.1741   -4.7825   -5.8533 C.ar      1 <0>        -0.0393
     29 C25        11.9972   -3.7165   -4.9540 C.ar      1 <0>        -0.0793
     30 C26        11.2434   -3.9315   -3.7814 C.ar      1 <0>         0.0112
     31 C27        11.0472   -2.8798   -2.8579 C.ar      1 <0>        -0.1758
     32 C28        11.6058   -1.6381   -3.1228 C.ar      1 <0>         0.0028
     33 C29        12.3466   -1.4387   -4.2819 C.ar      1 <0>        -0.1430
     34 C30        12.5463   -2.4431   -5.1850 C.ar      1 <0>        -0.0376
     35 C31        10.2552   -3.1423   -1.6472 C.2       1 <0>         0.5747
     36 O3         10.0738   -2.2524   -0.8385 O.2       1 <0>        -0.4955
     37 O4          3.7620   -1.3481    2.2597 O.3       1 <0>        -0.5417
     38 O5         -4.3223   -0.4940    2.9145 O.3       1 <0>        -0.3143
     39 C32        -4.9584   -0.1252    1.6892 C.3       1 <0>         0.0263
     40 H2         -2.0515   -2.5765    6.2204 H         1 <0>         0.0606
     41 H3         -0.6784   -2.1906    7.2852 H         1 <0>         0.0626
     42 H4         -1.5815   -0.8806    6.4875 H         1 <0>         0.0609
     43 H5          0.9336   -3.4592    4.1787 H         1 <0>         0.0636
     44 H6          0.7904   -3.6964    5.9369 H         1 <0>         0.0586
     45 H7         -0.5827   -4.0823    4.8721 H         1 <0>         0.0529
     46 H8          0.5468   -0.0059    5.5141 H         1 <0>         0.0520
     47 H9          1.4500   -1.3159    6.3119 H         1 <0>         0.0577
     48 H10         1.5932   -1.0787    4.5536 H         1 <0>         0.0695
     49 H11        -2.8452   -1.2224    4.9495 H         1 <0>         0.1462
     50 H12        -2.8773   -0.5402    0.7315 H         1 <0>         0.1322
     51 H13        -0.5059   -1.1870    0.6087 H         1 <0>         0.1256
     52 H14         1.0644   -2.5689    0.6857 H         1 <0>         0.0781
     53 H15         1.5343   -0.8729    0.9521 H         1 <0>         0.0737
     54 H16         3.1282   -3.1230   -0.5158 H         1 <0>         0.1444
     55 H17         3.6279   -1.4188   -0.3971 H         1 <0>         0.1364
     56 H18         5.4602   -3.0373   -1.8524 H         1 <0>         0.1289
     57 H19         5.7197   -1.3979   -1.2100 H         1 <0>         0.1292
     58 H20         7.6984   -2.1958    0.0455 H         1 <0>         0.1008
     59 H21         7.8777   -2.5332   -1.6937 H         1 <0>         0.1042
     60 H22         7.1313   -4.8586   -1.3388 H         1 <0>         0.0943
     61 H23         7.0077   -4.0683    1.6083 H         1 <0>         0.0952
     62 H24         6.7117   -5.6938    0.9441 H         1 <0>         0.1187
     63 H25         4.5797   -4.4881    1.3691 H         1 <0>         0.1315
     64 H26         4.8031   -4.8190   -0.3654 H         1 <0>         0.1319
     65 H27         9.3150   -3.9351    0.5821 H         1 <0>         0.1058
     66 H28         9.0455   -5.6267    0.0986 H         1 <0>         0.1089
     67 H29        10.4494   -7.2010   -4.2490 H         1 <0>         0.1473
     68 H30        11.7645   -6.8110   -6.2857 H         1 <0>         0.1438
     69 H31        12.7481   -4.6372   -6.7565 H         1 <0>         0.1454
     70 H32        11.4646   -0.8242   -2.4270 H         1 <0>         0.1463
     71 H33        12.7749   -0.4658   -4.4726 H         1 <0>         0.1431
     72 H34        13.1261   -2.2592   -6.0774 H         1 <0>         0.1452
     73 H35         3.7543   -0.4555    1.8879 H         1 <0>         0.3897
     74 H36        -5.9996    0.1324    1.8836 H         1 <0>         0.1046
     75 H37        -4.4458    0.7347    1.2582 H         1 <0>         0.0556
     76 H38        -4.9151   -0.9614    0.9914 H         1 <0>         0.0556
     77 N2          5.0900   -2.8002    0.2243 N.4       1 <0>        -0.3896
     78 H39         5.5046   -2.2933    1.0151 H         1 <0>         0.4336
@<TRIPOS>BOND
     1    1    2 1
     2    1   40 1
     3    1   41 1
     4    1   42 1
     5    2    3 1
     6    2    4 1
     7    2    5 1
     8    3   43 1
     9    3   44 1
    10    3   45 1
    11    4   46 1
    12    4   47 1
    13    4   48 1
    14    5   10 ar
    15    5    6 ar
    16    6    7 ar
    17    6   49 1
    18    7    8 ar
    19    7   38 1
    20    8    9 ar
    21    8   50 1
    22    9   10 ar
    23    9   51 1
    24   10   11 1
    25   11   12 1
    26   12   13 1
    27   12   52 1
    28   12   53 1
    29   13   14 1
    30   13   15 1
    31   13   37 1
    32   15   54 1
    33   15   55 1
    34   15   77 1
    35   16   17 1
    36   16   56 1
    37   16   57 1
    38   16   77 1
    39   17   18 1
    40   17   58 1
    41   17   59 1
    42   18   19 1
    43   18   21 1
    44   18   60 1
    45   19   20 1
    46   19   61 1
    47   19   62 1
    48   20   63 1
    49   20   64 1
    50   20   77 1
    51   21   22 1
    52   21   65 1
    53   21   66 1
    54   22   35 am
    55   22   23 am
    56   23   24 2
    57   23   25 1
    58   25   30 ar
    59   25   26 ar
    60   26   27 ar
    61   26   67 1
    62   27   28 ar
    63   27   68 1
    64   28   29 ar
    65   28   69 1
    66   29   34 ar
    67   29   30 ar
    68   30   31 ar
    69   31   32 ar
    70   31   35 1
    71   32   33 ar
    72   32   70 1
    73   33   34 ar
    74   33   71 1
    75   34   72 1
    76   35   36 2
    77   37   73 1
    78   38   39 1
    79   39   74 1
    80   39   75 1
    81   39   76 1
    82   77   78 1
@<TRIPOS>MOLECULE
ZINC19901364
   76    80     0     0     0
SMALL
USER_CHARGES
2-[4-[(2S)-2-hydroxy-3-(2-isopropyl-5-methyl-phenoxy)propyl]piperazin-1-yl]ethylBLAHdione
@<TRIPOS>ATOM
      1 C1          1.1509    3.5958    0.0104 C.3       1 <0>        -0.1204
      2 C2          1.1706    2.0890    0.0021 C.ar      1 <0>        -0.0502
      3 C3          2.3774    1.4139   -0.0135 C.ar      1 <0>        -0.1509
      4 C4          2.3989    0.0317   -0.0207 C.ar      1 <0>        -0.0735
      5 C5          1.2139   -0.6788   -0.0132 C.ar      1 <0>        -0.1088
      6 C6          0.0021   -0.0041    0.0020 C.ar      1 <0>         0.1302
      7 C7         -0.0167    1.3833    0.0096 C.ar      1 <0>        -0.2094
      8 O1         -1.1648   -0.7006    0.0099 O.3       1 <0>        -0.3013
      9 C8         -2.3744    0.0601    0.0260 C.3       1 <0>         0.0641
     10 C9         -3.5740   -0.8895    0.0328 C.3       1 <0>         0.1247
     11 H1         -3.4997   -1.6318   -0.7756 H         1 <0>         0.0631
     12 C10        -4.8669   -0.0787   -0.0758 C.3       1 <0>         0.0233
     13 N1         -6.0187   -0.9904   -0.0692 N.3       1 <0>        -0.5375
     14 C11        -6.0334   -1.8290   -1.2759 C.3       1 <0>         0.0159
     15 C12        -7.1997   -2.8167   -1.1933 C.3       1 <0>        -0.0044
     16 N2         -8.4596   -2.0726   -1.0573 N.4       1 <0>        -0.3962
     17 C13        -8.4449   -1.2339    0.1494 C.3       1 <0>         0.0022
     18 C14        -7.2787   -0.2463    0.0669 C.3       1 <0>         0.0279
     19 C15        -9.6114   -2.9843   -1.0507 C.3       1 <0>        -0.0202
     20 C16        -9.7364   -3.6580   -2.4187 C.3       1 <0>         0.0703
     21 N3        -10.8851   -4.5672   -2.4122 N.am      1 <0>        -0.5590
     22 C17       -10.6952   -5.8490   -2.0459 C.2       1 <0>         0.5779
     23 O2         -9.5844   -6.2293   -1.7290 O.2       1 <0>        -0.4913
     24 C18       -11.8246   -6.7903   -2.0223 C.ar      1 <0>        -0.1795
     25 C19       -11.6750   -8.1175   -1.6478 C.ar      1 <0>         0.0105
     26 C20       -12.7724   -8.9704   -1.6462 C.ar      1 <0>        -0.1432
     27 C21       -14.0157   -8.5373   -2.0081 C.ar      1 <0>        -0.0321
     28 C22       -14.2101   -7.1996   -2.3942 C.ar      1 <0>        -0.0811
     29 C23       -13.1042   -6.3241   -2.4000 C.ar      1 <0>         0.0148
     30 C24       -13.2669   -4.9736   -2.7842 C.ar      1 <0>        -0.1796
     31 C25       -14.5266   -4.5258   -3.1536 C.ar      1 <0>         0.0103
     32 C26       -15.6086   -5.3982   -3.1433 C.ar      1 <0>        -0.1433
     33 C27       -15.4699   -6.7057   -2.7752 C.ar      1 <0>        -0.0320
     34 C28       -12.0906   -4.0916   -2.7780 C.2       1 <0>         0.5778
     35 O3        -12.2070   -2.9260   -3.1048 O.2       1 <0>        -0.4919
     36 O4         -3.5820   -1.6382    1.2500 O.3       1 <0>        -0.5752
     37 C29         1.2380   -2.1856   -0.0210 C.3       1 <0>        -0.0497
     38 C30         1.9551   -2.6777   -1.2798 C.3       1 <0>        -0.1448
     39 C31         1.9794   -2.6903    1.2186 C.3       1 <0>        -0.1451
     40 H2          2.1831    3.9760    0.0026 H         1 <0>         0.0703
     41 H3          0.6362    3.9508    0.9154 H         1 <0>         0.0711
     42 H4          0.6191    3.9604   -0.8808 H         1 <0>         0.0704
     43 H5          3.3047    1.9675   -0.0201 H         1 <0>         0.1253
     44 H6          3.3426   -0.4933   -0.0325 H         1 <0>         0.1301
     45 H7         -0.9590    1.9110    0.0170 H         1 <0>         0.1230
     46 H8         -2.3998    0.6894    0.9278 H         1 <0>         0.0732
     47 H9         -2.4176    0.6991   -0.8683 H         1 <0>         0.0755
     48 H10        -4.9401    0.6108    0.7782 H         1 <0>         0.1022
     49 H11        -4.8608    0.4975   -1.0128 H         1 <0>         0.0589
     50 H12        -6.1538   -1.1913   -2.1641 H         1 <0>         0.0658
     51 H13        -5.0863   -2.3837   -1.3485 H         1 <0>         0.1269
     52 H14        -7.2296   -3.4261   -2.1086 H         1 <0>         0.1380
     53 H15        -7.0639   -3.4723   -0.3205 H         1 <0>         0.1404
     54 H16        -9.3920   -0.6791    0.2219 H         1 <0>         0.1386
     55 H17        -8.3245   -1.8715    1.0377 H         1 <0>         0.1380
     56 H18        -7.2476    0.3631    0.9821 H         1 <0>         0.1272
     57 H19        -7.4134    0.4095   -0.8059 H         1 <0>         0.0645
     58 H20        -9.4672   -3.7517   -0.2759 H         1 <0>         0.1351
     59 H21       -10.5282   -2.4153   -0.8370 H         1 <0>         0.1377
     60 H22        -9.8806   -2.8906   -3.1935 H         1 <0>         0.1207
     61 H23        -8.8196   -4.2270   -2.6323 H         1 <0>         0.1201
     62 H24       -10.7036   -8.4888   -1.3565 H         1 <0>         0.1482
     63 H25       -12.6384  -10.0009   -1.3519 H         1 <0>         0.1456
     64 H26       -14.8503   -9.2227   -1.9973 H         1 <0>         0.1473
     65 H27       -14.6672   -3.4966   -3.4493 H         1 <0>         0.1481
     66 H28       -16.5826   -5.0331   -3.4339 H         1 <0>         0.1455
     67 H29       -16.3285   -7.3609   -2.7771 H         1 <0>         0.1473
     68 H30        -4.3754   -2.3770    1.4361 H         1 <0>         0.4084
     69 H31         0.2016   -2.5541   -0.0128 H         1 <0>         0.0831
     70 H32         1.9727   -3.7775   -1.2855 H         1 <0>         0.0589
     71 H33         2.9861   -2.2944   -1.2879 H         1 <0>         0.0574
     72 H34         1.4220   -2.3149   -2.1710 H         1 <0>         0.0530
     73 H35         1.9970   -3.7901    1.2128 H         1 <0>         0.0589
     74 H36         1.4638   -2.3365    2.1236 H         1 <0>         0.0552
     75 H37         3.0104   -2.3071    1.2105 H         1 <0>         0.0569
     76 H38        -8.5591   -1.4106   -1.9301 H         1 <0>         0.4404
@<TRIPOS>BOND
     1    1    2 1
     2    1   40 1
     3    1   41 1
     4    1   42 1
     5    2    7 ar
     6    2    3 ar
     7    3    4 ar
     8    3   43 1
     9    4    5 ar
    10    4   44 1
    11    5    6 ar
    12    5   37 1
    13    6    7 ar
    14    6    8 1
    15    7   45 1
    16    8    9 1
    17    9   10 1
    18    9   46 1
    19    9   47 1
    20   10   11 1
    21   10   12 1
    22   10   36 1
    23   12   13 1
    24   12   48 1
    25   12   49 1
    26   13   18 1
    27   13   14 1
    28   14   15 1
    29   14   50 1
    30   14   51 1
    31   15   16 1
    32   15   52 1
    33   15   53 1
    34   16   17 1
    35   16   19 1
    36   16   76 1
    37   17   18 1
    38   17   54 1
    39   17   55 1
    40   18   56 1
    41   18   57 1
    42   19   20 1
    43   19   58 1
    44   19   59 1
    45   20   21 1
    46   20   60 1
    47   20   61 1
    48   21   34 am
    49   21   22 am
    50   22   23 2
    51   22   24 1
    52   24   29 ar
    53   24   25 ar
    54   25   26 ar
    55   25   62 1
    56   26   27 ar
    57   26   63 1
    58   27   28 ar
    59   27   64 1
    60   28   33 ar
    61   28   29 ar
    62   29   30 ar
    63   30   31 ar
    64   30   34 1
    65   31   32 ar
    66   31   65 1
    67   32   33 ar
    68   32   66 1
    69   33   67 1
    70   34   35 2
    71   36   68 1
    72   37   38 1
    73   37   39 1
    74   37   69 1
    75   38   70 1
    76   38   71 1
    77   38   72 1
    78   39   73 1
    79   39   74 1
    80   39   75 1
@<TRIPOS>MOLECULE
ZINC19901364
   75    79     0     0     0
SMALL
USER_CHARGES
2-[4-[(2S)-2-hydroxy-3-(2-isopropyl-5-methyl-phenoxy)propyl]piperazin-1-yl]ethylBLAHdione
@<TRIPOS>ATOM
      1 C1          1.1509    3.5958    0.0104 C.3       1 <0>        -0.1188
      2 C2          1.1706    2.0890    0.0021 C.ar      1 <0>        -0.0512
      3 C3          2.3774    1.4139   -0.0135 C.ar      1 <0>        -0.1565
      4 C4          2.3989    0.0317   -0.0207 C.ar      1 <0>        -0.0748
      5 C5          1.2139   -0.6788   -0.0132 C.ar      1 <0>        -0.1113
      6 C6          0.0021   -0.0041    0.0020 C.ar      1 <0>         0.1361
      7 C7         -0.0167    1.3833    0.0096 C.ar      1 <0>        -0.2101
      8 O1         -1.1648   -0.7006    0.0099 O.3       1 <0>        -0.3004
      9 C8         -2.3744    0.0601    0.0260 C.3       1 <0>         0.0669
     10 C9         -3.5740   -0.8895    0.0328 C.3       1 <0>         0.1254
     11 H1         -3.4997   -1.6318   -0.7756 H         1 <0>         0.0622
     12 C10        -4.8669   -0.0787   -0.0758 C.3       1 <0>         0.0258
     13 N1         -6.0187   -0.9904   -0.0692 N.3       1 <0>        -0.5368
     14 C11        -6.0334   -1.8290   -1.2759 C.3       1 <0>         0.0487
     15 C12        -7.1997   -2.8167   -1.1933 C.3       1 <0>         0.0522
     16 N2         -8.4596   -2.0726   -1.0573 N.3       1 <0>        -0.5335
     17 C13        -8.4449   -1.2339    0.1494 C.3       1 <0>         0.0582
     18 C14        -7.2787   -0.2463    0.0669 C.3       1 <0>         0.0591
     19 C15        -9.6114   -2.9843   -1.0507 C.3       1 <0>         0.0468
     20 C16        -9.7364   -3.6580   -2.4187 C.3       1 <0>         0.0966
     21 N3        -10.8851   -4.5672   -2.4122 N.am      1 <0>        -0.5590
     22 C17       -10.6952   -5.8490   -2.0459 C.2       1 <0>         0.5709
     23 O2         -9.5844   -6.2293   -1.7290 O.2       1 <0>        -0.4903
     24 C18       -11.8246   -6.7903   -2.0223 C.ar      1 <0>        -0.1623
     25 C19       -11.6750   -8.1175   -1.6478 C.ar      1 <0>        -0.0045
     26 C20       -12.7724   -8.9704   -1.6462 C.ar      1 <0>        -0.1389
     27 C21       -14.0157   -8.5373   -2.0081 C.ar      1 <0>        -0.0477
     28 C22       -14.2101   -7.1996   -2.3942 C.ar      1 <0>        -0.0765
     29 C23       -13.1042   -6.3241   -2.4000 C.ar      1 <0>         0.0080
     30 C24       -13.2669   -4.9736   -2.7842 C.ar      1 <0>        -0.1621
     31 C25       -14.5266   -4.5258   -3.1536 C.ar      1 <0>        -0.0045
     32 C26       -15.6086   -5.3982   -3.1433 C.ar      1 <0>        -0.1387
     33 C27       -15.4699   -6.7057   -2.7752 C.ar      1 <0>        -0.0480
     34 C28       -12.0906   -4.0916   -2.7780 C.2       1 <0>         0.5701
     35 O3        -12.2070   -2.9260   -3.1048 O.2       1 <0>        -0.4863
     36 O4         -3.5820   -1.6382    1.2500 O.3       1 <0>        -0.5836
     37 C29         1.2380   -2.1856   -0.0210 C.3       1 <0>        -0.0518
     38 C30         1.9551   -2.6777   -1.2798 C.3       1 <0>        -0.1433
     39 C31         1.9794   -2.6903    1.2186 C.3       1 <0>        -0.1431
     40 H2          2.1831    3.9760    0.0026 H         1 <0>         0.0678
     41 H3          0.6362    3.9508    0.9154 H         1 <0>         0.0704
     42 H4          0.6191    3.9604   -0.8808 H         1 <0>         0.0701
     43 H5          3.3047    1.9675   -0.0201 H         1 <0>         0.1224
     44 H6          3.3426   -0.4933   -0.0325 H         1 <0>         0.1275
     45 H7         -0.9590    1.9110    0.0170 H         1 <0>         0.1248
     46 H8         -2.3998    0.6894    0.9278 H         1 <0>         0.0710
     47 H9         -2.4176    0.6991   -0.8683 H         1 <0>         0.0744
     48 H10        -4.9401    0.6108    0.7782 H         1 <0>         0.0879
     49 H11        -4.8608    0.4975   -1.0128 H         1 <0>         0.0460
     50 H12        -6.1538   -1.1913   -2.1641 H         1 <0>         0.0470
     51 H13        -5.0863   -2.3837   -1.3485 H         1 <0>         0.0836
     52 H14        -7.2296   -3.4261   -2.1086 H         1 <0>         0.0837
     53 H15        -7.0639   -3.4723   -0.3205 H         1 <0>         0.0480
     54 H16        -9.3920   -0.6791    0.2219 H         1 <0>         0.0830
     55 H17        -8.3245   -1.8715    1.0377 H         1 <0>         0.0460
     56 H18        -7.2476    0.3631    0.9821 H         1 <0>         0.0836
     57 H19        -7.4134    0.4095   -0.8059 H         1 <0>         0.0465
     58 H20        -9.4672   -3.7517   -0.2759 H         1 <0>         0.0423
     59 H21       -10.5282   -2.4153   -0.8370 H         1 <0>         0.0812
     60 H22        -9.8806   -2.8906   -3.1935 H         1 <0>         0.1085
     61 H23        -8.8196   -4.2270   -2.6323 H         1 <0>         0.0997
     62 H24       -10.7036   -8.4888   -1.3565 H         1 <0>         0.1463
     63 H25       -12.6384  -10.0009   -1.3519 H         1 <0>         0.1406
     64 H26       -14.8503   -9.2227   -1.9973 H         1 <0>         0.1420
     65 H27       -14.6672   -3.4966   -3.4493 H         1 <0>         0.1466
     66 H28       -16.5826   -5.0331   -3.4339 H         1 <0>         0.1407
     67 H29       -16.3285   -7.3609   -2.7771 H         1 <0>         0.1420
     68 H30        -4.3754   -2.3770    1.4361 H         1 <0>         0.4132
     69 H31         0.2016   -2.5541   -0.0128 H         1 <0>         0.0861
     70 H32         1.9727   -3.7775   -1.2855 H         1 <0>         0.0579
     71 H33         2.9861   -2.2944   -1.2879 H         1 <0>         0.0552
     72 H34         1.4220   -2.3149   -2.1710 H         1 <0>         0.0539
     73 H35         1.9970   -3.7901    1.2128 H         1 <0>         0.0578
     74 H36         1.4638   -2.3365    2.1236 H         1 <0>         0.0552
     75 H37         3.0104   -2.3071    1.2105 H         1 <0>         0.0547
@<TRIPOS>BOND
     1    1    2 1
     2    1   40 1
     3    1   41 1
     4    1   42 1
     5    2    7 ar
     6    2    3 ar
     7    3    4 ar
     8    3   43 1
     9    4    5 ar
    10    4   44 1
    11    5    6 ar
    12    5   37 1
    13    6    7 ar
    14    6    8 1
    15    7   45 1
    16    8    9 1
    17    9   10 1
    18    9   46 1
    19    9   47 1
    20   10   11 1
    21   10   12 1
    22   10   36 1
    23   12   13 1
    24   12   48 1
    25   12   49 1
    26   13   18 1
    27   13   14 1
    28   14   15 1
    29   14   50 1
    30   14   51 1
    31   15   16 1
    32   15   52 1
    33   15   53 1
    34   16   17 1
    35   16   19 1
    36   17   18 1
    37   17   54 1
    38   17   55 1
    39   18   56 1
    40   18   57 1
    41   19   20 1
    42   19   58 1
    43   19   59 1
    44   20   21 1
    45   20   60 1
    46   20   61 1
    47   21   34 am
    48   21   22 am
    49   22   23 2
    50   22   24 1
    51   24   29 ar
    52   24   25 ar
    53   25   26 ar
    54   25   62 1
    55   26   27 ar
    56   26   63 1
    57   27   28 ar
    58   27   64 1
    59   28   33 ar
    60   28   29 ar
    61   29   30 ar
    62   30   31 ar
    63   30   34 1
    64   31   32 ar
    65   31   65 1
    66   32   33 ar
    67   32   66 1
    68   33   67 1
    69   34   35 2
    70   36   68 1
    71   37   38 1
    72   37   39 1
    73   37   69 1
    74   38   70 1
    75   38   71 1
    76   38   72 1
    77   39   73 1
    78   39   74 1
    79   39   75 1
@<TRIPOS>MOLECULE
ZINC19901364
   76    80     0     0     0
SMALL
USER_CHARGES
2-[4-[(2S)-2-hydroxy-3-(2-isopropyl-5-methyl-phenoxy)propyl]piperazin-1-yl]ethylBLAHdione
@<TRIPOS>ATOM
      1 C1          1.1509    3.5958    0.0104 C.3       1 <0>        -0.1218
      2 C2          1.1706    2.0890    0.0021 C.ar      1 <0>        -0.0492
      3 C3          2.3774    1.4139   -0.0135 C.ar      1 <0>        -0.1459
      4 C4          2.3989    0.0317   -0.0207 C.ar      1 <0>        -0.0726
      5 C5          1.2139   -0.6788   -0.0132 C.ar      1 <0>        -0.1048
      6 C6          0.0021   -0.0041    0.0020 C.ar      1 <0>         0.1250
      7 C7         -0.0167    1.3833    0.0096 C.ar      1 <0>        -0.2079
      8 O1         -1.1648   -0.7006    0.0099 O.3       1 <0>        -0.3005
      9 C8         -2.3744    0.0601    0.0260 C.3       1 <0>         0.0658
     10 C9         -3.5740   -0.8895    0.0328 C.3       1 <0>         0.0965
     11 H1         -3.4997   -1.6318   -0.7756 H         1 <0>         0.0914
     12 C10        -4.8669   -0.0787   -0.0758 C.3       1 <0>        -0.0391
     13 N1         -6.0187   -0.9904   -0.0692 N.4       1 <0>        -0.3984
     14 C11        -6.0334   -1.8290   -1.2759 C.3       1 <0>        -0.0088
     15 C12        -7.1997   -2.8167   -1.1933 C.3       1 <0>         0.0188
     16 N2         -8.4596   -2.0726   -1.0573 N.3       1 <0>        -0.5328
     17 C13        -8.4449   -1.2339    0.1494 C.3       1 <0>         0.0259
     18 C14        -7.2787   -0.2463    0.0669 C.3       1 <0>         0.0031
     19 C15        -9.6114   -2.9843   -1.0507 C.3       1 <0>         0.0435
     20 C16        -9.7364   -3.6580   -2.4187 C.3       1 <0>         0.0956
     21 N3        -10.8851   -4.5672   -2.4122 N.am      1 <0>        -0.5613
     22 C17       -10.6952   -5.8490   -2.0459 C.2       1 <0>         0.5766
     23 O2         -9.5844   -6.2293   -1.7290 O.2       1 <0>        -0.4982
     24 C18       -11.8246   -6.7903   -2.0223 C.ar      1 <0>        -0.1729
     25 C19       -11.6750   -8.1175   -1.6478 C.ar      1 <0>         0.0024
     26 C20       -12.7724   -8.9704   -1.6462 C.ar      1 <0>        -0.1421
     27 C21       -14.0157   -8.5373   -2.0081 C.ar      1 <0>        -0.0389
     28 C22       -14.2101   -7.1996   -2.3942 C.ar      1 <0>        -0.0789
     29 C23       -13.1042   -6.3241   -2.4000 C.ar      1 <0>         0.0111
     30 C24       -13.2669   -4.9736   -2.7842 C.ar      1 <0>        -0.1721
     31 C25       -14.5266   -4.5258   -3.1536 C.ar      1 <0>         0.0030
     32 C26       -15.6086   -5.3982   -3.1433 C.ar      1 <0>        -0.1408
     33 C27       -15.4699   -6.7057   -2.7752 C.ar      1 <0>        -0.0400
     34 C28       -12.0906   -4.0916   -2.7780 C.2       1 <0>         0.5738
     35 O3        -12.2070   -2.9260   -3.1048 O.2       1 <0>        -0.4882
     36 O4         -3.5820   -1.6382    1.2500 O.3       1 <0>        -0.5643
     37 C29         1.2380   -2.1856   -0.0210 C.3       1 <0>        -0.0492
     38 C30         1.9551   -2.6777   -1.2798 C.3       1 <0>        -0.1463
     39 C31         1.9794   -2.6903    1.2186 C.3       1 <0>        -0.1462
     40 H2          2.1831    3.9760    0.0026 H         1 <0>         0.0718
     41 H3          0.6362    3.9508    0.9154 H         1 <0>         0.0718
     42 H4          0.6191    3.9604   -0.8808 H         1 <0>         0.0716
     43 H5          3.3047    1.9675   -0.0201 H         1 <0>         0.1275
     44 H6          3.3426   -0.4933   -0.0325 H         1 <0>         0.1322
     45 H7         -0.9590    1.9110    0.0170 H         1 <0>         0.1230
     46 H8         -2.3998    0.6894    0.9278 H         1 <0>         0.0810
     47 H9         -2.4176    0.6991   -0.8683 H         1 <0>         0.0875
     48 H10        -4.9401    0.6108    0.7782 H         1 <0>         0.1455
     49 H11        -4.8608    0.4975   -1.0128 H         1 <0>         0.1436
     50 H12        -6.1538   -1.1913   -2.1641 H         1 <0>         0.1418
     51 H13        -5.0863   -2.3837   -1.3485 H         1 <0>         0.1373
     52 H14        -7.2296   -3.4261   -2.1086 H         1 <0>         0.1283
     53 H15        -7.0639   -3.4723   -0.3205 H         1 <0>         0.0664
     54 H16        -9.3920   -0.6791    0.2219 H         1 <0>         0.1277
     55 H17        -8.3245   -1.8715    1.0377 H         1 <0>         0.0637
     56 H18        -7.2476    0.3631    0.9821 H         1 <0>         0.1396
     57 H19        -7.4134    0.4095   -0.8059 H         1 <0>         0.1399
     58 H20        -9.4672   -3.7517   -0.2759 H         1 <0>         0.0548
     59 H21       -10.5282   -2.4153   -0.8370 H         1 <0>         0.0957
     60 H22        -9.8806   -2.8906   -3.1935 H         1 <0>         0.1123
     61 H23        -8.8196   -4.2270   -2.6323 H         1 <0>         0.0989
     62 H24       -10.7036   -8.4888   -1.3565 H         1 <0>         0.1461
     63 H25       -12.6384  -10.0009   -1.3519 H         1 <0>         0.1430
     64 H26       -14.8503   -9.2227   -1.9973 H         1 <0>         0.1450
     65 H27       -14.6672   -3.4966   -3.4493 H         1 <0>         0.1473
     66 H28       -16.5826   -5.0331   -3.4339 H         1 <0>         0.1434
     67 H29       -16.3285   -7.3609   -2.7771 H         1 <0>         0.1450
     68 H30        -4.3754   -2.3770    1.4361 H         1 <0>         0.4002
     69 H31         0.2016   -2.5541   -0.0128 H         1 <0>         0.0814
     70 H32         1.9727   -3.7775   -1.2855 H         1 <0>         0.0602
     71 H33         2.9861   -2.2944   -1.2879 H         1 <0>         0.0586
     72 H34         1.4220   -2.3149   -2.1710 H         1 <0>         0.0537
     73 H35         1.9970   -3.7901    1.2128 H         1 <0>         0.0602
     74 H36         1.4638   -2.3365    2.1236 H         1 <0>         0.0547
     75 H37         3.0104   -2.3071    1.2105 H         1 <0>         0.0582
     76 H38        -5.9191   -1.6525    0.8036 H         1 <0>         0.4293
@<TRIPOS>BOND
     1    1    2 1
     2    1   40 1
     3    1   41 1
     4    1   42 1
     5    2    7 ar
     6    2    3 ar
     7    3    4 ar
     8    3   43 1
     9    4    5 ar
    10    4   44 1
    11    5    6 ar
    12    5   37 1
    13    6    7 ar
    14    6    8 1
    15    7   45 1
    16    8    9 1
    17    9   10 1
    18    9   46 1
    19    9   47 1
    20   10   11 1
    21   10   12 1
    22   10   36 1
    23   12   13 1
    24   12   48 1
    25   12   49 1
    26   13   18 1
    27   13   14 1
    28   13   76 1
    29   14   15 1
    30   14   50 1
    31   14   51 1
    32   15   16 1
    33   15   52 1
    34   15   53 1
    35   16   17 1
    36   16   19 1
    37   17   18 1
    38   17   54 1
    39   17   55 1
    40   18   56 1
    41   18   57 1
    42   19   20 1
    43   19   58 1
    44   19   59 1
    45   20   21 1
    46   20   60 1
    47   20   61 1
    48   21   34 am
    49   21   22 am
    50   22   23 2
    51   22   24 1
    52   24   29 ar
    53   24   25 ar
    54   25   26 ar
    55   25   62 1
    56   26   27 ar
    57   26   63 1
    58   27   28 ar
    59   27   64 1
    60   28   33 ar
    61   28   29 ar
    62   29   30 ar
    63   30   31 ar
    64   30   34 1
    65   31   32 ar
    66   31   65 1
    67   32   33 ar
    68   32   66 1
    69   33   67 1
    70   34   35 2
    71   36   68 1
    72   37   38 1
    73   37   39 1
    74   37   69 1
    75   38   70 1
    76   38   71 1
    77   38   72 1
    78   39   73 1
    79   39   74 1
    80   39   75 1
@<TRIPOS>MOLECULE
ZINC19901366
   76    80     0     0     0
SMALL
USER_CHARGES
2-[4-[(2R)-2-hydroxy-3-(2-isopropyl-5-methyl-phenoxy)propyl]piperazin-1-yl]ethylBLAHdione
@<TRIPOS>ATOM
      1 C1          4.0678   -2.5971    0.2997 C.3       1 <0>        -0.1204
      2 C2          4.0579   -1.7760    1.5633 C.ar      1 <0>        -0.0501
      3 C3          4.4070   -2.3580    2.7682 C.ar      1 <0>        -0.1511
      4 C4          4.3986   -1.6075    3.9292 C.ar      1 <0>        -0.0735
      5 C5          4.0475   -0.2718    3.8872 C.ar      1 <0>        -0.1089
      6 C6          3.6918    0.3130    2.6807 C.ar      1 <0>         0.1304
      7 C7          3.7007   -0.4426    1.5170 C.ar      1 <0>        -0.2095
      8 O1          3.3406    1.6251    2.6377 O.3       1 <0>        -0.3011
      9 C8          2.9920    2.1618    1.3601 C.3       1 <0>         0.0638
     10 C9          2.6285    3.6405    1.5100 C.3       1 <0>         0.1274
     11 H1          3.4128    4.1914    2.0498 H         1 <0>         0.0625
     12 C10         2.3763    4.2463    0.1279 C.3       1 <0>         0.0229
     13 N1          2.0396    5.6691    0.2710 N.3       1 <0>        -0.5384
     14 C11         1.3510    6.1703   -0.9266 C.3       1 <0>         0.0287
     15 C12         0.9478    7.6302   -0.7065 C.3       1 <0>        -0.0102
     16 N2          2.1474    8.4290   -0.4192 N.4       1 <0>        -0.3956
     17 C13         2.8359    7.9278    0.7784 C.3       1 <0>         0.0025
     18 C14         3.2392    6.4679    0.5583 C.3       1 <0>         0.0191
     19 C15         1.8107    9.8517   -0.2761 C.3       1 <0>        -0.0196
     20 C16         0.8851   10.2742   -1.4188 C.3       1 <0>         0.0680
     21 N3          0.5493   11.6930   -1.2762 N.am      1 <0>        -0.5595
     22 C17        -0.5416   12.0326   -0.5634 C.2       1 <0>         0.5778
     23 O2         -1.2251   11.1654   -0.0538 O.2       1 <0>        -0.4911
     24 C18        -0.9082   13.4464   -0.3940 C.ar      1 <0>        -0.1795
     25 C19        -2.0204   13.8410    0.3349 C.ar      1 <0>         0.0105
     26 C20        -2.3287   15.1902    0.4625 C.ar      1 <0>        -0.1432
     27 C21        -1.5592   16.1580   -0.1168 C.ar      1 <0>        -0.0321
     28 C22        -0.4234   15.8003   -0.8640 C.ar      1 <0>        -0.0811
     29 C23        -0.0998   14.4342   -1.0009 C.ar      1 <0>         0.0148
     30 C24         1.0352   14.0424   -1.7465 C.ar      1 <0>        -0.1796
     31 C25         1.8220   15.0192   -2.3387 C.ar      1 <0>         0.0103
     32 C26         1.4929   16.3621   -2.1960 C.ar      1 <0>        -0.1433
     33 C27         0.4004   16.7588   -1.4795 C.ar      1 <0>        -0.0321
     34 C28         1.3398   12.6090   -1.8672 C.2       1 <0>         0.5776
     35 O3          2.3113   12.2487   -2.5039 O.2       1 <0>        -0.4922
     36 O4          1.4481    3.7625    2.3062 O.3       1 <0>        -0.5763
     37 C29         4.0449    0.5474    5.1521 C.3       1 <0>        -0.0497
     38 C30         3.0655   -0.0659    6.1549 C.3       1 <0>        -0.1451
     39 C31         5.4512    0.5594    5.7547 C.3       1 <0>        -0.1447
     40 H2          4.3759   -3.6268    0.5339 H         1 <0>         0.0703
     41 H3          4.7756   -2.1569   -0.4181 H         1 <0>         0.0703
     42 H4          3.0591   -2.6070   -0.1390 H         1 <0>         0.0710
     43 H5          4.6864   -3.4007    2.8023 H         1 <0>         0.1253
     44 H6          4.6713   -2.0644    4.8690 H         1 <0>         0.1300
     45 H7          3.4288    0.0117    0.5756 H         1 <0>         0.1230
     46 H8          3.8467    2.0620    0.6749 H         1 <0>         0.0752
     47 H9          2.1303    1.6117    0.9540 H         1 <0>         0.0726
     48 H10         3.2819    4.1439   -0.4881 H         1 <0>         0.0609
     49 H11         1.5415    3.7189   -0.3569 H         1 <0>         0.1002
     50 H12         2.0254    6.1017   -1.7929 H         1 <0>         0.0644
     51 H13         0.4519    5.5647   -1.1130 H         1 <0>         0.1274
     52 H14         0.4576    8.0158   -1.6126 H         1 <0>         0.1389
     53 H15         0.2514    7.6943    0.1426 H         1 <0>         0.1421
     54 H16         3.7350    8.5335    0.9649 H         1 <0>         0.1384
     55 H17         2.1615    7.9963    1.6447 H         1 <0>         0.1379
     56 H18         3.7289    6.0812    1.4642 H         1 <0>         0.1258
     57 H19         3.9352    6.4028   -0.2910 H         1 <0>         0.0659
     58 H20         1.3027   10.0133    0.6861 H         1 <0>         0.1346
     59 H21         2.7320   10.4517   -0.3096 H         1 <0>         0.1379
     60 H22         1.3931   10.1126   -2.3810 H         1 <0>         0.1207
     61 H23        -0.0363    9.6742   -1.3853 H         1 <0>         0.1227
     62 H24        -2.6480   13.0981    0.8046 H         1 <0>         0.1483
     63 H25        -3.1984   15.4802    1.0336 H         1 <0>         0.1456
     64 H26        -1.8231   17.1988   -0.0008 H         1 <0>         0.1473
     65 H27         2.6927   14.7358   -2.9113 H         1 <0>         0.1480
     66 H28         2.1163   17.1099   -2.6636 H         1 <0>         0.1455
     67 H29         0.1688   17.8095   -1.3859 H         1 <0>         0.1473
     68 H30         1.0319    4.7572    2.5240 H         1 <0>         0.4088
     69 H31         3.7346    1.5737    4.9061 H         1 <0>         0.0832
     70 H32         3.0636    0.5321    7.0782 H         1 <0>         0.0588
     71 H33         3.3743   -1.0961    6.3859 H         1 <0>         0.0569
     72 H34         2.0545   -0.0746    5.7216 H         1 <0>         0.0552
     73 H35         5.4494    1.1573    6.6780 H         1 <0>         0.0588
     74 H36         6.1553    1.0003    5.0337 H         1 <0>         0.0530
     75 H37         5.7599   -0.4708    5.9856 H         1 <0>         0.0574
     76 H38         2.8343    8.3296   -1.2726 H         1 <0>         0.4421
@<TRIPOS>BOND
     1    1    2 1
     2    1   40 1
     3    1   41 1
     4    1   42 1
     5    2    7 ar
     6    2    3 ar
     7    3    4 ar
     8    3   43 1
     9    4    5 ar
    10    4   44 1
    11    5    6 ar
    12    5   37 1
    13    6    7 ar
    14    6    8 1
    15    7   45 1
    16    8    9 1
    17    9   10 1
    18    9   46 1
    19    9   47 1
    20   10   11 1
    21   10   12 1
    22   10   36 1
    23   12   13 1
    24   12   48 1
    25   12   49 1
    26   13   18 1
    27   13   14 1
    28   14   15 1
    29   14   50 1
    30   14   51 1
    31   15   16 1
    32   15   52 1
    33   15   53 1
    34   16   17 1
    35   16   19 1
    36   16   76 1
    37   17   18 1
    38   17   54 1
    39   17   55 1
    40   18   56 1
    41   18   57 1
    42   19   20 1
    43   19   58 1
    44   19   59 1
    45   20   21 1
    46   20   60 1
    47   20   61 1
    48   21   34 am
    49   21   22 am
    50   22   23 2
    51   22   24 1
    52   24   29 ar
    53   24   25 ar
    54   25   26 ar
    55   25   62 1
    56   26   27 ar
    57   26   63 1
    58   27   28 ar
    59   27   64 1
    60   28   33 ar
    61   28   29 ar
    62   29   30 ar
    63   30   31 ar
    64   30   34 1
    65   31   32 ar
    66   31   65 1
    67   32   33 ar
    68   32   66 1
    69   33   67 1
    70   34   35 2
    71   36   68 1
    72   37   38 1
    73   37   39 1
    74   37   69 1
    75   38   70 1
    76   38   71 1
    77   38   72 1
    78   39   73 1
    79   39   74 1
    80   39   75 1
@<TRIPOS>MOLECULE
ZINC19901366
   75    79     0     0     0
SMALL
USER_CHARGES
2-[4-[(2R)-2-hydroxy-3-(2-isopropyl-5-methyl-phenoxy)propyl]piperazin-1-yl]ethylBLAHdione
@<TRIPOS>ATOM
      1 C1          4.0678   -2.5971    0.2997 C.3       1 <0>        -0.1188
      2 C2          4.0579   -1.7760    1.5633 C.ar      1 <0>        -0.0511
      3 C3          4.4070   -2.3580    2.7682 C.ar      1 <0>        -0.1566
      4 C4          4.3986   -1.6075    3.9292 C.ar      1 <0>        -0.0748
      5 C5          4.0475   -0.2718    3.8872 C.ar      1 <0>        -0.1115
      6 C6          3.6918    0.3130    2.6807 C.ar      1 <0>         0.1362
      7 C7          3.7007   -0.4426    1.5170 C.ar      1 <0>        -0.2102
      8 O1          3.3406    1.6251    2.6377 O.3       1 <0>        -0.3003
      9 C8          2.9920    2.1618    1.3601 C.3       1 <0>         0.0666
     10 C9          2.6285    3.6405    1.5100 C.3       1 <0>         0.1282
     11 H1          3.4128    4.1914    2.0498 H         1 <0>         0.0608
     12 C10         2.3763    4.2463    0.1279 C.3       1 <0>         0.0251
     13 N1          2.0396    5.6691    0.2710 N.3       1 <0>        -0.5374
     14 C11         1.3510    6.1703   -0.9266 C.3       1 <0>         0.0585
     15 C12         0.9478    7.6302   -0.7065 C.3       1 <0>         0.0466
     16 N2          2.1474    8.4290   -0.4192 N.3       1 <0>        -0.5319
     17 C13         2.8359    7.9278    0.7784 C.3       1 <0>         0.0578
     18 C14         3.2392    6.4679    0.5583 C.3       1 <0>         0.0521
     19 C15         1.8107    9.8517   -0.2761 C.3       1 <0>         0.0466
     20 C16         0.8851   10.2742   -1.4188 C.3       1 <0>         0.0902
     21 N3          0.5493   11.6930   -1.2762 N.am      1 <0>        -0.5589
     22 C17        -0.5416   12.0326   -0.5634 C.2       1 <0>         0.5710
     23 O2         -1.2251   11.1654   -0.0538 O.2       1 <0>        -0.4904
     24 C18        -0.9082   13.4464   -0.3940 C.ar      1 <0>        -0.1624
     25 C19        -2.0204   13.8410    0.3349 C.ar      1 <0>        -0.0043
     26 C20        -2.3287   15.1902    0.4625 C.ar      1 <0>        -0.1390
     27 C21        -1.5592   16.1580   -0.1168 C.ar      1 <0>        -0.0475
     28 C22        -0.4234   15.8003   -0.8640 C.ar      1 <0>        -0.0765
     29 C23        -0.0998   14.4342   -1.0009 C.ar      1 <0>         0.0081
     30 C24         1.0352   14.0424   -1.7465 C.ar      1 <0>        -0.1621
     31 C25         1.8220   15.0192   -2.3387 C.ar      1 <0>        -0.0043
     32 C26         1.4929   16.3621   -2.1960 C.ar      1 <0>        -0.1387
     33 C27         0.4004   16.7588   -1.4795 C.ar      1 <0>        -0.0479
     34 C28         1.3398   12.6090   -1.8672 C.2       1 <0>         0.5699
     35 O3          2.3113   12.2487   -2.5039 O.2       1 <0>        -0.4858
     36 O4          1.4481    3.7625    2.3062 O.3       1 <0>        -0.5844
     37 C29         4.0449    0.5474    5.1521 C.3       1 <0>        -0.0518
     38 C30         3.0655   -0.0659    6.1549 C.3       1 <0>        -0.1432
     39 C31         5.4512    0.5594    5.7547 C.3       1 <0>        -0.1432
     40 H2          4.3759   -3.6268    0.5339 H         1 <0>         0.0678
     41 H3          4.7756   -2.1569   -0.4181 H         1 <0>         0.0701
     42 H4          3.0591   -2.6070   -0.1390 H         1 <0>         0.0704
     43 H5          4.6864   -3.4007    2.8023 H         1 <0>         0.1224
     44 H6          4.6713   -2.0644    4.8690 H         1 <0>         0.1275
     45 H7          3.4288    0.0117    0.5756 H         1 <0>         0.1248
     46 H8          3.8467    2.0620    0.6749 H         1 <0>         0.0742
     47 H9          2.1303    1.6117    0.9540 H         1 <0>         0.0706
     48 H10         3.2819    4.1439   -0.4881 H         1 <0>         0.0481
     49 H11         1.5415    3.7189   -0.3569 H         1 <0>         0.0865
     50 H12         2.0254    6.1017   -1.7929 H         1 <0>         0.0460
     51 H13         0.4519    5.5647   -1.1130 H         1 <0>         0.0838
     52 H14         0.4576    8.0158   -1.6126 H         1 <0>         0.0853
     53 H15         0.2514    7.6943    0.1426 H         1 <0>         0.0498
     54 H16         3.7350    8.5335    0.9649 H         1 <0>         0.0823
     55 H17         2.1615    7.9963    1.6447 H         1 <0>         0.0464
     56 H18         3.7289    6.0812    1.4642 H         1 <0>         0.0825
     57 H19         3.9352    6.4028   -0.2910 H         1 <0>         0.0474
     58 H20         1.3027   10.0133    0.6861 H         1 <0>         0.0424
     59 H21         2.7320   10.4517   -0.3096 H         1 <0>         0.0828
     60 H22         1.3931   10.1126   -2.3810 H         1 <0>         0.1087
     61 H23        -0.0363    9.6742   -1.3853 H         1 <0>         0.1028
     62 H24        -2.6480   13.0981    0.8046 H         1 <0>         0.1463
     63 H25        -3.1984   15.4802    1.0336 H         1 <0>         0.1407
     64 H26        -1.8231   17.1988   -0.0008 H         1 <0>         0.1421
     65 H27         2.6927   14.7358   -2.9113 H         1 <0>         0.1467
     66 H28         2.1163   17.1099   -2.6636 H         1 <0>         0.1407
     67 H29         0.1688   17.8095   -1.3859 H         1 <0>         0.1420
     68 H30         1.0319    4.7572    2.5240 H         1 <0>         0.4135
     69 H31         3.7346    1.5737    4.9061 H         1 <0>         0.0861
     70 H32         3.0636    0.5321    7.0782 H         1 <0>         0.0577
     71 H33         3.3743   -1.0961    6.3859 H         1 <0>         0.0547
     72 H34         2.0545   -0.0746    5.7216 H         1 <0>         0.0553
     73 H35         5.4494    1.1573    6.6780 H         1 <0>         0.0578
     74 H36         6.1553    1.0003    5.0337 H         1 <0>         0.0538
     75 H37         5.7599   -0.4708    5.9856 H         1 <0>         0.0552
@<TRIPOS>BOND
     1    1    2 1
     2    1   40 1
     3    1   41 1
     4    1   42 1
     5    2    7 ar
     6    2    3 ar
     7    3    4 ar
     8    3   43 1
     9    4    5 ar
    10    4   44 1
    11    5    6 ar
    12    5   37 1
    13    6    7 ar
    14    6    8 1
    15    7   45 1
    16    8    9 1
    17    9   10 1
    18    9   46 1
    19    9   47 1
    20   10   11 1
    21   10   12 1
    22   10   36 1
    23   12   13 1
    24   12   48 1
    25   12   49 1
    26   13   18 1
    27   13   14 1
    28   14   15 1
    29   14   50 1
    30   14   51 1
    31   15   16 1
    32   15   52 1
    33   15   53 1
    34   16   17 1
    35   16   19 1
    36   17   18 1
    37   17   54 1
    38   17   55 1
    39   18   56 1
    40   18   57 1
    41   19   20 1
    42   19   58 1
    43   19   59 1
    44   20   21 1
    45   20   60 1
    46   20   61 1
    47   21   34 am
    48   21   22 am
    49   22   23 2
    50   22   24 1
    51   24   29 ar
    52   24   25 ar
    53   25   26 ar
    54   25   62 1
    55   26   27 ar
    56   26   63 1
    57   27   28 ar
    58   27   64 1
    59   28   33 ar
    60   28   29 ar
    61   29   30 ar
    62   30   31 ar
    63   30   34 1
    64   31   32 ar
    65   31   65 1
    66   32   33 ar
    67   32   66 1
    68   33   67 1
    69   34   35 2
    70   36   68 1
    71   37   38 1
    72   37   39 1
    73   37   69 1
    74   38   70 1
    75   38   71 1
    76   38   72 1
    77   39   73 1
    78   39   74 1
    79   39   75 1
@<TRIPOS>MOLECULE
ZINC19901366
   76    80     0     0     0
SMALL
USER_CHARGES
2-[4-[(2R)-2-hydroxy-3-(2-isopropyl-5-methyl-phenoxy)propyl]piperazin-1-yl]ethylBLAHdione
@<TRIPOS>ATOM
      1 C1          4.0678   -2.5971    0.2997 C.3       1 <0>        -0.1219
      2 C2          4.0579   -1.7760    1.5633 C.ar      1 <0>        -0.0490
      3 C3          4.4070   -2.3580    2.7682 C.ar      1 <0>        -0.1459
      4 C4          4.3986   -1.6075    3.9292 C.ar      1 <0>        -0.0726
      5 C5          4.0475   -0.2718    3.8872 C.ar      1 <0>        -0.1049
      6 C6          3.6918    0.3130    2.6807 C.ar      1 <0>         0.1250
      7 C7          3.7007   -0.4426    1.5170 C.ar      1 <0>        -0.2079
      8 O1          3.3406    1.6251    2.6377 O.3       1 <0>        -0.3006
      9 C8          2.9920    2.1618    1.3601 C.3       1 <0>         0.0658
     10 C9          2.6285    3.6405    1.5100 C.3       1 <0>         0.0971
     11 H1          3.4128    4.1914    2.0498 H         1 <0>         0.0906
     12 C10         2.3763    4.2463    0.1279 C.3       1 <0>        -0.0402
     13 N1          2.0396    5.6691    0.2710 N.4       1 <0>        -0.3975
     14 C11         1.3510    6.1703   -0.9266 C.3       1 <0>         0.0022
     15 C12         0.9478    7.6302   -0.7065 C.3       1 <0>         0.0117
     16 N2          2.1474    8.4290   -0.4192 N.3       1 <0>        -0.5307
     17 C13         2.8359    7.9278    0.7784 C.3       1 <0>         0.0260
     18 C14         3.2392    6.4679    0.5583 C.3       1 <0>        -0.0054
     19 C15         1.8107    9.8517   -0.2761 C.3       1 <0>         0.0430
     20 C16         0.8851   10.2742   -1.4188 C.3       1 <0>         0.0884
     21 N3          0.5493   11.6930   -1.2762 N.am      1 <0>        -0.5609
     22 C17        -0.5416   12.0326   -0.5634 C.2       1 <0>         0.5772
     23 O2         -1.2251   11.1654   -0.0538 O.2       1 <0>        -0.4991
     24 C18        -0.9082   13.4464   -0.3940 C.ar      1 <0>        -0.1732
     25 C19        -2.0204   13.8410    0.3349 C.ar      1 <0>         0.0028
     26 C20        -2.3287   15.1902    0.4625 C.ar      1 <0>        -0.1423
     27 C21        -1.5592   16.1580   -0.1168 C.ar      1 <0>        -0.0384
     28 C22        -0.4234   15.8003   -0.8640 C.ar      1 <0>        -0.0790
     29 C23        -0.0998   14.4342   -1.0009 C.ar      1 <0>         0.0114
     30 C24         1.0352   14.0424   -1.7465 C.ar      1 <0>        -0.1722
     31 C25         1.8220   15.0192   -2.3387 C.ar      1 <0>         0.0035
     32 C26         1.4929   16.3621   -2.1960 C.ar      1 <0>        -0.1407
     33 C27         0.4004   16.7588   -1.4795 C.ar      1 <0>        -0.0398
     34 C28         1.3398   12.6090   -1.8672 C.2       1 <0>         0.5736
     35 O3          2.3113   12.2487   -2.5039 O.2       1 <0>        -0.4872
     36 O4          1.4481    3.7625    2.3062 O.3       1 <0>        -0.5630
     37 C29         4.0449    0.5474    5.1521 C.3       1 <0>        -0.0491
     38 C30         3.0655   -0.0659    6.1549 C.3       1 <0>        -0.1463
     39 C31         5.4512    0.5594    5.7547 C.3       1 <0>        -0.1462
     40 H2          4.3759   -3.6268    0.5339 H         1 <0>         0.0718
     41 H3          4.7756   -2.1569   -0.4181 H         1 <0>         0.0717
     42 H4          3.0591   -2.6070   -0.1390 H         1 <0>         0.0718
     43 H5          4.6864   -3.4007    2.8023 H         1 <0>         0.1276
     44 H6          4.6713   -2.0644    4.8690 H         1 <0>         0.1322
     45 H7          3.4288    0.0117    0.5756 H         1 <0>         0.1231
     46 H8          3.8467    2.0620    0.6749 H         1 <0>         0.0877
     47 H9          2.1303    1.6117    0.9540 H         1 <0>         0.0813
     48 H10         3.2819    4.1439   -0.4881 H         1 <0>         0.1442
     49 H11         1.5415    3.7189   -0.3569 H         1 <0>         0.1457
     50 H12         2.0254    6.1017   -1.7929 H         1 <0>         0.1401
     51 H13         0.4519    5.5647   -1.1130 H         1 <0>         0.1400
     52 H14         0.4576    8.0158   -1.6126 H         1 <0>         0.1299
     53 H15         0.2514    7.6943    0.1426 H         1 <0>         0.0680
     54 H16         3.7350    8.5335    0.9649 H         1 <0>         0.1274
     55 H17         2.1615    7.9963    1.6447 H         1 <0>         0.0640
     56 H18         3.7289    6.0812    1.4642 H         1 <0>         0.1370
     57 H19         3.9352    6.4028   -0.2910 H         1 <0>         0.1418
     58 H20         1.3027   10.0133    0.6861 H         1 <0>         0.0551
     59 H21         2.7320   10.4517   -0.3096 H         1 <0>         0.0984
     60 H22         1.3931   10.1126   -2.3810 H         1 <0>         0.1126
     61 H23        -0.0363    9.6742   -1.3853 H         1 <0>         0.1009
     62 H24        -2.6480   13.0981    0.8046 H         1 <0>         0.1460
     63 H25        -3.1984   15.4802    1.0336 H         1 <0>         0.1431
     64 H26        -1.8231   17.1988   -0.0008 H         1 <0>         0.1452
     65 H27         2.6927   14.7358   -2.9113 H         1 <0>         0.1475
     66 H28         2.1163   17.1099   -2.6636 H         1 <0>         0.1436
     67 H29         0.1688   17.8095   -1.3859 H         1 <0>         0.1452
     68 H30         1.0319    4.7572    2.5240 H         1 <0>         0.3999
     69 H31         3.7346    1.5737    4.9061 H         1 <0>         0.0813
     70 H32         3.0636    0.5321    7.0782 H         1 <0>         0.0601
     71 H33         3.3743   -1.0961    6.3859 H         1 <0>         0.0583
     72 H34         2.0545   -0.0746    5.7216 H         1 <0>         0.0548
     73 H35         5.4494    1.1573    6.6780 H         1 <0>         0.0602
     74 H36         6.1553    1.0003    5.0337 H         1 <0>         0.0536
     75 H37         5.7599   -0.4708    5.9856 H         1 <0>         0.0587
     76 H38         1.3528    5.7686    1.1245 H         1 <0>         0.4260
@<TRIPOS>BOND
     1    1    2 1
     2    1   40 1
     3    1   41 1
     4    1   42 1
     5    2    7 ar
     6    2    3 ar
     7    3    4 ar
     8    3   43 1
     9    4    5 ar
    10    4   44 1
    11    5    6 ar
    12    5   37 1
    13    6    7 ar
    14    6    8 1
    15    7   45 1
    16    8    9 1
    17    9   10 1
    18    9   46 1
    19    9   47 1
    20   10   11 1
    21   10   12 1
    22   10   36 1
    23   12   13 1
    24   12   48 1
    25   12   49 1
    26   13   18 1
    27   13   14 1
    28   13   76 1
    29   14   15 1
    30   14   50 1
    31   14   51 1
    32   15   16 1
    33   15   52 1
    34   15   53 1
    35   16   17 1
    36   16   19 1
    37   17   18 1
    38   17   54 1
    39   17   55 1
    40   18   56 1
    41   18   57 1
    42   19   20 1
    43   19   58 1
    44   19   59 1
    45   20   21 1
    46   20   60 1
    47   20   61 1
    48   21   34 am
    49   21   22 am
    50   22   23 2
    51   22   24 1
    52   24   29 ar
    53   24   25 ar
    54   25   26 ar
    55   25   62 1
    56   26   27 ar
    57   26   63 1
    58   27   28 ar
    59   27   64 1
    60   28   33 ar
    61   28   29 ar
    62   29   30 ar
    63   30   31 ar
    64   30   34 1
    65   31   32 ar
    66   31   65 1
    67   32   33 ar
    68   32   66 1
    69   33   67 1
    70   34   35 2
    71   36   68 1
    72   37   38 1
    73   37   39 1
    74   37   69 1
    75   38   70 1
    76   38   71 1
    77   38   72 1
    78   39   73 1
    79   39   74 1
    80   39   75 1
@<TRIPOS>MOLECULE
ZINC09781790
   69    73     0     0     0
SMALL
USER_CHARGES
[1-[3-(2-allylphenoxy)-2-hydroxy-propyl]-4-piperidyl]methylBLAHdione
@<TRIPOS>ATOM
      1 C1         -7.4778    8.1817   -4.7385 C.2       1 <0>        -0.1882
      2 C2         -6.3860    8.0648   -4.0241 C.2       1 <0>        -0.1485
      3 C3         -5.0518    8.4312   -4.6213 C.3       1 <0>        -0.0466
      4 C4         -4.3701    9.4478   -3.7421 C.ar      1 <0>        -0.1000
      5 C5         -4.4936   10.7956   -4.0195 C.ar      1 <0>        -0.0758
      6 C6         -3.8689   11.7286   -3.2131 C.ar      1 <0>        -0.1435
      7 C7         -3.1193   11.3157   -2.1268 C.ar      1 <0>        -0.0839
      8 C8         -2.9970    9.9697   -1.8421 C.ar      1 <0>        -0.2065
      9 C9         -3.6184    9.0310   -2.6533 C.ar      1 <0>         0.1198
     10 O1         -3.4953    7.7058   -2.3784 O.3       1 <0>        -0.2973
     11 C10        -2.7061    7.3497   -1.2415 C.3       1 <0>         0.0298
     12 C11        -2.6837    5.8271   -1.0930 C.3       1 <0>         0.0859
     13 H1         -2.3354    5.3764   -2.0223 H         1 <0>         0.1332
     14 C12        -1.7396    5.4397    0.0470 C.3       1 <0>        -0.0392
     15 C13        -0.8360    3.4141   -0.9230 C.3       1 <0>        -0.0026
     16 C14        -0.9026    1.8859   -0.8744 C.3       1 <0>        -0.1387
     17 C15        -0.4065    1.4014    0.4908 C.3       1 <0>        -0.1138
     18 C16        -1.2586    2.0389    1.5918 C.3       1 <0>        -0.1421
     19 C17        -1.1828    3.5627    1.4708 C.3       1 <0>         0.0006
     20 C18        -0.5279   -0.1218    0.5678 C.3       1 <0>         0.0992
     21 N1          0.0537   -0.5950    1.8264 N.am      1 <0>        -0.5621
     22 C19         1.3602   -0.9200    1.8552 C.2       1 <0>         0.5730
     23 O2          2.0314   -0.8165    0.8464 O.2       1 <0>        -0.4890
     24 C20         1.9807   -1.3946    3.1008 C.ar      1 <0>        -0.1741
     25 C21         3.3234   -1.7340    3.1770 C.ar      1 <0>         0.0037
     26 C22         3.8634   -2.1818    4.3769 C.ar      1 <0>        -0.1407
     27 C23         3.1020   -2.3005    5.5040 C.ar      1 <0>        -0.0393
     28 C24         1.7371   -1.9659    5.4695 C.ar      1 <0>        -0.0794
     29 C25         1.1771   -1.5102    4.2578 C.ar      1 <0>         0.0113
     30 C26        -0.1920   -1.1656    4.1909 C.ar      1 <0>        -0.1758
     31 C27        -0.9722   -1.2824    5.3317 C.ar      1 <0>         0.0029
     32 C28        -0.4087   -1.7326    6.5199 C.ar      1 <0>        -0.1430
     33 C29         0.9118   -2.0699    6.6028 C.ar      1 <0>        -0.0375
     34 C30        -0.7392   -0.6942    2.9102 C.2       1 <0>         0.5746
     35 O3         -1.9146   -0.3925    2.8292 O.2       1 <0>        -0.4956
     36 O4         -4.0014    5.3576   -0.8005 O.3       1 <0>        -0.5418
     37 H2         -7.4217    8.5408   -5.7556 H         1 <0>         0.0982
     38 H3         -8.4339    7.9191   -4.3105 H         1 <0>         0.0993
     39 H4         -6.4421    7.7057   -3.0070 H         1 <0>         0.1061
     40 H5         -5.2021    8.8530   -5.6151 H         1 <0>         0.0778
     41 H6         -4.4296    7.5394   -4.6953 H         1 <0>         0.0827
     42 H7         -5.0791   11.1206   -4.8669 H         1 <0>         0.1332
     43 H8         -3.9666   12.7818   -3.4316 H         1 <0>         0.1293
     44 H9         -2.6325   12.0466   -1.4981 H         1 <0>         0.1277
     45 H10        -2.4152    9.6479   -0.9910 H         1 <0>         0.1233
     46 H11        -3.1376    7.7959   -0.3455 H         1 <0>         0.0757
     47 H12        -1.6886    7.7166   -1.3763 H         1 <0>         0.0801
     48 H13        -2.1139    5.8510    0.9844 H         1 <0>         0.1371
     49 H14        -0.7452    5.8386   -0.1534 H         1 <0>         0.1448
     50 H15         0.1962    3.7371   -0.7877 H         1 <0>         0.1323
     51 H16        -1.2020    3.7630   -1.8886 H         1 <0>         0.1313
     52 H17        -0.2720    1.4690   -1.6596 H         1 <0>         0.1189
     53 H18        -1.9325    1.5616   -1.0233 H         1 <0>         0.0952
     54 H19         0.6359    1.6910    0.6233 H         1 <0>         0.0944
     55 H20        -2.2942    1.7171    1.4827 H         1 <0>         0.1007
     56 H21        -0.8821    1.7312    2.5674 H         1 <0>         0.1044
     57 H22        -0.1490    3.8850    1.5948 H         1 <0>         0.1290
     58 H23        -1.8008    4.0196    2.2438 H         1 <0>         0.1295
     59 H24        -1.5795   -0.4052    0.5243 H         1 <0>         0.1058
     60 H25         0.0046   -0.5715   -0.2703 H         1 <0>         0.1090
     61 H26         3.9507   -1.6505    2.3018 H         1 <0>         0.1473
     62 H27         4.9107   -2.4426    4.4186 H         1 <0>         0.1438
     63 H28         3.5487   -2.6512    6.4226 H         1 <0>         0.1454
     64 H29        -2.0199   -1.0226    5.2968 H         1 <0>         0.1463
     65 H30        -1.0305   -1.8180    7.3988 H         1 <0>         0.1431
     66 H31         1.3225   -2.4165    7.5396 H         1 <0>         0.1452
     67 H32        -4.3755    5.7184    0.0149 H         1 <0>         0.3900
     68 N2         -1.6969    3.9661    0.1445 N.4       1 <0>        -0.3899
     69 H33        -2.6480    3.5966    0.0296 H         1 <0>         0.4339
@<TRIPOS>BOND
     1    1    2 2
     2    1   37 1
     3    1   38 1
     4    2    3 1
     5    2   39 1
     6    3    4 1
     7    3   40 1
     8    3   41 1
     9    4    9 ar
    10    4    5 ar
    11    5    6 ar
    12    5   42 1
    13    6    7 ar
    14    6   43 1
    15    7    8 ar
    16    7   44 1
    17    8    9 ar
    18    8   45 1
    19    9   10 1
    20   10   11 1
    21   11   12 1
    22   11   46 1
    23   11   47 1
    24   12   13 1
    25   12   14 1
    26   12   36 1
    27   14   48 1
    28   14   49 1
    29   14   68 1
    30   15   16 1
    31   15   50 1
    32   15   51 1
    33   15   68 1
    34   16   17 1
    35   16   52 1
    36   16   53 1
    37   17   18 1
    38   17   20 1
    39   17   54 1
    40   18   19 1
    41   18   55 1
    42   18   56 1
    43   19   57 1
    44   19   58 1
    45   19   68 1
    46   20   21 1
    47   20   59 1
    48   20   60 1
    49   21   34 am
    50   21   22 am
    51   22   23 2
    52   22   24 1
    53   24   29 ar
    54   24   25 ar
    55   25   26 ar
    56   25   61 1
    57   26   27 ar
    58   26   62 1
    59   27   28 ar
    60   27   63 1
    61   28   33 ar
    62   28   29 ar
    63   29   30 ar
    64   30   31 ar
    65   30   34 1
    66   31   32 ar
    67   31   64 1
    68   32   33 ar
    69   32   65 1
    70   33   66 1
    71   34   35 2
    72   36   67 1
    73   68   69 1
@<TRIPOS>MOLECULE
ZINC09781793
   69    73     0     0     0
SMALL
USER_CHARGES
[1-[3-(2-allylphenoxy)-2-hydroxy-propyl]-4-piperidyl]methylBLAHdione
@<TRIPOS>ATOM
      1 C1          1.1129    1.7462    0.0008 C.2       1 <0>        -0.1874
      2 C2         -0.0126    1.0758    0.0080 C.2       1 <0>        -0.1492
      3 C3         -1.3278    1.8115    0.0182 C.3       1 <0>        -0.0477
      4 C4         -2.1695    1.3518   -1.1442 C.ar      1 <0>        -0.0999
      5 C5         -2.1627    2.0650   -2.3276 C.ar      1 <0>        -0.0757
      6 C6         -2.9314    1.6414   -3.3957 C.ar      1 <0>        -0.1436
      7 C7         -3.7162    0.5087   -3.2796 C.ar      1 <0>        -0.0838
      8 C8         -3.7305   -0.2048   -2.0970 C.ar      1 <0>        -0.2066
      9 C9         -2.9562    0.2156   -1.0251 C.ar      1 <0>         0.1200
     10 O1         -2.9683   -0.4849    0.1393 O.3       1 <0>        -0.2973
     11 C10        -3.8018   -1.6446    0.1902 C.3       1 <0>         0.0298
     12 C11        -3.6849   -2.2965    1.5694 C.3       1 <0>         0.0852
     13 H1         -2.6369   -2.5047    1.7852 H         1 <0>         0.1332
     14 C12        -4.4782   -3.6047    1.5840 C.3       1 <0>        -0.0386
     15 C13        -2.9847   -4.6507    3.1764 C.3       1 <0>        -0.0052
     16 C14        -2.8760   -5.1633    4.6143 C.3       1 <0>        -0.1404
     17 C15        -3.8338   -6.3427    4.8043 C.3       1 <0>        -0.1141
     18 C16        -5.2588   -5.8914    4.4721 C.3       1 <0>        -0.1392
     19 C17        -5.2984   -5.3577    3.0383 C.3       1 <0>         0.0016
     20 C18        -3.7744   -6.8208    6.2564 C.3       1 <0>         0.0995
     21 N1         -2.4428   -7.3629    6.5380 N.am      1 <0>        -0.5622
     22 C19        -2.2196   -8.6745    6.3302 C.2       1 <0>         0.5733
     23 O2         -3.1174   -9.3825    5.9158 O.2       1 <0>        -0.4898
     24 C20        -0.8951   -9.2544    6.5972 C.ar      1 <0>        -0.1741
     25 C21        -0.6197  -10.5982    6.3913 C.ar      1 <0>         0.0036
     26 C22         0.6476  -11.1006    6.6622 C.ar      1 <0>        -0.1410
     27 C23         1.6490  -10.3004    7.1326 C.ar      1 <0>        -0.0391
     28 C24         1.4115   -8.9326    7.3539 C.ar      1 <0>        -0.0793
     29 C25         0.1295   -8.4106    7.0828 C.ar      1 <0>         0.0112
     30 C26        -0.1407   -7.0395    7.2946 C.ar      1 <0>        -0.1758
     31 C27         0.8714   -6.2196    7.7713 C.ar      1 <0>         0.0032
     32 C28         2.1306   -6.7459    8.0346 C.ar      1 <0>        -0.1426
     33 C29         2.4094   -8.0677    7.8359 C.ar      1 <0>        -0.0377
     34 C30        -1.4890   -6.5323    7.0001 C.2       1 <0>         0.5743
     35 O3         -1.7443   -5.3563    7.1753 O.2       1 <0>        -0.4943
     36 O4         -4.2085   -1.4107    2.5610 O.3       1 <0>        -0.5416
     37 H2          2.0554    1.2190   -0.0110 H         1 <0>         0.0990
     38 H3          1.0982    2.8261    0.0067 H         1 <0>         0.0989
     39 H4          0.0021   -0.0041    0.0020 H         1 <0>         0.1041
     40 H5         -1.8525    1.6048    0.9510 H         1 <0>         0.0846
     41 H6         -1.1455    2.8828   -0.0664 H         1 <0>         0.0782
     42 H7         -1.5535    2.9521   -2.4194 H         1 <0>         0.1332
     43 H8         -2.9221    2.1983   -4.3210 H         1 <0>         0.1293
     44 H9         -4.3187    0.1820   -4.1143 H         1 <0>         0.1278
     45 H10        -4.3441   -1.0889   -2.0067 H         1 <0>         0.1234
     46 H11        -4.8375   -1.3557    0.0115 H         1 <0>         0.0759
     47 H12        -3.4851   -2.3535   -0.5748 H         1 <0>         0.0799
     48 H13        -5.5262   -3.3965    1.3682 H         1 <0>         0.1375
     49 H14        -4.0788   -4.2803    0.8277 H         1 <0>         0.1446
     50 H15        -2.7063   -5.4462    2.4852 H         1 <0>         0.1292
     51 H16        -2.3143   -3.8018    3.0418 H         1 <0>         0.1304
     52 H17        -3.1409   -4.3641    5.3065 H         1 <0>         0.1014
     53 H18        -1.8541   -5.4895    4.8081 H         1 <0>         0.1040
     54 H19        -3.5457   -7.1577    4.1404 H         1 <0>         0.0943
     55 H20        -5.5612   -5.1037    5.1621 H         1 <0>         0.0945
     56 H21        -5.9394   -6.7378    4.5642 H         1 <0>         0.1188
     57 H22        -6.3086   -5.0223    2.8034 H         1 <0>         0.1320
     58 H23        -5.0091   -6.1499    2.3479 H         1 <0>         0.1315
     59 H24        -3.9737   -5.9821    6.9235 H         1 <0>         0.1056
     60 H25        -4.5235   -7.5967    6.4144 H         1 <0>         0.1086
     61 H26        -1.3918  -11.2557    6.0200 H         1 <0>         0.1471
     62 H27         0.8450  -12.1495    6.4971 H         1 <0>         0.1437
     63 H28         2.6242  -10.7184    7.3343 H         1 <0>         0.1453
     64 H29         0.6807   -5.1697    7.9380 H         1 <0>         0.1466
     65 H30         2.9072   -6.0936    8.4058 H         1 <0>         0.1432
     66 H31         3.3972   -8.4489    8.0489 H         1 <0>         0.1452
     67 H32        -5.1391   -1.1816    2.4316 H         1 <0>         0.3894
     68 N2         -4.3738   -4.2095    2.9280 N.4       1 <0>        -0.3887
     69 H33        -4.6306   -3.5065    3.6308 H         1 <0>         0.4331
@<TRIPOS>BOND
     1    1    2 2
     2    1   37 1
     3    1   38 1
     4    2    3 1
     5    2   39 1
     6    3    4 1
     7    3   40 1
     8    3   41 1
     9    4    9 ar
    10    4    5 ar
    11    5    6 ar
    12    5   42 1
    13    6    7 ar
    14    6   43 1
    15    7    8 ar
    16    7   44 1
    17    8    9 ar
    18    8   45 1
    19    9   10 1
    20   10   11 1
    21   11   12 1
    22   11   46 1
    23   11   47 1
    24   12   13 1
    25   12   14 1
    26   12   36 1
    27   14   48 1
    28   14   49 1
    29   14   68 1
    30   15   16 1
    31   15   50 1
    32   15   51 1
    33   15   68 1
    34   16   17 1
    35   16   52 1
    36   16   53 1
    37   17   18 1
    38   17   20 1
    39   17   54 1
    40   18   19 1
    41   18   55 1
    42   18   56 1
    43   19   57 1
    44   19   58 1
    45   19   68 1
    46   20   21 1
    47   20   59 1
    48   20   60 1
    49   21   34 am
    50   21   22 am
    51   22   23 2
    52   22   24 1
    53   24   29 ar
    54   24   25 ar
    55   25   26 ar
    56   25   61 1
    57   26   27 ar
    58   26   62 1
    59   27   28 ar
    60   27   63 1
    61   28   33 ar
    62   28   29 ar
    63   29   30 ar
    64   30   31 ar
    65   30   34 1
    66   31   32 ar
    67   31   64 1
    68   32   33 ar
    69   32   65 1
    70   33   66 1
    71   34   35 2
    72   36   67 1
    73   68   69 1
@<TRIPOS>MOLECULE
ZINC34853956
   51    53     0     0     0
SMALL
USER_CHARGES

@<TRIPOS>ATOM
      1 C1         -0.0187    1.5258    0.0104 C.3       1 <0>        -0.1830
      2 C2          0.0021   -0.0041    0.0020 C.3       1 <0>         0.0277
      3 H1          0.5123   -0.3556   -0.8948 H         1 <0>         0.1385
      4 C3         -1.4333   -0.5336    0.0129 C.3       1 <0>        -0.0920
      5 C4         -1.4159   -2.0348   -0.1192 C.ar      1 <0>        -0.1664
      6 C5         -1.4498   -2.6177   -1.3725 C.ar      1 <0>        -0.0633
      7 C6         -1.4344   -3.9935   -1.4962 C.ar      1 <0>        -0.1427
      8 C7         -1.3845   -4.7903   -0.3616 C.ar      1 <0>         0.1446
      9 C8         -1.3501   -4.2029    0.8947 C.ar      1 <0>        -0.2004
     10 C9         -1.3604   -2.8266    1.0129 C.ar      1 <0>        -0.0961
     11 O1         -1.3697   -6.1440   -0.4807 O.3       1 <0>        -0.3116
     12 C10        -1.3177   -6.9013    0.7301 C.3       1 <0>         0.0231
     13 N1          0.7126   -0.4907    1.1921 N.4       1 <0>        -0.5054
     14 C11         2.1220   -0.0825    1.1220 C.3       1 <0>        -0.0505
     15 C12         2.8620   -0.5894    2.3615 C.3       1 <0>         0.1619
     16 H2          2.8002   -1.6769    2.4022 H         1 <0>         0.1131
     17 C13         4.3078   -0.1706    2.2896 C.ar      1 <0>        -0.2611
     18 C14         4.7225    0.9699    2.9167 C.ar      1 <0>        -0.0412
     19 C15         6.0511    1.3663    2.8581 C.ar      1 <0>        -0.2645
     20 C16         6.9805    0.6143    2.1638 C.ar      1 <0>         0.2697
     21 C17         6.5778   -0.5546    1.5164 C.ar      1 <0>         0.0641
     22 C18         5.2304   -0.9522    1.5851 C.ar      1 <0>        -0.0665
     23 C19         4.8182   -2.1826    0.9067 C.2       1 <0>        -0.0483
     24 C20         5.7554   -2.8996    0.2390 C.2       1 <0>        -0.2054
     25 C21         7.0964   -2.4603    0.2055 C.2       1 <0>         0.5126
     26 O2          7.9230   -3.1202   -0.4003 O.2       1 <0>        -0.5715
     27 N2          7.4821   -1.3256    0.8153 N.am      1 <0>        -0.5936
     28 H3          8.4116   -1.0516    0.7718 H         1 <0>         0.4200
     29 O3          8.2797    1.0117    2.1115 O.3       1 <0>        -0.6871
     30 O4          2.2630   -0.0341    3.5341 O.3       1 <0>        -0.5570
     31 H4          1.0039    1.9031    0.0027 H         1 <0>         0.0855
     32 H5         -0.5459    1.8868   -0.8726 H         1 <0>         0.1040
     33 H6         -0.5289    1.8773    0.9072 H         1 <0>         0.0817
     34 H7         -1.9156   -0.2570    0.9504 H         1 <0>         0.0948
     35 H8         -1.9862   -0.1019   -0.8214 H         1 <0>         0.1171
     36 H9         -1.4887   -1.9970   -2.2554 H         1 <0>         0.1359
     37 H10        -1.4616   -4.4485   -2.4753 H         1 <0>         0.1388
     38 H11        -1.3112   -4.8211    1.7795 H         1 <0>         0.1365
     39 H12        -1.3292   -2.3687    1.9906 H         1 <0>         0.1258
     40 H13        -0.4118   -6.6457    1.2798 H         1 <0>         0.0604
     41 H14        -2.1906   -6.6705    1.3407 H         1 <0>         0.0594
     42 H15        -1.3110   -7.9652    0.4932 H         1 <0>         0.1073
     43 H16         0.2896   -0.0986    2.0201 H         1 <0>         0.4249
     44 H17         2.5788   -0.5061    0.2276 H         1 <0>         0.1391
     45 H18         2.1837    1.0050    1.0814 H         1 <0>         0.1380
     46 H19         4.0093    1.5692    3.4632 H         1 <0>         0.0999
     47 H20         6.3619    2.2711    3.3593 H         1 <0>         0.1112
     48 H21         3.7902   -2.5120    0.9378 H         1 <0>         0.1224
     49 H22         5.4749   -3.8105   -0.2690 H         1 <0>         0.1437
     50 H23         2.2821    0.9322    3.5656 H         1 <0>         0.3834
     51 H24         0.6554   -1.4974    1.2298 H         1 <0>         0.4220
@<TRIPOS>BOND
     1    1    2 1
     2    1   31 1
     3    1   32 1
     4    1   33 1
     5    2    3 1
     6    2    4 1
     7    2   13 1
     8    4    5 1
     9    4   34 1
    10    4   35 1
    11    5   10 ar
    12    5    6 ar
    13    6    7 ar
    14    6   36 1
    15    7    8 ar
    16    7   37 1
    17    8    9 ar
    18    8   11 1
    19    9   10 ar
    20    9   38 1
    21   10   39 1
    22   11   12 1
    23   12   40 1
    24   12   41 1
    25   12   42 1
    26   13   14 1
    27   13   43 1
    28   13   51 1
    29   14   15 1
    30   14   44 1
    31   14   45 1
    32   15   16 1
    33   15   17 1
    34   15   30 1
    35   17   22 ar
    36   17   18 ar
    37   18   19 ar
    38   18   46 1
    39   19   20 ar
    40   19   47 1
    41   20   21 ar
    42   20   29 1
    43   21   27 1
    44   21   22 ar
    45   22   23 1
    46   23   24 2
    47   23   48 1
    48   24   25 1
    49   24   49 1
    50   25   26 2
    51   25   27 am
    52   27   28 1
    53   30   50 1
@<TRIPOS>MOLECULE
ZINC35801098
   57    60     0     0     0
SMALL
USER_CHARGES

@<TRIPOS>ATOM
      1 C1         -0.0187    1.5258    0.0104 C.3       1 <0>        -0.1493
      2 C2          0.0021   -0.0041    0.0020 C.3       1 <0>        -0.0935
      3 C3          0.7309   -0.5033    1.2229 C.ar      1 <0>        -0.0637
      4 C4          2.0763   -0.8080    1.1486 C.ar      1 <0>        -0.0914
      5 C5          2.7497   -1.2669    2.2679 C.ar      1 <0>        -0.1041
      6 C6          2.0726   -1.4201    3.4636 C.ar      1 <0>        -0.1064
      7 C7          0.7244   -1.1136    3.5363 C.ar      1 <0>        -0.0919
      8 C8          0.0554   -0.6513    2.4196 C.ar      1 <0>        -0.0650
      9 C9         -1.4109   -0.3140    2.5046 C.3       1 <0>        -0.0928
     10 C10        -2.2386   -1.5206    2.0572 C.3       1 <0>        -0.1497
     11 C11         3.0213   -1.9308    4.5268 C.3       1 <0>        -0.0926
     12 C12         4.2351   -2.4864    3.7520 C.3       1 <0>         0.0218
     13 C13         4.1994   -1.6642    2.4463 C.3       1 <0>        -0.0921
     14 N1          5.4818   -2.2415    4.4893 N.4       1 <0>        -0.4992
     15 C14         6.6004   -2.8846    3.7872 C.3       1 <0>        -0.0481
     16 C15         7.8989   -2.6295    4.5551 C.3       1 <0>         0.1620
     17 H1          7.8143   -3.0437    5.5598 H         1 <0>         0.1155
     18 C16         9.0465   -3.2893    3.8348 C.ar      1 <0>        -0.2622
     19 C17         9.8114   -2.5695    2.9613 C.ar      1 <0>        -0.0410
     20 C18        10.8708   -3.1654    2.2918 C.ar      1 <0>        -0.2645
     21 C19        11.1724   -4.4990    2.4961 C.ar      1 <0>         0.2699
     22 C20        10.4037   -5.2523    3.3846 C.ar      1 <0>         0.0642
     23 C21         9.3349   -4.6394    4.0632 C.ar      1 <0>        -0.0667
     24 C22         8.5371   -5.4365    4.9970 C.2       1 <0>        -0.0487
     25 C23         8.8624   -6.7402    5.1784 C.2       1 <0>        -0.2052
     26 C24         9.9490   -7.3061    4.4774 C.2       1 <0>         0.5122
     27 O1         10.2246   -8.4800    4.6556 O.2       1 <0>        -0.5713
     28 N2         10.6800   -6.5853    3.6089 N.am      1 <0>        -0.5936
     29 H2         11.4196   -7.0054    3.1426 H         1 <0>         0.4201
     30 O2         12.2119   -5.0738    1.8346 O.3       1 <0>        -0.6865
     31 O3          8.1346   -1.2225    4.6383 O.3       1 <0>        -0.5572
     32 H3          1.0039    1.9031    0.0027 H         1 <0>         0.0564
     33 H4         -0.5459    1.8868   -0.8726 H         1 <0>         0.0630
     34 H5         -0.5289    1.8773    0.9072 H         1 <0>         0.0575
     35 H6         -1.0205   -0.3814    0.0098 H         1 <0>         0.0804
     36 H7          0.5123   -0.3556   -0.8948 H         1 <0>         0.0750
     37 H8          2.6045   -0.6881    0.2142 H         1 <0>         0.1264
     38 H9          0.1949   -1.2329    4.4700 H         1 <0>         0.1254
     39 H10        -1.6662   -0.0597    3.5333 H         1 <0>         0.0740
     40 H11        -1.6266    0.5351    1.8561 H         1 <0>         0.0804
     41 H12        -1.9833   -1.7749    1.0285 H         1 <0>         0.0581
     42 H13        -2.0229   -2.3697    2.7057 H         1 <0>         0.0562
     43 H14        -3.2991   -1.2766    2.1187 H         1 <0>         0.0628
     44 H15         3.3309   -1.1155    5.1807 H         1 <0>         0.0987
     45 H16         2.5481   -2.7231    5.1070 H         1 <0>         0.1044
     46 H17         4.1089   -3.5490    3.5444 H         1 <0>         0.1535
     47 H18         4.5305   -2.2743    1.6060 H         1 <0>         0.1053
     48 H19         4.8257   -0.7771    2.5406 H         1 <0>         0.0988
     49 H20         5.6482   -1.2480    4.5481 H         1 <0>         0.4280
     50 H21         6.4207   -3.9578    3.7237 H         1 <0>         0.1413
     51 H22         6.6851   -2.4704    2.7825 H         1 <0>         0.1356
     52 H23         9.5892   -1.5266    2.7898 H         1 <0>         0.0997
     53 H24        11.4652   -2.5818    1.6043 H         1 <0>         0.1112
     54 H25         7.7077   -4.9955    5.5300 H         1 <0>         0.1235
     55 H26         8.2883   -7.3478    5.8621 H         1 <0>         0.1442
     56 H27         8.2207   -0.7867    3.7794 H         1 <0>         0.3836
     57 H28         5.4035   -2.6249    5.4193 H         1 <0>         0.4279
@<TRIPOS>BOND
     1    1    2 1
     2    1   32 1
     3    1   33 1
     4    1   34 1
     5    2    3 1
     6    2   35 1
     7    2   36 1
     8    3    8 ar
     9    3    4 ar
    10    4    5 ar
    11    4   37 1
    12    5   13 1
    13    5    6 ar
    14    6    7 ar
    15    6   11 1
    16    7    8 ar
    17    7   38 1
    18    8    9 1
    19    9   10 1
    20    9   39 1
    21    9   40 1
    22   10   41 1
    23   10   42 1
    24   10   43 1
    25   11   12 1
    26   11   44 1
    27   11   45 1
    28   12   13 1
    29   12   14 1
    30   12   46 1
    31   13   47 1
    32   13   48 1
    33   14   15 1
    34   14   49 1
    35   14   57 1
    36   15   16 1
    37   15   50 1
    38   15   51 1
    39   16   17 1
    40   16   18 1
    41   16   31 1
    42   18   23 ar
    43   18   19 ar
    44   19   20 ar
    45   19   52 1
    46   20   21 ar
    47   20   53 1
    48   21   22 ar
    49   21   30 1
    50   22   28 1
    51   22   23 ar
    52   23   24 1
    53   24   25 2
    54   24   54 1
    55   25   26 1
    56   25   55 1
    57   26   27 2
    58   26   28 am
    59   28   29 1
    60   31   56 1
@<TRIPOS>MOLECULE
ZINC45315721
   70    72     0     0     0
SMALL
USER_CHARGES

@<TRIPOS>ATOM
      1 C1         -0.0187    1.5258    0.0104 C.3       1 <0>        -0.1539
      2 C2          0.0021   -0.0041    0.0020 C.3       1 <0>         0.0597
      3 O1          0.6932   -0.4774    1.1597 O.3       1 <0>        -0.3538
      4 C3          0.8006   -1.8076    1.3039 C.2       1 <0>         0.4586
      5 O2          0.3237   -2.5457    0.4746 O.2       1 <0>        -0.5045
      6 C4          1.5162   -2.3806    2.5000 C.3       1 <0>        -0.1103
      7 C5          1.4962   -3.9085    2.4227 C.3       1 <0>        -0.0706
      8 C6          2.2117   -4.4814    3.6188 C.ar      1 <0>        -0.1103
      9 C7          3.5746   -4.7208    3.5575 C.ar      1 <0>        -0.0414
     10 C8          4.2416   -5.2456    4.6471 C.ar      1 <0>        -0.2057
     11 C9          3.5486   -5.5368    5.8121 C.ar      1 <0>         0.1651
     12 C10         2.1694   -5.2956    5.8786 C.ar      1 <0>        -0.0460
     13 C11         1.5081   -4.7596    4.7708 C.ar      1 <0>        -0.0251
     14 C12         1.4433   -5.5928    7.0766 C.1       1 <0>         0.2514
     15 N1          0.8673   -5.8286    8.0269 N.1       1 <0>        -0.4010
     16 O3          4.2026   -6.0533    6.8832 O.3       1 <0>        -0.2955
     17 C13         5.6076   -6.2725    6.7415 C.3       1 <0>         0.0274
     18 C14         6.1666   -6.8542    8.0415 C.3       1 <0>         0.0864
     19 H1          5.6108   -7.7539    8.3056 H         1 <0>         0.1346
     20 C15         7.6435   -7.2050    7.8497 C.3       1 <0>        -0.0501
     21 N2          8.1489   -7.8727    9.0566 N.4       1 <0>        -0.4982
     22 C16         9.5669   -8.2095    8.8725 C.3       1 <0>         0.0599
     23 C17         9.7170   -9.1451    7.6713 C.3       1 <0>        -0.1809
     24 C18        10.3672   -6.9292    8.6249 C.3       1 <0>        -0.1815
     25 C19        10.0933   -8.9049   10.1295 C.3       1 <0>        -0.0916
     26 C20        11.5480   -9.2504    9.9406 C.ar      1 <0>        -0.0974
     27 C21        11.8948  -10.4813    9.3864 C.ar      1 <0>        -0.1203
     28 C22        13.1988  -10.8245    9.2026 C.ar      1 <0>        -0.0903
     29 C23        14.2135   -9.9266    9.5758 C.ar      1 <0>        -0.0469
     30 C24        15.5710  -10.2454    9.4009 C.ar      1 <0>        -0.1081
     31 C25        16.5263   -9.3507    9.7737 C.ar      1 <0>        -0.1044
     32 C26        16.1794   -8.1197   10.3276 C.ar      1 <0>        -0.1051
     33 C27        14.8754   -7.7766   10.5118 C.ar      1 <0>        -0.1105
     34 C28        13.8608   -8.6748   10.1390 C.ar      1 <0>        -0.0531
     35 C29        12.5032   -8.3536   10.3087 C.ar      1 <0>        -0.0885
     36 O4          6.0381   -5.8904    9.0887 O.3       1 <0>        -0.5412
     37 H2          1.0039    1.9031    0.0027 H         1 <0>         0.0671
     38 H3         -0.5459    1.8868   -0.8726 H         1 <0>         0.0820
     39 H4         -0.5289    1.8773    0.9072 H         1 <0>         0.0675
     40 H5         -1.0205   -0.3814    0.0098 H         1 <0>         0.0693
     41 H6          0.5123   -0.3556   -0.8948 H         1 <0>         0.0690
     42 H7          2.5484   -2.0306    2.5079 H         1 <0>         0.1089
     43 H8          1.0156   -2.0564    3.4125 H         1 <0>         0.1097
     44 H9          0.4639   -4.2584    2.4148 H         1 <0>         0.0898
     45 H10         1.9967   -4.2327    1.5103 H         1 <0>         0.0898
     46 H11         4.1189   -4.4961    2.6522 H         1 <0>         0.1392
     47 H12         5.3043   -5.4298    4.5914 H         1 <0>         0.1369
     48 H13         0.4462   -4.5675    4.8156 H         1 <0>         0.1463
     49 H14         5.7857   -6.9717    5.9245 H         1 <0>         0.0871
     50 H15         6.1029   -5.3261    6.5244 H         1 <0>         0.0828
     51 H16         7.7504   -7.8716    6.9939 H         1 <0>         0.1490
     52 H17         8.2136   -6.2929    7.6733 H         1 <0>         0.1432
     53 H18         8.0499   -7.2556    9.8488 H         1 <0>         0.4323
     54 H19         9.3420   -8.6497    6.7757 H         1 <0>         0.0811
     55 H20        10.7691   -9.3950    7.5346 H         1 <0>         0.1119
     56 H21         9.1469  -10.0572    7.8477 H         1 <0>         0.0839
     57 H22        10.2602   -6.2626    9.4806 H         1 <0>         0.0834
     58 H23        11.4193   -7.1791    8.4882 H         1 <0>         0.1112
     59 H24         9.9921   -6.4338    7.7293 H         1 <0>         0.0812
     60 H25         9.9864   -8.2383   10.9853 H         1 <0>         0.0969
     61 H26         9.5232   -9.8170   10.3060 H         1 <0>         0.0980
     62 H27        11.1170  -11.1732    9.0987 H         1 <0>         0.1244
     63 H28        13.4526  -11.7822    8.7726 H         1 <0>         0.1328
     64 H29        15.8546  -11.1957    8.9733 H         1 <0>         0.1321
     65 H30        17.5688   -9.5983    9.6385 H         1 <0>         0.1300
     66 H31        16.9572   -7.4278   10.6153 H         1 <0>         0.1294
     67 H32        14.6215   -6.8194   10.9426 H         1 <0>         0.1294
     68 H33        12.2195   -7.4016   10.7325 H         1 <0>         0.1281
     69 H34         6.5086   -5.0624    8.9211 H         1 <0>         0.3901
     70 H35         7.6211   -8.7170    9.2200 H         1 <0>         0.4290
@<TRIPOS>BOND
     1    1    2 1
     2    1   37 1
     3    1   38 1
     4    1   39 1
     5    2    3 1
     6    2   40 1
     7    2   41 1
     8    3    4 1
     9    4    5 2
    10    4    6 1
    11    6    7 1
    12    6   42 1
    13    6   43 1
    14    7    8 1
    15    7   44 1
    16    7   45 1
    17    8   13 ar
    18    8    9 ar
    19    9   10 ar
    20    9   46 1
    21   10   11 ar
    22   10   47 1
    23   11   12 ar
    24   11   16 1
    25   12   13 ar
    26   12   14 1
    27   13   48 1
    28   14   15 3
    29   16   17 1
    30   17   18 1
    31   17   49 1
    32   17   50 1
    33   18   19 1
    34   18   20 1
    35   18   36 1
    36   20   21 1
    37   20   51 1
    38   20   52 1
    39   21   22 1
    40   21   53 1
    41   21   70 1
    42   22   23 1
    43   22   24 1
    44   22   25 1
    45   23   54 1
    46   23   55 1
    47   23   56 1
    48   24   57 1
    49   24   58 1
    50   24   59 1
    51   25   26 1
    52   25   60 1
    53   25   61 1
    54   26   35 ar
    55   26   27 ar
    56   27   28 ar
    57   27   62 1
    58   28   29 ar
    59   28   63 1
    60   29   34 ar
    61   29   30 ar
    62   30   31 ar
    63   30   64 1
    64   31   32 ar
    65   31   65 1
    66   32   33 ar
    67   32   66 1
    68   33   34 ar
    69   33   67 1
    70   34   35 ar
    71   35   68 1
    72   36   69 1
@<TRIPOS>MOLECULE
ZINC04008295
   50    51     0     0     0
SMALL
USER_CHARGES

@<TRIPOS>ATOM
      1 C1         -0.0187    1.5258    0.0104 C.3       1 <0>        -0.1544
      2 C2          0.0021   -0.0041    0.0020 C.3       1 <0>         0.0601
      3 O1          0.6709   -0.4649   -1.1737 O.3       1 <0>        -0.3385
      4 C3          0.7760   -1.7999   -1.3349 C.2       1 <0>         0.5499
      5 O2          0.3119   -2.5517   -0.4993 O.2       1 <0>        -0.4770
      6 C4          1.4498   -2.3449   -2.5179 C.2       1 <0>        -0.0320
      7 C5          1.6111   -3.6662   -2.7901 C.2       1 <0>        -0.0420
      8 C6          2.3085   -3.7511   -4.0206 C.ar      1 <0>        -0.1667
      9 C7          2.5382   -2.4275   -4.4387 C.ar      1 <0>         0.1185
     10 O3          2.0016   -1.6106   -3.5094 O.3       1 <0>        -0.1572
     11 C8          3.2121   -2.1950   -5.6308 C.ar      1 <0>        -0.1407
     12 C9          3.6507   -3.2552   -6.3961 C.ar      1 <0>        -0.0351
     13 C10         3.4278   -4.5621   -5.9910 C.ar      1 <0>        -0.2355
     14 C11         2.7601   -4.8211   -4.8086 C.ar      1 <0>         0.1885
     15 O4          2.5432   -6.1012   -4.4123 O.3       1 <0>        -0.2911
     16 C12         3.0324   -7.1366   -5.2670 C.3       1 <0>         0.0260
     17 C13         2.6967   -8.5003   -4.6598 C.3       1 <0>         0.0860
     18 H1          3.0900   -8.5527   -3.6446 H         1 <0>         0.1362
     19 C14         3.3274   -9.6058   -5.5088 C.3       1 <0>        -0.0456
     20 N1          3.0051  -10.9151   -4.9258 N.4       1 <0>        -0.5020
     21 C15         3.6107  -11.9766   -5.7409 C.3       1 <0>         0.0242
     22 C16         5.1351  -11.8665   -5.6708 C.3       1 <0>        -0.1868
     23 C17         3.1729  -13.3420   -5.2073 C.3       1 <0>        -0.1854
     24 O5          1.2784   -8.6726   -4.6307 O.3       1 <0>        -0.5424
     25 C18         1.1392   -4.8208   -1.9444 C.3       1 <0>        -0.0964
     26 H2          1.0039    1.9031    0.0027 H         1 <0>         0.0690
     27 H3         -0.5459    1.8868   -0.8726 H         1 <0>         0.0690
     28 H4         -0.5289    1.8773    0.9072 H         1 <0>         0.0852
     29 H5          0.5293   -0.3651    0.8851 H         1 <0>         0.0736
     30 H6         -1.0205   -0.3814    0.0098 H         1 <0>         0.0736
     31 H7          3.3926   -1.1821   -5.9592 H         1 <0>         0.1450
     32 H8          4.1736   -3.0652   -7.3218 H         1 <0>         0.1467
     33 H9          3.7773   -5.3814   -6.6017 H         1 <0>         0.1356
     34 H10         2.5639   -7.0502   -6.2474 H         1 <0>         0.0811
     35 H11         4.1132   -7.0415   -5.3712 H         1 <0>         0.0857
     36 H12         2.9342   -9.5534   -6.5240 H         1 <0>         0.1400
     37 H13         4.4093   -9.4744   -5.5310 H         1 <0>         0.1477
     38 H14         3.3692  -10.9636   -3.9860 H         1 <0>         0.4289
     39 H15         3.2860  -11.8699   -6.7760 H         1 <0>         0.1394
     40 H16         5.5845  -12.6541   -6.2756 H         1 <0>         0.1081
     41 H17         5.4471  -10.8937   -6.0510 H         1 <0>         0.0803
     42 H18         5.4599  -11.9732   -4.6358 H         1 <0>         0.0836
     43 H19         2.0869  -13.4204   -5.2572 H         1 <0>         0.0831
     44 H20         3.6222  -14.1296   -5.8121 H         1 <0>         0.1084
     45 H21         3.4976  -13.4487   -4.1723 H         1 <0>         0.0830
     46 H22         0.8600   -8.6373   -5.5018 H         1 <0>         0.3903
     47 H23         0.1311   -5.1044   -2.2468 H         1 <0>         0.0821
     48 H24         1.8111   -5.6685   -2.0794 H         1 <0>         0.0757
     49 H25         1.1342   -4.5247   -0.8955 H         1 <0>         0.0907
     50 H26         2.0037  -11.0368   -4.9053 H         1 <0>         0.4335
@<TRIPOS>BOND
     1    1    2 1
     2    1   26 1
     3    1   27 1
     4    1   28 1
     5    2    3 1
     6    2   29 1
     7    2   30 1
     8    3    4 1
     9    4    5 2
    10    4    6 1
    11    6   10 1
    12    6    7 2
    13    7    8 1
    14    7   25 1
    15    8   14 ar
    16    8    9 ar
    17    9   10 1
    18    9   11 ar
    19   11   12 ar
    20   11   31 1
    21   12   13 ar
    22   12   32 1
    23   13   14 ar
    24   13   33 1
    25   14   15 1
    26   15   16 1
    27   16   17 1
    28   16   34 1
    29   16   35 1
    30   17   18 1
    31   17   19 1
    32   17   24 1
    33   19   20 1
    34   19   36 1
    35   19   37 1
    36   20   21 1
    37   20   38 1
    38   20   50 1
    39   21   22 1
    40   21   23 1
    41   21   39 1
    42   22   40 1
    43   22   41 1
    44   22   42 1
    45   23   43 1
    46   23   44 1
    47   23   45 1
    48   24   46 1
    49   25   47 1
    50   25   48 1
    51   25   49 1
@<TRIPOS>MOLECULE
ZINC02022527
   54    55     0     0     0
SMALL
USER_CHARGES

@<TRIPOS>ATOM
      1 C1         -3.0730    2.2881   -4.2693 C.3       1 <0>        -0.1569
      2 C2         -2.3049    1.5870   -3.1471 C.3       1 <0>        -0.1270
      3 C3         -2.8110    2.0874   -1.7927 C.3       1 <0>        -0.1231
      4 C4         -2.0429    1.3862   -0.6705 C.3       1 <0>        -0.1174
      5 C5         -2.5490    1.8867    0.6839 C.3       1 <0>        -0.1006
      6 C6         -2.2117    3.3722    0.8391 C.3       1 <0>        -0.1451
      7 C7         -2.6658    3.8518    2.2196 C.3       1 <0>        -0.0114
      8 C8         -2.3347    1.6429    3.1595 C.3       1 <0>        -0.0001
      9 C9         -1.8707    1.0973    1.8070 C.3       1 <0>        -0.1442
     10 C10        -2.2939    3.5901    4.5974 C.3       1 <0>        -0.0052
     11 C11        -2.1583    5.1140    4.5919 C.3       1 <0>        -0.1459
     12 C12        -2.4764    5.6593    5.9856 C.3       1 <0>        -0.1543
     13 C13        -2.3428    7.1604    5.9803 C.2       1 <0>         0.3987
     14 O1         -2.0245    7.7371    4.9623 O.2       1 <0>        -0.4456
     15 C14        -2.5986    7.9263    7.2106 C.ar      1 <0>        -0.1885
     16 C15        -3.0878    7.2813    8.3513 C.ar      1 <0>        -0.0705
     17 C16        -3.3195    8.0047    9.5018 C.ar      1 <0>        -0.1389
     18 C17        -3.0801    9.3679    9.5265 C.ar      1 <0>        -0.0729
     19 C18        -2.6016   10.0143    8.4004 C.ar      1 <0>        -0.1345
     20 C19        -2.3594    9.3036    7.2436 C.ar      1 <0>        -0.0178
     21 C20        -1.8387   10.0095    6.0182 C.3       1 <0>        -0.1264
     22 H1         -4.1363    2.0676   -4.1746 H         1 <0>         0.0549
     23 H2         -2.9175    3.3647   -4.1985 H         1 <0>         0.0540
     24 H3         -2.7125    1.9316   -5.2342 H         1 <0>         0.0581
     25 H4         -1.2417    1.8075   -3.2417 H         1 <0>         0.0621
     26 H5         -2.4605    0.5104   -3.2179 H         1 <0>         0.0631
     27 H6         -3.8743    1.8669   -1.6981 H         1 <0>         0.0644
     28 H7         -2.6555    3.1639   -1.7219 H         1 <0>         0.0632
     29 H8         -2.1984    0.3097   -0.7413 H         1 <0>         0.0733
     30 H9         -0.9796    1.6067   -0.7651 H         1 <0>         0.0688
     31 H10        -3.6287    1.7492    0.7427 H         1 <0>         0.0884
     32 H11        -1.1354    3.5132    0.7407 H         1 <0>         0.0881
     33 H12        -2.7264    3.9447    0.0675 H         1 <0>         0.1133
     34 H13        -3.7442    3.7233    2.3122 H         1 <0>         0.1295
     35 H14        -2.4142    4.9057    2.3388 H         1 <0>         0.1342
     36 H15        -3.4146    1.5248    3.2476 H         1 <0>         0.1293
     37 H16        -1.8426    1.0924    3.9613 H         1 <0>         0.1282
     38 H17        -2.1418    0.0446    1.7270 H         1 <0>         0.1118
     39 H18        -0.7890    1.2025    1.7239 H         1 <0>         0.0880
     40 H19        -3.3133    3.3170    4.8704 H         1 <0>         0.1315
     41 H20        -1.5979    3.1659    5.3211 H         1 <0>         0.1302
     42 H21        -1.1389    5.3871    4.3190 H         1 <0>         0.0944
     43 H22        -2.8542    5.5382    3.8682 H         1 <0>         0.0968
     44 H23        -3.4115    5.4088    6.2361 H         1 <0>         0.0981
     45 H24        -1.7805    5.2352    6.7093 H         1 <0>         0.1100
     46 H25        -3.2793    6.2186    8.3321 H         1 <0>         0.1290
     47 H26        -3.6933    7.5074   10.3846 H         1 <0>         0.1322
     48 H27        -3.2682    9.9300   10.4293 H         1 <0>         0.1326
     49 H28        -2.4176   11.0782    8.4274 H         1 <0>         0.1332
     50 H29        -2.6709   10.2515    5.3572 H         1 <0>         0.0784
     51 H30        -1.3321   10.9277    6.3156 H         1 <0>         0.0652
     52 H31        -1.1365    9.3600    5.4956 H         1 <0>         0.0893
     53 N1         -1.9588    3.0696    3.2558 N.4       1 <0>        -0.3931
     54 H32        -0.9467    3.1581    3.1071 H         1 <0>         0.4272
@<TRIPOS>BOND
     1    1    2 1
     2    1   22 1
     3    1   23 1
     4    1   24 1
     5    2    3 1
     6    2   25 1
     7    2   26 1
     8    3    4 1
     9    3   27 1
    10    3   28 1
    11    4    5 1
    12    4   29 1
    13    4   30 1
    14    5    9 1
    15    5    6 1
    16    5   31 1
    17    6    7 1
    18    6   32 1
    19    6   33 1
    20    7   34 1
    21    7   35 1
    22    7   53 1
    23    8    9 1
    24    8   36 1
    25    8   37 1
    26    8   53 1
    27    9   38 1
    28    9   39 1
    29   10   11 1
    30   10   40 1
    31   10   41 1
    32   10   53 1
    33   11   12 1
    34   11   42 1
    35   11   43 1
    36   12   13 1
    37   12   44 1
    38   12   45 1
    39   13   14 2
    40   13   15 1
    41   15   20 ar
    42   15   16 ar
    43   16   17 ar
    44   16   46 1
    45   17   18 ar
    46   17   47 1
    47   18   19 ar
    48   18   48 1
    49   19   20 ar
    50   19   49 1
    51   20   21 1
    52   21   50 1
    53   21   51 1
    54   21   52 1
    55   53   54 1
@<TRIPOS>MOLECULE
ZINC03785268
   68    69     0     0     0
SMALL
USER_CHARGES

@<TRIPOS>ATOM
      1 C1         -0.0167    1.3781    0.0096 C.ar      1 <0>        -0.1238
      2 C2          1.1709    2.0855    0.0021 C.ar      1 <0>        -0.1176
      3 C3          2.3773    1.4107   -0.0130 C.ar      1 <0>        -0.1187
      4 C4          2.3960    0.0285   -0.0201 C.ar      1 <0>        -0.0852
      5 C5          1.2084   -0.6789   -0.0117 C.ar      1 <0>        -0.1187
      6 C6          0.0021   -0.0041    0.0020 C.ar      1 <0>        -0.1176
      7 C7          3.7112   -0.7071   -0.0376 C.3       1 <0>        -0.0797
      8 C8          4.1714   -0.9633    1.3989 C.3       1 <0>        -0.1109
      9 C9          5.5066   -1.7102    1.3812 C.3       1 <0>        -0.1189
     10 C10         5.9667   -1.9663    2.8177 C.3       1 <0>         0.0627
     11 O1          7.2138   -2.6639    2.8011 O.3       1 <0>        -0.3903
     12 C11         7.7347   -2.9541    4.0998 C.3       1 <0>         0.0607
     13 C12         9.0645   -3.6981    3.9613 C.3       1 <0>        -0.1204
     14 C13         9.6222   -4.0088    5.3517 C.3       1 <0>        -0.1186
     15 C14        10.9520   -4.7528    5.2133 C.3       1 <0>        -0.1167
     16 C15        11.5097   -5.0635    6.6037 C.3       1 <0>        -0.1504
     17 C16        12.8395   -5.8075    6.4652 C.3       1 <0>        -0.0103
     18 N1         13.3750   -6.1058    7.8002 N.4       1 <0>        -0.5064
     19 C17        14.6517   -6.8201    7.6672 C.3       1 <0>        -0.0424
     20 C18        15.2094   -7.1309    9.0577 C.3       1 <0>         0.1377
     21 H1         15.2854   -6.2083    9.6332 H         1 <0>         0.1314
     22 C19        16.5754   -7.7532    8.9234 C.ar      1 <0>        -0.1549
     23 C20        16.6950   -9.0941    8.6073 C.ar      1 <0>        -0.0909
     24 C21        17.9458   -9.6669    8.4841 C.ar      1 <0>        -0.1374
     25 C22        19.0828   -8.8956    8.6775 C.ar      1 <0>         0.1337
     26 C23        18.9602   -7.5507    8.9941 C.ar      1 <0>        -0.1101
     27 C24        17.7068   -6.9812    9.1111 C.ar      1 <0>        -0.0616
     28 C25        20.1931   -6.7101    9.2049 C.3       1 <0>         0.1174
     29 O2         19.8081   -5.3700    9.5178 O.3       1 <0>        -0.5755
     30 O3         20.3146   -9.4570    8.5573 O.3       1 <0>        -0.4927
     31 O4         14.3355   -8.0405    9.7291 O.3       1 <0>        -0.5469
     32 H2         -0.9591    1.9053    0.0259 H         1 <0>         0.1221
     33 H3          1.1563    3.1654    0.0076 H         1 <0>         0.1223
     34 H4          3.3051    1.9634   -0.0196 H         1 <0>         0.1205
     35 H5          1.2231   -1.7588   -0.0176 H         1 <0>         0.1205
     36 H6         -0.9258   -0.5567    0.0082 H         1 <0>         0.1223
     37 H7          3.5884   -1.6586   -0.5549 H         1 <0>         0.0739
     38 H8          4.4573   -0.1052   -0.5563 H         1 <0>         0.0739
     39 H9          4.2941   -0.0118    1.9163 H         1 <0>         0.0660
     40 H10         3.4252   -1.5652    1.9176 H         1 <0>         0.0660
     41 H11         5.3838   -2.6617    0.8639 H         1 <0>         0.0721
     42 H12         6.2527   -1.1082    0.8625 H         1 <0>         0.0721
     43 H13         6.0895   -1.0148    3.3350 H         1 <0>         0.0495
     44 H14         5.2206   -2.5682    3.3364 H         1 <0>         0.0495
     45 H15         7.8942   -2.0231    4.6437 H         1 <0>         0.0482
     46 H16         7.0252   -3.5766    4.6451 H         1 <0>         0.0482
     47 H17         8.9050   -4.6291    3.4174 H         1 <0>         0.0731
     48 H18         9.7740   -3.0757    3.4160 H         1 <0>         0.0731
     49 H19         9.7817   -3.0778    5.8957 H         1 <0>         0.0689
     50 H20         8.9127   -4.6313    5.8970 H         1 <0>         0.0688
     51 H21        10.7925   -5.6838    4.6693 H         1 <0>         0.0758
     52 H22        11.6615   -4.1304    4.6680 H         1 <0>         0.0760
     53 H23        11.6692   -4.1325    7.1476 H         1 <0>         0.0886
     54 H24        10.8002   -5.6860    7.1490 H         1 <0>         0.0885
     55 H25        12.6800   -6.7385    5.9213 H         1 <0>         0.1316
     56 H26        13.5489   -5.1851    5.9199 H         1 <0>         0.1323
     57 H27        13.5226   -5.2440    8.3037 H         1 <0>         0.4293
     58 H28        14.4922   -7.7512    7.1233 H         1 <0>         0.1365
     59 H29        15.3612   -6.1977    7.1220 H         1 <0>         0.1444
     60 H30        15.8096   -9.6940    8.4568 H         1 <0>         0.1273
     61 H31        18.0386  -10.7144    8.2379 H         1 <0>         0.1404
     62 H32        17.6108   -5.9332    9.3536 H         1 <0>         0.1420
     63 H33        20.7773   -7.1219   10.0278 H         1 <0>         0.0715
     64 H34        20.7943   -6.7125    8.2956 H         1 <0>         0.0646
     65 H35        20.5529   -4.7714    9.6665 H         1 <0>         0.3932
     66 H36        20.6797   -9.4166    7.6628 H         1 <0>         0.3995
     67 H37        14.2206   -8.8851    9.2724 H         1 <0>         0.3882
     68 H38        12.7182   -6.6820    8.3050 H         1 <0>         0.4321
@<TRIPOS>BOND
     1    1    6 ar
     2    1    2 ar
     3    1   32 1
     4    2    3 ar
     5    2   33 1
     6    3    4 ar
     7    3   34 1
     8    4    5 ar
     9    4    7 1
    10    5    6 ar
    11    5   35 1
    12    6   36 1
    13    7    8 1
    14    7   37 1
    15    7   38 1
    16    8    9 1
    17    8   39 1
    18    8   40 1
    19    9   10 1
    20    9   41 1
    21    9   42 1
    22   10   11 1
    23   10   43 1
    24   10   44 1
    25   11   12 1
    26   12   13 1
    27   12   45 1
    28   12   46 1
    29   13   14 1
    30   13   47 1
    31   13   48 1
    32   14   15 1
    33   14   49 1
    34   14   50 1
    35   15   16 1
    36   15   51 1
    37   15   52 1
    38   16   17 1
    39   16   53 1
    40   16   54 1
    41   17   18 1
    42   17   55 1
    43   17   56 1
    44   18   19 1
    45   18   57 1
    46   18   68 1
    47   19   20 1
    48   19   58 1
    49   19   59 1
    50   20   21 1
    51   20   22 1
    52   20   31 1
    53   22   27 ar
    54   22   23 ar
    55   23   24 ar
    56   23   60 1
    57   24   25 ar
    58   24   61 1
    59   25   26 ar
    60   25   30 1
    61   26   27 ar
    62   26   28 1
    63   27   62 1
    64   28   29 1
    65   28   63 1
    66   28   64 1
    67   29   65 1
    68   30   66 1
    69   31   67 1
@<TRIPOS>MOLECULE
ZINC03799072
   68    69     0     0     0
SMALL
USER_CHARGES

@<TRIPOS>ATOM
      1 C1         -0.0167    1.3781    0.0096 C.ar      1 <0>        -0.1238
      2 C2          1.1709    2.0855    0.0021 C.ar      1 <0>        -0.1176
      3 C3          2.3773    1.4107   -0.0130 C.ar      1 <0>        -0.1187
      4 C4          2.3960    0.0285   -0.0201 C.ar      1 <0>        -0.0852
      5 C5          1.2084   -0.6789   -0.0117 C.ar      1 <0>        -0.1187
      6 C6          0.0021   -0.0041    0.0020 C.ar      1 <0>        -0.1176
      7 C7          3.7112   -0.7071   -0.0376 C.3       1 <0>        -0.0798
      8 C8          4.1714   -0.9633    1.3989 C.3       1 <0>        -0.1108
      9 C9          5.5066   -1.7102    1.3812 C.3       1 <0>        -0.1189
     10 C10         5.9667   -1.9663    2.8177 C.3       1 <0>         0.0627
     11 O1          7.2138   -2.6639    2.8011 O.3       1 <0>        -0.3903
     12 C11         7.7347   -2.9541    4.0998 C.3       1 <0>         0.0608
     13 C12         9.0645   -3.6981    3.9613 C.3       1 <0>        -0.1205
     14 C13         9.6222   -4.0088    5.3517 C.3       1 <0>        -0.1185
     15 C14        10.9520   -4.7528    5.2133 C.3       1 <0>        -0.1168
     16 C15        11.5097   -5.0635    6.6037 C.3       1 <0>        -0.1501
     17 C16        12.8395   -5.8075    6.4652 C.3       1 <0>        -0.0105
     18 N1         13.3750   -6.1058    7.8002 N.4       1 <0>        -0.5057
     19 C17        14.6517   -6.8201    7.6672 C.3       1 <0>        -0.0427
     20 C18        15.2094   -7.1309    9.0577 C.3       1 <0>         0.1378
     21 H1         14.4999   -7.7533    9.6029 H         1 <0>         0.1325
     22 C19        16.5192   -7.8636    8.9213 C.ar      1 <0>        -0.1555
     23 C20        17.6943   -7.1527    8.7596 C.ar      1 <0>        -0.0897
     24 C21        18.8960   -7.8220    8.6339 C.ar      1 <0>        -0.1374
     25 C22        18.9235   -9.2088    8.6705 C.ar      1 <0>         0.1336
     26 C23        17.7435   -9.9195    8.8332 C.ar      1 <0>        -0.1102
     27 C24        16.5447   -9.2452    8.9637 C.ar      1 <0>        -0.0623
     28 C25        17.7698  -11.4258    8.8734 C.3       1 <0>         0.1174
     29 O2         16.4407  -11.9209    9.0479 O.3       1 <0>        -0.5756
     30 O3         20.1046   -9.8696    8.5466 O.3       1 <0>        -0.4942
     31 O4         15.4185   -5.9103    9.7708 O.3       1 <0>        -0.5480
     32 H2         -0.9591    1.9053    0.0259 H         1 <0>         0.1221
     33 H3          1.1563    3.1654    0.0076 H         1 <0>         0.1223
     34 H4          3.3051    1.9634   -0.0196 H         1 <0>         0.1205
     35 H5          1.2231   -1.7588   -0.0176 H         1 <0>         0.1205
     36 H6         -0.9258   -0.5567    0.0082 H         1 <0>         0.1223
     37 H7          3.5884   -1.6586   -0.5549 H         1 <0>         0.0739
     38 H8          4.4573   -0.1052   -0.5563 H         1 <0>         0.0739
     39 H9          4.2941   -0.0118    1.9163 H         1 <0>         0.0659
     40 H10         3.4252   -1.5652    1.9176 H         1 <0>         0.0660
     41 H11         5.3838   -2.6617    0.8639 H         1 <0>         0.0722
     42 H12         6.2527   -1.1082    0.8625 H         1 <0>         0.0721
     43 H13         6.0895   -1.0148    3.3350 H         1 <0>         0.0495
     44 H14         5.2206   -2.5682    3.3364 H         1 <0>         0.0495
     45 H15         7.8942   -2.0231    4.6437 H         1 <0>         0.0481
     46 H16         7.0252   -3.5766    4.6451 H         1 <0>         0.0482
     47 H17         8.9050   -4.6291    3.4174 H         1 <0>         0.0732
     48 H18         9.7740   -3.0757    3.4160 H         1 <0>         0.0731
     49 H19         9.7817   -3.0778    5.8957 H         1 <0>         0.0688
     50 H20         8.9127   -4.6313    5.8970 H         1 <0>         0.0688
     51 H21        10.7925   -5.6838    4.6693 H         1 <0>         0.0761
     52 H22        11.6615   -4.1304    4.6680 H         1 <0>         0.0758
     53 H23        11.6692   -4.1325    7.1476 H         1 <0>         0.0884
     54 H24        10.8002   -5.6860    7.1490 H         1 <0>         0.0886
     55 H25        12.6800   -6.7385    5.9213 H         1 <0>         0.1325
     56 H26        13.5489   -5.1851    5.9199 H         1 <0>         0.1316
     57 H27        13.5226   -5.2440    8.3037 H         1 <0>         0.4314
     58 H28        14.4922   -7.7512    7.1233 H         1 <0>         0.1450
     59 H29        15.3612   -6.1977    7.1220 H         1 <0>         0.1366
     60 H30        17.6723   -6.0733    8.7311 H         1 <0>         0.1276
     61 H31        19.8133   -7.2664    8.5069 H         1 <0>         0.1403
     62 H32        15.6261   -9.7980    9.0945 H         1 <0>         0.1419
     63 H33        18.1797  -11.8071    7.9381 H         1 <0>         0.0707
     64 H34        18.3928  -11.7563    9.7045 H         1 <0>         0.0653
     65 H35        16.3818  -12.8855    9.0828 H         1 <0>         0.3932
     66 H36        20.5525  -10.0356    9.3874 H         1 <0>         0.4011
     67 H37        16.0402   -5.3061    9.3424 H         1 <0>         0.3878
     68 H38        12.7182   -6.6820    8.3050 H         1 <0>         0.4294
@<TRIPOS>BOND
     1    1    6 ar
     2    1    2 ar
     3    1   32 1
     4    2    3 ar
     5    2   33 1
     6    3    4 ar
     7    3   34 1
     8    4    5 ar
     9    4    7 1
    10    5    6 ar
    11    5   35 1
    12    6   36 1
    13    7    8 1
    14    7   37 1
    15    7   38 1
    16    8    9 1
    17    8   39 1
    18    8   40 1
    19    9   10 1
    20    9   41 1
    21    9   42 1
    22   10   11 1
    23   10   43 1
    24   10   44 1
    25   11   12 1
    26   12   13 1
    27   12   45 1
    28   12   46 1
    29   13   14 1
    30   13   47 1
    31   13   48 1
    32   14   15 1
    33   14   49 1
    34   14   50 1
    35   15   16 1
    36   15   51 1
    37   15   52 1
    38   16   17 1
    39   16   53 1
    40   16   54 1
    41   17   18 1
    42   17   55 1
    43   17   56 1
    44   18   19 1
    45   18   57 1
    46   18   68 1
    47   19   20 1
    48   19   58 1
    49   19   59 1
    50   20   21 1
    51   20   22 1
    52   20   31 1
    53   22   27 ar
    54   22   23 ar
    55   23   24 ar
    56   23   60 1
    57   24   25 ar
    58   24   61 1
    59   25   26 ar
    60   25   30 1
    61   26   27 ar
    62   26   28 1
    63   27   62 1
    64   28   29 1
    65   28   63 1
    66   28   64 1
    67   29   65 1
    68   30   66 1
    69   31   67 1
@<TRIPOS>MOLECULE
ZINC03939153
   82    84     0     0     0
SMALL
USER_CHARGES

@<TRIPOS>ATOM
      1 C1          5.8201  -21.3075   18.1761 C.3       1 <0>        -0.1553
      2 C2          5.7053  -21.0453   16.6731 C.3       1 <0>        -0.1266
      3 C3          5.4357  -19.5584   16.4339 C.3       1 <0>        -0.1197
      4 C4          5.3209  -19.2963   14.9309 C.3       1 <0>        -0.1179
      5 C5          5.0514  -17.8093   14.6916 C.3       1 <0>        -0.1318
      6 C6          4.9366  -17.5472   13.1886 C.3       1 <0>         0.1343
      7 N1          4.6785  -16.1234   12.9595 N.am      1 <0>        -0.7374
      8 C7          4.5396  -15.6575   11.7025 C.2       1 <0>         0.7026
      9 O1          4.6285  -16.4188   10.7586 O.2       1 <0>        -0.5656
     10 N2          4.3021  -14.3476   11.4918 N.am      1 <0>        -0.6902
     11 C8          4.2552  -13.8463   10.1861 C.ar      1 <0>         0.2289
     12 C9          4.7410  -12.5747    9.9111 C.ar      1 <0>        -0.1713
     13 C10         4.6937  -12.0830    8.6214 C.ar      1 <0>         0.0028
     14 C11         4.1632  -12.8553    7.6044 C.ar      1 <0>        -0.6960
     15 C12         3.6782  -14.1217    7.8750 C.ar      1 <0>         0.0056
     16 C13         3.7279  -14.6214    9.1616 C.ar      1 <0>        -0.1397
     17 S1          4.1047  -12.2243    5.9603 S.o2      1 <0>         2.6896
     18 O2          2.9885  -12.8371    5.3296 O.2       1 <0>        -0.9398
     19 O3          4.2428  -10.8136    6.0616 O.2       1 <0>        -0.9466
     20 N3          5.4541  -12.7768    5.1754 N.pl3     1 <0>        -1.0600
     21 C14         6.7235  -12.3948    5.6154 C.ar      1 <0>         0.1684
     22 C15         6.9787  -11.0676    5.9363 C.ar      1 <0>        -0.1510
     23 C16         8.2348  -10.6933    6.3715 C.ar      1 <0>        -0.0827
     24 C17         9.2381  -11.6379    6.4874 C.ar      1 <0>        -0.1217
     25 C18         8.9874  -12.9600    6.1687 C.ar      1 <0>        -0.0879
     26 C19         7.7319  -13.3421    5.7384 C.ar      1 <0>        -0.1257
     27 C20        10.6078  -11.2256    6.9616 C.3       1 <0>        -0.0992
     28 C21        10.6753  -11.3392    8.4859 C.3       1 <0>        -0.0084
     29 N4         12.0105  -10.9373    8.9482 N.4       1 <0>        -0.5039
     30 C22        12.0754  -11.0464   10.4117 C.3       1 <0>        -0.0418
     31 C23        13.4660  -10.6277   10.8932 C.3       1 <0>         0.0855
     32 H1         13.6579   -9.5965   10.5968 H         1 <0>         0.1367
     33 C24        13.5336  -10.7413   12.4175 C.3       1 <0>         0.0291
     34 O4         14.7907  -10.2409   12.8772 O.3       1 <0>        -0.3008
     35 C25        15.0137  -10.2702   14.2183 C.ar      1 <0>         0.1089
     36 C26        14.0441  -10.7756   15.0716 C.ar      1 <0>        -0.1915
     37 C27        14.2706  -10.8053   16.4339 C.ar      1 <0>        -0.1064
     38 C28        15.4678  -10.3301   16.9484 C.ar      1 <0>         0.0806
     39 C29        16.4377   -9.8256   16.0949 C.ar      1 <0>        -0.1024
     40 C30        16.2130   -9.7999   14.7323 C.ar      1 <0>        -0.1257
     41 O5         15.6904  -10.3586   18.2896 O.3       1 <0>        -0.4957
     42 O6         14.4501  -11.4826   10.3077 O.3       1 <0>        -0.5430
     43 H2          4.8890  -21.0235   18.6666 H         1 <0>         0.0544
     44 H3          6.0121  -22.3668   18.3466 H         1 <0>         0.0556
     45 H4          6.6409  -20.7189   18.5859 H         1 <0>         0.0531
     46 H5          6.6363  -21.3293   16.1826 H         1 <0>         0.0611
     47 H6          4.8845  -21.6339   16.2633 H         1 <0>         0.0626
     48 H7          4.5047  -19.2744   16.9243 H         1 <0>         0.0631
     49 H8          6.2565  -18.9698   16.8437 H         1 <0>         0.0612
     50 H9          6.2520  -19.5803   14.4404 H         1 <0>         0.0659
     51 H10         4.5001  -19.8849   14.5210 H         1 <0>         0.0681
     52 H11         4.1203  -17.5253   15.1821 H         1 <0>         0.0716
     53 H12         5.8722  -17.2207   15.1014 H         1 <0>         0.0688
     54 H13         5.8676  -17.8312   12.6981 H         1 <0>         0.0696
     55 H14         4.1158  -18.1358   12.7788 H         1 <0>         0.0722
     56 H15         4.6075  -15.5161   13.7125 H         1 <0>         0.3998
     57 H16         4.1637  -13.7525   12.2451 H         1 <0>         0.4122
     58 H17         5.1551  -11.9709   10.7050 H         1 <0>         0.1349
     59 H18         5.0710  -11.0940    8.4069 H         1 <0>         0.1438
     60 H19         3.2642  -14.7223    7.0786 H         1 <0>         0.1444
     61 H20         3.3533  -15.6124    9.3715 H         1 <0>         0.1535
     62 H21         5.3630  -13.3658    4.4101 H         1 <0>         0.4324
     63 H22         6.1958  -10.3292    5.8453 H         1 <0>         0.1642
     64 H23         8.4339   -9.6616    6.6212 H         1 <0>         0.1326
     65 H24         9.7731  -13.6953    6.2604 H         1 <0>         0.1295
     66 H25         7.5356  -14.3756    5.4940 H         1 <0>         0.1358
     67 H26        11.3584  -11.8777    6.5151 H         1 <0>         0.0973
     68 H27        10.7997  -10.1944    6.6653 H         1 <0>         0.0984
     69 H28         9.9247  -10.6871    8.9325 H         1 <0>         0.1352
     70 H29        10.4834  -12.3704    8.7823 H         1 <0>         0.1337
     71 H30        12.7054  -11.5409    8.5348 H         1 <0>         0.4337
     72 H31        11.3247  -10.3943   10.8583 H         1 <0>         0.1471
     73 H32        11.8835  -12.0776   10.7081 H         1 <0>         0.1392
     74 H33        12.7263  -10.1588   12.8614 H         1 <0>         0.0818
     75 H34        13.4301  -11.7866   12.7089 H         1 <0>         0.0764
     76 H35        13.1119  -11.1455   14.6710 H         1 <0>         0.1280
     77 H36        13.5153  -11.1981   17.0985 H         1 <0>         0.1349
     78 H37        17.3698   -9.4553   16.4956 H         1 <0>         0.1419
     79 H38        16.9697   -9.4104   14.0674 H         1 <0>         0.1390
     80 H39        16.1074  -11.1732   18.6019 H         1 <0>         0.3940
     81 H40        14.3409  -12.4175   10.5293 H         1 <0>         0.3900
     82 H41        12.1882   -9.9827    8.6739 H         1 <0>         0.4316
@<TRIPOS>BOND
     1    1    2 1
     2    1   43 1
     3    1   44 1
     4    1   45 1
     5    2    3 1
     6    2   46 1
     7    2   47 1
     8    3    4 1
     9    3   48 1
    10    3   49 1
    11    4    5 1
    12    4   50 1
    13    4   51 1
    14    5    6 1
    15    5   52 1
    16    5   53 1
    17    6    7 1
    18    6   54 1
    19    6   55 1
    20    7    8 am
    21    7   56 1
    22    8    9 2
    23    8   10 am
    24   10   11 1
    25   10   57 1
    26   11   16 ar
    27   11   12 ar
    28   12   13 ar
    29   12   58 1
    30   13   14 ar
    31   13   59 1
    32   14   15 ar
    33   14   17 1
    34   15   16 ar
    35   15   60 1
    36   16   61 1
    37   17   18 2
    38   17   19 2
    39   17   20 1
    40   20   21 1
    41   20   62 1
    42   21   26 ar
    43   21   22 ar
    44   22   23 ar
    45   22   63 1
    46   23   24 ar
    47   23   64 1
    48   24   25 ar
    49   24   27 1
    50   25   26 ar
    51   25   65 1
    52   26   66 1
    53   27   28 1
    54   27   67 1
    55   27   68 1
    56   28   29 1
    57   28   69 1
    58   28   70 1
    59   29   30 1
    60   29   71 1
    61   29   82 1
    62   30   31 1
    63   30   72 1
    64   30   73 1
    65   31   32 1
    66   31   33 1
    67   31   42 1
    68   33   34 1
    69   33   74 1
    70   33   75 1
    71   34   35 1
    72   35   40 ar
    73   35   36 ar
    74   36   37 ar
    75   36   76 1
    76   37   38 ar
    77   37   77 1
    78   38   39 ar
    79   38   41 1
    80   39   40 ar
    81   39   78 1
    82   40   79 1
    83   41   80 1
    84   42   81 1
@<TRIPOS>MOLECULE
ZINC02599970
   50    51     0     0     0
SMALL
USER_CHARGES

@<TRIPOS>ATOM
      1 C1         -0.0239    1.4905   -0.0463 C.3       1 <0>        -0.1838
      2 C2          0.0028   -0.0393   -0.0466 C.3       1 <0>         0.0285
      3 H1          0.5192   -0.3935   -0.9388 H         1 <0>         0.1401
      4 C3         -1.4306   -0.5744   -0.0408 C.3       1 <0>        -0.0923
      5 C4         -1.4068   -2.0761   -0.1649 C.ar      1 <0>        -0.1709
      6 C5         -1.4316   -2.6657   -1.4153 C.ar      1 <0>        -0.0628
      7 C6         -1.4103   -4.0420   -1.5318 C.ar      1 <0>        -0.1424
      8 C7         -1.3634   -4.8327   -0.3929 C.ar      1 <0>         0.1474
      9 C8         -1.3381   -4.2387    0.8606 C.ar      1 <0>        -0.2009
     10 C9         -1.3544   -2.8618    0.9716 C.ar      1 <0>        -0.0974
     11 O1         -1.3428   -6.1870   -0.5048 O.3       1 <0>        -0.3102
     12 C10        -1.2945   -6.9377    0.7101 C.3       1 <0>         0.0226
     13 N1          0.7087   -0.5170    1.1498 N.4       1 <0>        -0.5048
     14 C11         2.1168   -0.1038    1.0852 C.3       1 <0>        -0.0462
     15 C12         2.8520   -0.6013    2.3313 C.3       1 <0>         0.1378
     16 H2          2.7943   -1.6888    2.3773 H         1 <0>         0.1319
     17 C13         4.2967   -0.1774    2.2651 C.ar      1 <0>        -0.1327
     18 C14         4.6688    1.0764    2.7141 C.ar      1 <0>        -0.1041
     19 C15         5.9924    1.4711    2.6554 C.ar      1 <0>        -0.1192
     20 C16         6.9505    0.6097    2.1457 C.ar      1 <0>         0.1018
     21 C17         6.5764   -0.6537    1.6937 C.ar      1 <0>         0.1239
     22 C18         5.2471   -1.0448    1.7609 C.ar      1 <0>        -0.0918
     23 N2          7.5410   -1.5291    1.1772 N.am      1 <0>        -0.6778
     24 C19         7.4272   -2.8558    1.3854 C.2       1 <0>         0.4952
     25 O2          6.4494   -3.2996    1.9494 O.2       1 <0>        -0.5353
     26 O3          8.2526    0.9968    2.0865 O.3       1 <0>        -0.4924
     27 O4          2.2446   -0.0423    3.4978 O.3       1 <0>        -0.5459
     28 H3          0.9973    1.8716   -0.0504 H         1 <0>         0.0818
     29 H4         -0.5477    1.8449   -0.9340 H         1 <0>         0.1084
     30 H5         -0.5403    1.8446    0.8459 H         1 <0>         0.0839
     31 H6         -1.9190   -0.2947    0.8927 H         1 <0>         0.0965
     32 H7         -1.9806   -0.1491   -0.8802 H         1 <0>         0.1205
     33 H8         -1.4681   -2.0497   -2.3017 H         1 <0>         0.1365
     34 H9         -1.4304   -4.5021   -2.5087 H         1 <0>         0.1403
     35 H10        -1.3017   -4.8521    1.7487 H         1 <0>         0.1373
     36 H11        -1.3302   -2.3988    1.9470 H         1 <0>         0.1249
     37 H12        -1.2824   -8.0028    0.4788 H         1 <0>         0.1094
     38 H13        -0.3926   -6.6758    1.2634 H         1 <0>         0.0595
     39 H14        -2.1715   -6.7071    1.3148 H         1 <0>         0.0610
     40 H15         0.2798   -0.1223    1.9734 H         1 <0>         0.4277
     41 H16         2.5802   -0.5302    0.1955 H         1 <0>         0.1436
     42 H17         2.1746    0.9837    1.0392 H         1 <0>         0.1403
     43 H18         3.9233    1.7493    3.1113 H         1 <0>         0.1289
     44 H19         6.2796    2.4511    3.0066 H         1 <0>         0.1423
     45 H20         4.9544   -2.0252    1.4154 H         1 <0>         0.1482
     46 H21         8.2905   -1.1802    0.6699 H         1 <0>         0.4225
     47 H22         8.2068   -3.5238    1.0501 H         1 <0>         0.1547
     48 H23         8.7638    0.7798    2.8782 H         1 <0>         0.3997
     49 H24         2.2599    0.9242    3.5244 H         1 <0>         0.3872
     50 H25         0.6552   -1.5237    1.1924 H         1 <0>         0.4265
@<TRIPOS>BOND
     1    1    2 1
     2    1   28 1
     3    1   29 1
     4    1   30 1
     5    2    3 1
     6    2    4 1
     7    2   13 1
     8    4    5 1
     9    4   31 1
    10    4   32 1
    11    5   10 ar
    12    5    6 ar
    13    6    7 ar
    14    6   33 1
    15    7    8 ar
    16    7   34 1
    17    8    9 ar
    18    8   11 1
    19    9   10 ar
    20    9   35 1
    21   10   36 1
    22   11   12 1
    23   12   37 1
    24   12   38 1
    25   12   39 1
    26   13   14 1
    27   13   40 1
    28   13   50 1
    29   14   15 1
    30   14   41 1
    31   14   42 1
    32   15   16 1
    33   15   17 1
    34   15   27 1
    35   17   22 ar
    36   17   18 ar
    37   18   19 ar
    38   18   43 1
    39   19   20 ar
    40   19   44 1
    41   20   21 ar
    42   20   26 1
    43   21   22 ar
    44   21   23 1
    45   22   45 1
    46   23   24 am
    47   23   46 1
    48   24   25 2
    49   24   47 1
    50   26   48 1
    51   27   49 1
@<TRIPOS>MOLECULE
ZINC00057624
   24    24     0     0     0
SMALL
USER_CHARGES

@<TRIPOS>ATOM
      1 C1         -0.0167    1.3779    0.0096 C.ar      1 <0>        -0.0981
      2 C2          1.1696    2.0886    0.0021 C.ar      1 <0>        -0.1236
      3 C3          2.3802    1.4154   -0.0130 C.ar      1 <0>         0.1055
      4 C4          2.3990    0.0236   -0.0206 C.ar      1 <0>         0.0900
      5 C5          1.2071   -0.6822   -0.0130 C.ar      1 <0>        -0.1137
      6 C6          0.0021   -0.0041    0.0020 C.ar      1 <0>        -0.1399
      7 C7         -1.2936   -0.7736    0.0102 C.3       1 <0>         0.1354
      8 H1         -1.1263   -1.7622    0.4376 H         1 <0>         0.1339
      9 C8         -1.8100   -0.9182   -1.4228 C.3       1 <0>        -0.0430
     10 N1         -3.0730   -1.6683   -1.4148 N.4       1 <0>        -0.6330
     11 O1         -2.2593   -0.0721    0.7960 O.3       1 <0>        -0.5475
     12 O2          3.5850   -0.6417   -0.0359 O.3       1 <0>        -0.4846
     13 O3          3.5476    2.1129   -0.0209 O.3       1 <0>        -0.4848
     14 H2         -0.9598    1.9038    0.0259 H         1 <0>         0.1309
     15 H3          1.1522    3.1684    0.0077 H         1 <0>         0.1437
     16 H4          1.2190   -1.7621   -0.0189 H         1 <0>         0.1389
     17 H5         -1.9772    0.0704   -1.8502 H         1 <0>         0.1398
     18 H6         -1.0734   -1.4533   -2.0221 H         1 <0>         0.1477
     19 H7         -2.9181   -2.5835   -1.0191 H         1 <0>         0.4371
     20 H8         -3.7548   -1.1730   -0.8600 H         1 <0>         0.4387
     21 H9         -2.4578    0.8175    0.4731 H         1 <0>         0.3897
     22 H10         3.9367   -0.8389    0.8430 H         1 <0>         0.3974
     23 H11         3.8938    2.3101    0.8602 H         1 <0>         0.3992
     24 H12        -3.4135   -1.7637   -2.3598 H         1 <0>         0.4402
@<TRIPOS>BOND
     1    1    6 ar
     2    1    2 ar
     3    1   14 1
     4    2    3 ar
     5    2   15 1
     6    3    4 ar
     7    3   13 1
     8    4    5 ar
     9    4   12 1
    10    5    6 ar
    11    5   16 1
    12    6    7 1
    13    7    8 1
    14    7    9 1
    15    7   11 1
    16    9   10 1
    17    9   17 1
    18    9   18 1
    19   10   19 1
    20   10   20 1
    21   10   24 1
    22   11   21 1
    23   12   22 1
    24   13   23 1
@<TRIPOS>MOLECULE
ZINC02880812
   42    43     0     0     0
SMALL
USER_CHARGES

@<TRIPOS>ATOM
      1 C1         -0.0187    1.5258    0.0104 C.3       1 <0>        -0.1896
      2 C2          0.0021   -0.0041    0.0020 C.3       1 <0>         0.0811
      3 H1          0.5123   -0.3556   -0.8948 H         1 <0>         0.1234
      4 C3          0.7421   -0.5109    1.2415 C.3       1 <0>        -0.0467
      5 N1          0.8668   -1.9730    1.1737 N.4       1 <0>        -0.5077
      6 C4          1.5773   -2.4597    2.3638 C.3       1 <0>         0.0006
      7 C5          1.7071   -3.9825    2.2931 C.3       1 <0>         0.0225
      8 O1          2.5367   -4.3389    1.1855 O.3       1 <0>        -0.3208
      9 C6          2.7553   -5.6638    0.9798 C.ar      1 <0>         0.1250
     10 C7          2.1798   -6.6024    1.8215 C.ar      1 <0>        -0.2013
     11 C8          2.4033   -7.9497    1.6115 C.ar      1 <0>        -0.0754
     12 C9          3.2010   -8.3700    0.5617 C.ar      1 <0>        -0.1371
     13 C10         3.7803   -7.4460   -0.2841 C.ar      1 <0>        -0.0673
     14 C11         3.5569   -6.0855   -0.0850 C.ar      1 <0>        -0.0688
     15 C12         4.1717   -5.0886   -0.9951 C.ar      1 <0>        -0.0409
     16 C13         3.3911   -4.0807   -1.5584 C.ar      1 <0>        -0.1066
     17 C14         3.9686   -3.1555   -2.4041 C.ar      1 <0>        -0.1247
     18 C15         5.3194   -3.2272   -2.6930 C.ar      1 <0>        -0.1139
     19 C16         6.0989   -4.2256   -2.1372 C.ar      1 <0>        -0.1118
     20 C17         5.5332   -5.1528   -1.2856 C.ar      1 <0>        -0.1039
     21 O2         -1.3386   -0.4987    0.0122 O.3       1 <0>        -0.5566
     22 H2          1.0039    1.9031    0.0027 H         1 <0>         0.0802
     23 H3         -0.5459    1.8868   -0.8726 H         1 <0>         0.0883
     24 H4         -0.5289    1.8773    0.9072 H         1 <0>         0.0723
     25 H5          1.7350   -0.0630    1.2804 H         1 <0>         0.1435
     26 H6          0.1838   -0.2350    2.1361 H         1 <0>         0.1367
     27 H7         -0.0524   -2.3877    1.1377 H         1 <0>         0.4314
     28 H8          2.5702   -2.0117    2.4026 H         1 <0>         0.1436
     29 H9          1.0190   -2.1838    3.2584 H         1 <0>         0.1517
     30 H10         2.1544   -4.3522    3.2158 H         1 <0>         0.1111
     31 H11         0.7196   -4.4258    2.1649 H         1 <0>         0.0881
     32 H12         1.5563   -6.2804    2.6425 H         1 <0>         0.1298
     33 H13         1.9537   -8.6782    2.2700 H         1 <0>         0.1329
     34 H14         3.3711   -9.4247    0.4039 H         1 <0>         0.1344
     35 H15         4.4028   -7.7776   -1.1020 H         1 <0>         0.1371
     36 H16         2.3363   -4.0241   -1.3338 H         1 <0>         0.1129
     37 H17         3.3646   -2.3743   -2.8414 H         1 <0>         0.1222
     38 H18         5.7672   -2.5011   -3.3554 H         1 <0>         0.1256
     39 H19         7.1530   -4.2773   -2.3667 H         1 <0>         0.1284
     40 H20         6.1436   -5.9292   -0.8486 H         1 <0>         0.1259
     41 H21        -1.8531   -0.2245    0.7836 H         1 <0>         0.3901
     42 H22         1.3836   -2.2284    0.3456 H         1 <0>         0.4343
@<TRIPOS>BOND
     1    1    2 1
     2    1   22 1
     3    1   23 1
     4    1   24 1
     5    2    3 1
     6    2    4 1
     7    2   21 1
     8    4    5 1
     9    4   25 1
    10    4   26 1
    11    5    6 1
    12    5   27 1
    13    5   42 1
    14    6    7 1
    15    6   28 1
    16    6   29 1
    17    7    8 1
    18    7   30 1
    19    7   31 1
    20    8    9 1
    21    9   14 ar
    22    9   10 ar
    23   10   11 ar
    24   10   32 1
    25   11   12 ar
    26   11   33 1
    27   12   13 ar
    28   12   34 1
    29   13   14 ar
    30   13   35 1
    31   14   15 1
    32   15   20 ar
    33   15   16 ar
    34   16   17 ar
    35   16   36 1
    36   17   18 ar
    37   17   37 1
    38   18   19 ar
    39   18   38 1
    40   19   20 ar
    41   19   39 1
    42   20   40 1
    43   21   41 1
@<TRIPOS>MOLECULE
ZINC02880813
   42    43     0     0     0
SMALL
USER_CHARGES

@<TRIPOS>ATOM
      1 C1         -0.0187    1.5258    0.0104 C.3       1 <0>        -0.1896
      2 C2          0.0021   -0.0041    0.0020 C.3       1 <0>         0.0813
      3 H1         -1.0205   -0.3814    0.0098 H         1 <0>         0.1238
      4 C3          0.7421   -0.5109    1.2415 C.3       1 <0>        -0.0474
      5 N1          0.7620   -1.9797    1.2335 N.4       1 <0>        -0.5074
      6 C4          1.4725   -2.4664    2.4236 C.3       1 <0>         0.0005
      7 C5          1.4932   -3.9962    2.4152 C.3       1 <0>         0.0224
      8 O1          2.2618   -4.4560    1.3017 O.3       1 <0>        -0.3203
      9 C6          2.3808   -5.8004    1.1475 C.ar      1 <0>         0.1248
     10 C7          1.7668   -6.6603    2.0443 C.ar      1 <0>        -0.2016
     11 C8          1.8890   -8.0276    1.8867 C.ar      1 <0>        -0.0757
     12 C9          2.6231   -8.5464    0.8345 C.ar      1 <0>        -0.1372
     13 C10         3.2396   -7.7017   -0.0659 C.ar      1 <0>        -0.0674
     14 C11         3.1182   -6.3216    0.0803 C.ar      1 <0>        -0.0682
     15 C12         3.7734   -5.4093   -0.8885 C.ar      1 <0>        -0.0421
     16 C13         3.0485   -4.3725   -1.4731 C.ar      1 <0>        -0.1046
     17 C14         3.6634   -3.5263   -2.3735 C.ar      1 <0>        -0.1232
     18 C15         4.9965   -3.7058   -2.6959 C.ar      1 <0>        -0.1146
     19 C16         5.7207   -4.7335   -2.1190 C.ar      1 <0>        -0.1126
     20 C17         5.1176   -5.5822   -1.2130 C.ar      1 <0>        -0.1044
     21 O2          0.6709   -0.4649   -1.1737 O.3       1 <0>        -0.5560
     22 H2          1.0039    1.9031    0.0027 H         1 <0>         0.0721
     23 H3         -0.5459    1.8868   -0.8726 H         1 <0>         0.0883
     24 H4         -0.5289    1.8773    0.9072 H         1 <0>         0.0799
     25 H5          1.7647   -0.1336    1.2338 H         1 <0>         0.1362
     26 H6          0.2319   -0.1594    2.1383 H         1 <0>         0.1436
     27 H7         -0.1846   -2.3290    1.2406 H         1 <0>         0.4282
     28 H8          2.4951   -2.0891    2.4158 H         1 <0>         0.1429
     29 H9          0.9623   -2.1149    3.3204 H         1 <0>         0.1522
     30 H10         1.9413   -4.3586    3.3404 H         1 <0>         0.1111
     31 H11         0.4737   -4.3730    2.3333 H         1 <0>         0.0879
     32 H12         1.1926   -6.2613    2.8674 H         1 <0>         0.1296
     33 H13         1.4097   -8.6945    2.5881 H         1 <0>         0.1327
     34 H14         2.7140   -9.6162    0.7178 H         1 <0>         0.1343
     35 H15         3.8123   -8.1101   -0.8854 H         1 <0>         0.1371
     36 H16         2.0075   -4.2316   -1.2224 H         1 <0>         0.1135
     37 H17         3.1025   -2.7227   -2.8275 H         1 <0>         0.1238
     38 H18         5.4736   -3.0413   -3.4010 H         1 <0>         0.1252
     39 H19         6.7611   -4.8695   -2.3749 H         1 <0>         0.1279
     40 H20         5.6852   -6.3815   -0.7598 H         1 <0>         0.1254
     41 H21         1.5879   -0.1667   -1.2470 H         1 <0>         0.3902
     42 H22         1.2343   -2.3051    0.4033 H         1 <0>         0.4375
@<TRIPOS>BOND
     1    1    2 1
     2    1   22 1
     3    1   23 1
     4    1   24 1
     5    2    3 1
     6    2    4 1
     7    2   21 1
     8    4    5 1
     9    4   25 1
    10    4   26 1
    11    5    6 1
    12    5   27 1
    13    5   42 1
    14    6    7 1
    15    6   28 1
    16    6   29 1
    17    7    8 1
    18    7   30 1
    19    7   31 1
    20    8    9 1
    21    9   14 ar
    22    9   10 ar
    23   10   11 ar
    24   10   32 1
    25   11   12 ar
    26   11   33 1
    27   12   13 ar
    28   12   34 1
    29   13   14 ar
    30   13   35 1
    31   14   15 1
    32   15   20 ar
    33   15   16 ar
    34   16   17 ar
    35   16   36 1
    36   17   18 ar
    37   17   37 1
    38   18   19 ar
    39   18   38 1
    40   19   20 ar
    41   19   39 1
    42   20   40 1
    43   21   41 1
@<TRIPOS>MOLECULE
ZINC03872880
   48    49     0     0     0
SMALL
USER_CHARGES

@<TRIPOS>ATOM
      1 C1         -0.0184    1.5028    0.0103 C.3       1 <0>        -0.1163
      2 C2          0.0021   -0.0041    0.0020 C.ar      1 <0>        -0.0984
      3 C3          0.0056   -0.6848   -1.2003 C.ar      1 <0>        -0.0818
      4 C4          0.0245   -2.0659   -1.2119 C.ar      1 <0>        -0.2059
      5 C5          0.0398   -2.7663   -0.0155 C.ar      1 <0>         0.1239
      6 C6          0.0361   -2.0811    1.1932 C.ar      1 <0>        -0.1176
      7 C7          0.0229   -0.6994    1.1996 C.ar      1 <0>        -0.0542
      8 C8          0.0285   -0.1944    2.6267 C.3       1 <0>        -0.0858
      9 C9         -0.3873   -1.4072    3.4860 C.3       1 <0>        -0.1226
     10 C10         0.0501   -2.5998    2.6150 C.3       1 <0>        -0.0719
     11 O1          0.0579   -4.1251   -0.0250 O.3       1 <0>        -0.3006
     12 C11         0.0602   -4.7650   -1.3027 C.3       1 <0>         0.0297
     13 C12         0.0814   -6.2830   -1.1129 C.3       1 <0>         0.0925
     14 H1         -0.7533   -6.5816   -0.4787 H         1 <0>         0.1344
     15 C13        -0.0419   -6.9691   -2.4749 C.3       1 <0>        -0.0119
     16 H2         -0.9349   -6.6073   -2.9844 H         1 <0>         0.1532
     17 C14         1.1925   -6.6496   -3.3205 C.3       1 <0>        -0.1952
     18 N1         -0.1419   -8.4222   -2.2839 N.4       1 <0>        -0.5000
     19 C15        -0.3802   -9.0712   -3.5801 C.3       1 <0>         0.0191
     20 C16        -0.3602  -10.5905   -3.4010 C.3       1 <0>        -0.1839
     21 C17        -1.7437   -8.6396   -4.1235 C.3       1 <0>        -0.1855
     22 O2          1.3108   -6.6686   -0.4949 O.3       1 <0>        -0.5405
     23 H3          1.0042    1.8801    0.0026 H         1 <0>         0.0722
     24 H4         -0.5455    1.8639   -0.8728 H         1 <0>         0.0675
     25 H5         -0.5286    1.8543    0.9071 H         1 <0>         0.0687
     26 H6         -0.0066   -0.1371   -2.1311 H         1 <0>         0.1298
     27 H7          0.0269   -2.5991   -2.1511 H         1 <0>         0.1247
     28 H8          1.0274    0.1417    2.9050 H         1 <0>         0.0867
     29 H9         -0.6905    0.6164    2.7437 H         1 <0>         0.0816
     30 H10         0.1392   -1.4045    4.4404 H         1 <0>         0.0819
     31 H11        -1.4666   -1.4228    3.6377 H         1 <0>         0.0739
     32 H12        -0.6467   -3.4313    2.7212 H         1 <0>         0.0747
     33 H13         1.0567   -2.9109    2.8943 H         1 <0>         0.0789
     34 H14        -0.8365   -4.4802   -1.8533 H         1 <0>         0.0792
     35 H15         0.9433   -4.4564   -1.8621 H         1 <0>         0.0763
     36 H16         2.0856   -7.0114   -2.8109 H         1 <0>         0.0882
     37 H17         1.1047   -7.1384   -4.2908 H         1 <0>         0.0934
     38 H18         1.2667   -5.5714   -3.4622 H         1 <0>         0.1096
     39 H19         0.7184   -8.7693   -1.8871 H         1 <0>         0.4312
     40 H20         0.4002   -8.7778   -4.2822 H         1 <0>         0.1407
     41 H21        -1.1406  -10.8839   -2.6989 H         1 <0>         0.0826
     42 H22        -0.5370  -11.0721   -4.3628 H         1 <0>         0.1079
     43 H23         0.6112  -10.8980   -3.0139 H         1 <0>         0.0826
     44 H24        -2.5241   -8.9330   -3.4214 H         1 <0>         0.0836
     45 H25        -1.7579   -7.5571   -4.2511 H         1 <0>         0.0795
     46 H26        -1.9205   -9.1211   -5.0853 H         1 <0>         0.1079
     47 H27         2.0981   -6.4338   -1.0050 H         1 <0>         0.3876
     48 H28        -0.9072   -8.6275   -1.6593 H         1 <0>         0.4281
@<TRIPOS>BOND
     1    1    2 1
     2    1   23 1
     3    1   24 1
     4    1   25 1
     5    2    7 ar
     6    2    3 ar
     7    3    4 ar
     8    3   26 1
     9    4    5 ar
    10    4   27 1
    11    5    6 ar
    12    5   11 1
    13    6   10 1
    14    6    7 ar
    15    7    8 1
    16    8    9 1
    17    8   28 1
    18    8   29 1
    19    9   10 1
    20    9   30 1
    21    9   31 1
    22   10   32 1
    23   10   33 1
    24   11   12 1
    25   12   13 1
    26   12   34 1
    27   12   35 1
    28   13   14 1
    29   13   15 1
    30   13   22 1
    31   15   16 1
    32   15   17 1
    33   15   18 1
    34   17   36 1
    35   17   37 1
    36   17   38 1
    37   18   19 1
    38   18   39 1
    39   18   48 1
    40   19   20 1
    41   19   21 1
    42   19   40 1
    43   20   41 1
    44   20   42 1
    45   20   43 1
    46   21   44 1
    47   21   45 1
    48   21   46 1
    49   22   47 1
@<TRIPOS>MOLECULE
ZINC66097848
   69    71     0     0     0
SMALL
USER_CHARGES

@<TRIPOS>ATOM
      1 C1         -2.1146   -1.3706    1.7611 C.3       1 <0>        -0.1043
      2 C2         -0.9322   -1.3609    0.8268 C.ar      1 <0>        -0.0575
      3 C3         -0.9442   -2.1409   -0.3071 C.ar      1 <0>        -0.1116
      4 C4          0.1502   -2.1323   -1.1723 C.ar      1 <0>        -0.0761
      5 C5          1.2588   -1.3330   -0.8899 C.ar      1 <0>        -0.1285
      6 C6          1.2744   -0.5523    0.2430 C.ar      1 <0>        -0.0950
      7 C7          0.1754   -0.5550    1.1084 C.ar      1 <0>        -0.1066
      8 C8          0.1873    0.2859    2.3188 C.2       1 <0>         0.5212
      9 O1         -0.7554    1.0280    2.5572 O.co2     1 <0>        -0.6755
     10 O2          1.1399    0.2417    3.0848 O.co2     1 <0>        -0.6879
     11 C9          0.1357   -2.9735   -2.3930 C.ar      1 <0>        -0.0169
     12 C10        -0.8858   -2.8283   -3.3309 C.ar      1 <0>        -0.1080
     13 C11        -0.8939   -3.6137   -4.4653 C.ar      1 <0>        -0.1134
     14 C12         0.1088   -4.5442   -4.6729 C.ar      1 <0>        -0.1296
     15 C13         1.1244   -4.6930   -3.7458 C.ar      1 <0>        -0.0961
     16 C14         1.1463   -3.9087   -2.6103 C.ar      1 <0>        -0.0845
     17 C15         2.2570   -4.0676   -1.6042 C.3       1 <0>         0.1248
     18 H1          2.5177   -3.0921   -1.1938 H         1 <0>         0.0884
     19 C16         1.7934   -4.9890   -0.4742 C.3       1 <0>        -0.1672
     20 O3          3.4012   -4.6366   -2.2438 O.3       1 <0>        -0.3662
     21 C17         4.6470   -4.2369   -1.6692 C.3       1 <0>         0.0303
     22 C18         5.7961   -4.9027   -2.4290 C.3       1 <0>         0.0899
     23 H2          5.7126   -4.6701   -3.4906 H         1 <0>         0.1306
     24 C19         7.1311   -4.3792   -1.8957 C.3       1 <0>        -0.0532
     25 N1          8.2295   -4.9263   -2.7033 N.4       1 <0>        -0.4968
     26 C20         9.5113   -4.4237   -2.1913 C.3       1 <0>         0.0594
     27 C21         9.5296   -2.8960   -2.2736 C.3       1 <0>        -0.1846
     28 C22         9.6841   -4.8580   -0.7344 C.3       1 <0>        -0.1841
     29 C23        10.6552   -4.9935   -3.0324 C.3       1 <0>        -0.0925
     30 C24        11.9702   -4.4779   -2.5071 C.ar      1 <0>        -0.0661
     31 C25        12.4962   -3.2980   -3.0001 C.ar      1 <0>        -0.1087
     32 C26        13.7021   -2.8235   -2.5196 C.ar      1 <0>        -0.0758
     33 C27        14.3842   -3.5288   -1.5446 C.ar      1 <0>        -0.0671
     34 C28        13.8574   -4.7109   -1.0500 C.ar      1 <0>         0.1178
     35 C29        12.6467   -5.1817   -1.5290 C.ar      1 <0>        -0.1354
     36 F1         14.5225   -5.4014   -0.0981 F         1 <0>        -0.1181
     37 Cl1        15.8994   -2.9337   -0.9417 Cl        1 <0>        -0.0301
     38 O4          5.7318   -6.3183   -2.2450 O.3       1 <0>        -0.5449
     39 H3         -2.7849   -0.5493    1.5075 H         1 <0>         0.0749
     40 H4         -2.6466   -2.3170    1.6641 H         1 <0>         0.0513
     41 H5         -1.7675   -1.2525    2.7876 H         1 <0>         0.0718
     42 H6         -1.8012   -2.7603   -0.5270 H         1 <0>         0.1172
     43 H7          2.1052   -1.3275   -1.5607 H         1 <0>         0.1093
     44 H8          2.1328    0.0655    0.4617 H         1 <0>         0.1193
     45 H9         -1.6694   -2.1028   -3.1696 H         1 <0>         0.1272
     46 H10        -1.6846   -3.5021   -5.1925 H         1 <0>         0.1232
     47 H11         0.0982   -5.1570   -5.5621 H         1 <0>         0.1201
     48 H12         1.9041   -5.4215   -3.9127 H         1 <0>         0.1254
     49 H13         2.5626   -5.0337    0.2968 H         1 <0>         0.0563
     50 H14         0.8702   -4.6006   -0.0442 H         1 <0>         0.0773
     51 H15         1.6172   -5.9892   -0.8700 H         1 <0>         0.0642
     52 H16         4.7469   -3.1535   -1.7357 H         1 <0>         0.0689
     53 H17         4.6788   -4.5411   -0.6229 H         1 <0>         0.0651
     54 H18         7.1442   -3.2908   -1.9544 H         1 <0>         0.1484
     55 H19         7.2542   -4.6886   -0.8578 H         1 <0>         0.1420
     56 H20         8.2174   -5.9338   -2.6490 H         1 <0>         0.4314
     57 H21         8.7147   -2.4900   -1.6743 H         1 <0>         0.0869
     58 H22        10.4808   -2.5230   -1.8937 H         1 <0>         0.1090
     59 H23         9.4065   -2.5866   -3.3115 H         1 <0>         0.0856
     60 H24         9.6710   -5.9463   -0.6758 H         1 <0>         0.0847
     61 H25        10.6352   -4.4850   -0.3545 H         1 <0>         0.1077
     62 H26         8.8691   -4.4520   -0.1351 H         1 <0>         0.0865
     63 H27        10.6422   -6.0819   -2.9738 H         1 <0>         0.1027
     64 H28        10.5321   -4.6841   -4.0703 H         1 <0>         0.1046
     65 H29        11.9644   -2.7469   -3.7616 H         1 <0>         0.1434
     66 H30        14.1121   -1.9019   -2.9057 H         1 <0>         0.1512
     67 H31        12.2331   -6.1009   -1.1412 H         1 <0>         0.1482
     68 H32         5.7999   -6.5985   -1.3220 H         1 <0>         0.3880
     69 H33         8.1155   -4.6399   -3.6641 H         1 <0>         0.4281
@<TRIPOS>BOND
     1    1    2 1
     2    1   39 1
     3    1   40 1
     4    1   41 1
     5    2    7 ar
     6    2    3 ar
     7    3    4 ar
     8    3   42 1
     9    4    5 ar
    10    4   11 1
    11    5    6 ar
    12    5   43 1
    13    6    7 ar
    14    6   44 1
    15    7    8 1
    16    8    9 2
    17    8   10 1
    18   11   16 ar
    19   11   12 ar
    20   12   13 ar
    21   12   45 1
    22   13   14 ar
    23   13   46 1
    24   14   15 ar
    25   14   47 1
    26   15   16 ar
    27   15   48 1
    28   16   17 1
    29   17   18 1
    30   17   19 1
    31   17   20 1
    32   19   49 1
    33   19   50 1
    34   19   51 1
    35   20   21 1
    36   21   22 1
    37   21   52 1
    38   21   53 1
    39   22   23 1
    40   22   24 1
    41   22   38 1
    42   24   25 1
    43   24   54 1
    44   24   55 1
    45   25   26 1
    46   25   56 1
    47   25   69 1
    48   26   27 1
    49   26   28 1
    50   26   29 1
    51   27   57 1
    52   27   58 1
    53   27   59 1
    54   28   60 1
    55   28   61 1
    56   28   62 1
    57   29   30 1
    58   29   63 1
    59   29   64 1
    60   30   35 ar
    61   30   31 ar
    62   31   32 ar
    63   31   65 1
    64   32   33 ar
    65   32   66 1
    66   33   34 ar
    67   33   37 1
    68   34   35 ar
    69   34   36 1
    70   35   67 1
    71   38   68 1
@<TRIPOS>MOLECULE
ZINC00000746
   36    36     0     0     0
SMALL
USER_CHARGES

@<TRIPOS>ATOM
      1 C1         -0.0187    1.5258    0.0104 C.3       1 <0>        -0.1797
      2 C2          0.0021   -0.0041    0.0020 C.3       1 <0>         0.0547
      3 C3          0.7421   -0.5109    1.2415 C.3       1 <0>        -0.1795
      4 C4         -1.4333   -0.5336    0.0129 C.3       1 <0>        -0.1771
      5 N1          0.6897   -0.4778   -1.2066 N.4       1 <0>        -0.4993
      6 C5          2.0678    0.0307   -1.2170 C.3       1 <0>        -0.0525
      7 C6          2.7840   -0.4628   -2.4758 C.3       1 <0>         0.1380
      8 H1          2.2568   -0.1017   -3.3589 H         1 <0>         0.1344
      9 C7          4.1978    0.0589   -2.4865 C.ar      1 <0>        -0.1065
     10 C8          5.1919   -0.6293   -1.8176 C.ar      1 <0>        -0.1467
     11 C9          6.4946   -0.1510   -1.8260 C.ar      1 <0>         0.1388
     12 C10         6.7981    1.0182   -2.5062 C.ar      1 <0>        -0.1580
     13 C11         5.7989    1.7068   -3.1766 C.ar      1 <0>         0.1381
     14 C12         4.4989    1.2214   -3.1699 C.ar      1 <0>        -0.1416
     15 O1          6.0933    2.8535   -3.8439 O.3       1 <0>        -0.4932
     16 O2          7.4718   -0.8279   -1.1675 O.3       1 <0>        -0.4936
     17 O3          2.8033   -1.8916   -2.4837 O.3       1 <0>        -0.5464
     18 H2          1.0039    1.9031    0.0027 H         1 <0>         0.0818
     19 H3         -0.5459    1.8868   -0.8726 H         1 <0>         0.0833
     20 H4         -0.5289    1.8773    0.9072 H         1 <0>         0.1068
     21 H5          0.2319   -0.1594    2.1383 H         1 <0>         0.1069
     22 H6          0.7568   -1.6008    1.2356 H         1 <0>         0.0830
     23 H7          1.7647   -0.1336    1.2338 H         1 <0>         0.0812
     24 H8         -1.9605   -0.1726   -0.8702 H         1 <0>         0.0829
     25 H9         -1.4185   -1.6235    0.0069 H         1 <0>         0.0828
     26 H10        -1.9435   -0.1821    0.9097 H         1 <0>         0.1071
     27 H11         0.7033   -1.4867   -1.2121 H         1 <0>         0.4301
     28 H12         2.0530    1.1205   -1.2110 H         1 <0>         0.1475
     29 H13         2.5950   -0.3304   -0.3340 H         1 <0>         0.1400
     30 H14         4.9548   -1.5399   -1.2875 H         1 <0>         0.1323
     31 H15         7.8113    1.3923   -2.5136 H         1 <0>         0.1450
     32 H16         3.7210    1.7551   -3.6957 H         1 <0>         0.1376
     33 H17         6.3460    2.7173   -4.7673 H         1 <0>         0.4027
     34 H18         7.9219   -1.4924   -1.7070 H         1 <0>         0.4027
     35 H19         3.2576   -2.2830   -1.7250 H         1 <0>         0.3889
     36 H20         0.2017   -0.1436   -2.0240 H         1 <0>         0.4274
@<TRIPOS>BOND
     1    1    2 1
     2    1   18 1
     3    1   19 1
     4    1   20 1
     5    2    3 1
     6    2    4 1
     7    2    5 1
     8    3   21 1
     9    3   22 1
    10    3   23 1
    11    4   24 1
    12    4   25 1
    13    4   26 1
    14    5    6 1
    15    5   27 1
    16    5   36 1
    17    6    7 1
    18    6   28 1
    19    6   29 1
    20    7    8 1
    21    7    9 1
    22    7   17 1
    23    9   14 ar
    24    9   10 ar
    25   10   11 ar
    26   10   30 1
    27   11   12 ar
    28   11   16 1
    29   12   13 ar
    30   12   31 1
    31   13   14 ar
    32   13   15 1
    33   14   32 1
    34   15   33 1
    35   16   34 1
    36   17   35 1
@<TRIPOS>MOLECULE
ZINC00002281
   36    36     0     0     0
SMALL
USER_CHARGES

@<TRIPOS>ATOM
      1 C1         -0.0187    1.5258    0.0104 C.3       1 <0>        -0.1790
      2 C2          0.0021   -0.0041    0.0020 C.3       1 <0>         0.0546
      3 C3          0.7421   -0.5109    1.2415 C.3       1 <0>        -0.1792
      4 C4         -1.4333   -0.5336    0.0129 C.3       1 <0>        -0.1776
      5 N1          0.6897   -0.4778   -1.2066 N.4       1 <0>        -0.5004
      6 C5          2.0678    0.0307   -1.2170 C.3       1 <0>        -0.0513
      7 C6          2.7840   -0.4628   -2.4758 C.3       1 <0>         0.1374
      8 H1          2.7213   -1.5498   -2.5270 H         1 <0>         0.1332
      9 C7          4.2310   -0.0447   -2.4270 C.ar      1 <0>        -0.1064
     10 C8          4.5876    1.2467   -2.7651 C.ar      1 <0>        -0.1475
     11 C9          5.9194    1.6342   -2.7210 C.ar      1 <0>         0.1387
     12 C10         6.8924    0.7243   -2.3373 C.ar      1 <0>        -0.1582
     13 C11         6.5321   -0.5709   -1.9986 C.ar      1 <0>         0.1383
     14 C12         5.1983   -0.9518   -2.0389 C.ar      1 <0>        -0.1406
     15 O1          7.4837   -1.4652   -1.6225 O.3       1 <0>        -0.4909
     16 O2          6.2695    2.9043   -3.0541 O.3       1 <0>        -0.4910
     17 O3          2.1628    0.1050   -3.6307 O.3       1 <0>        -0.5447
     18 H2          1.0039    1.9031    0.0027 H         1 <0>         0.0804
     19 H3         -0.5459    1.8868   -0.8726 H         1 <0>         0.0833
     20 H4         -0.5289    1.8773    0.9072 H         1 <0>         0.1067
     21 H5          0.2319   -0.1594    2.1383 H         1 <0>         0.1066
     22 H6          0.7568   -1.6008    1.2356 H         1 <0>         0.0834
     23 H7          1.7647   -0.1336    1.2338 H         1 <0>         0.0810
     24 H8         -1.9605   -0.1726   -0.8702 H         1 <0>         0.0832
     25 H9         -1.4185   -1.6235    0.0069 H         1 <0>         0.0831
     26 H10        -1.9435   -0.1821    0.9097 H         1 <0>         0.1071
     27 H11         0.7033   -1.4867   -1.2121 H         1 <0>         0.4276
     28 H12         2.0530    1.1205   -1.2110 H         1 <0>         0.1393
     29 H13         2.5950   -0.3304   -0.3340 H         1 <0>         0.1466
     30 H14         3.8292    1.9551   -3.0643 H         1 <0>         0.1322
     31 H15         7.9295    1.0238   -2.3027 H         1 <0>         0.1452
     32 H16         4.9166   -1.9594   -1.7708 H         1 <0>         0.1379
     33 H17         7.6594   -1.4760   -0.6716 H         1 <0>         0.4004
     34 H18         6.2707    3.5203   -2.3086 H         1 <0>         0.3999
     35 H19         2.1814    1.0716   -3.6522 H         1 <0>         0.3893
     36 H20         0.2017   -0.1436   -2.0240 H         1 <0>         0.4311
@<TRIPOS>BOND
     1    1    2 1
     2    1   18 1
     3    1   19 1
     4    1   20 1
     5    2    3 1
     6    2    4 1
     7    2    5 1
     8    3   21 1
     9    3   22 1
    10    3   23 1
    11    4   24 1
    12    4   25 1
    13    4   26 1
    14    5    6 1
    15    5   27 1
    16    5   36 1
    17    6    7 1
    18    6   28 1
    19    6   29 1
    20    7    8 1
    21    7    9 1
    22    7   17 1
    23    9   14 ar
    24    9   10 ar
    25   10   11 ar
    26   10   30 1
    27   11   12 ar
    28   11   16 1
    29   12   13 ar
    30   12   31 1
    31   13   14 ar
    32   13   15 1
    33   14   32 1
    34   15   33 1
    35   16   34 1
    36   17   35 1
@<TRIPOS>MOLECULE
ZINC03975668
   55    57     0     0     0
SMALL
USER_CHARGES

@<TRIPOS>ATOM
      1 C1          5.4172   -6.5944    1.5236 C.3       1 <0>        -0.1796
      2 C2          6.2018   -6.1937    0.2728 C.3       1 <0>         0.0639
      3 C3          5.5283   -6.7906   -0.9646 C.3       1 <0>        -0.1804
      4 C4          7.6340   -6.7214    0.3784 C.3       1 <0>        -0.0920
      5 C5          7.6086   -8.2236    0.4957 C.ar      1 <0>        -0.0977
      6 C6          7.5488   -8.8127    1.7574 C.ar      1 <0>        -0.1201
      7 C7          7.5189  -10.1660    1.8982 C.ar      1 <0>        -0.0904
      8 C8          7.5606  -10.9848    0.7568 C.ar      1 <0>        -0.0468
      9 C9          7.5383  -12.3861    0.8627 C.ar      1 <0>        -0.1081
     10 C10         7.5798  -13.1473   -0.2646 C.ar      1 <0>        -0.1044
     11 C11         7.6450  -12.5583   -1.5262 C.ar      1 <0>        -0.1051
     12 C12         7.6687  -11.2049   -1.6673 C.ar      1 <0>        -0.1105
     13 C13         7.6269  -10.3860   -0.5260 C.ar      1 <0>        -0.0532
     14 C14         7.6500   -8.9847   -0.6317 C.ar      1 <0>        -0.0884
     15 C15         4.8656   -4.1863    0.0548 C.3       1 <0>        -0.0444
     16 C16         4.9322   -2.6623   -0.0624 C.3       1 <0>         0.0860
     17 H1          5.4989   -2.2578    0.7762 H         1 <0>         0.1353
     18 C17         3.5146   -2.0870   -0.0449 C.3       1 <0>         0.0262
     19 O1          3.5799   -0.6595   -0.0370 O.3       1 <0>        -0.2919
     20 C18         2.4002    0.0111   -0.0212 C.ar      1 <0>         0.1790
     21 C19         1.2027   -0.6870   -0.0135 C.ar      1 <0>        -0.2072
     22 C20         0.0021   -0.0041    0.0020 C.ar      1 <0>        -0.0338
     23 C21        -0.0167    1.3804    0.0096 C.ar      1 <0>        -0.1374
     24 C22         1.1653    2.0923    0.0022 C.ar      1 <0>         0.0405
     25 C23         2.3874    1.4128   -0.0131 C.ar      1 <0>        -0.0447
     26 C24         3.6184    2.1445   -0.0204 C.1       1 <0>         0.2479
     27 N1          4.5949    2.7249   -0.0262 N.1       1 <0>        -0.3846
     28 Cl1         1.1352    3.8280    0.0112 Cl        1 <0>        -0.0266
     29 O2          5.5756   -2.3064   -1.2878 O.3       1 <0>        -0.5410
     30 H2          4.3968   -6.2185    1.4484 H         1 <0>         0.0803
     31 H3          5.3987   -7.6809    1.6085 H         1 <0>         0.1113
     32 H4          5.8969   -6.1692    2.4052 H         1 <0>         0.0833
     33 H5          6.0873   -6.5052   -1.8558 H         1 <0>         0.0829
     34 H6          5.5099   -7.8771   -0.8798 H         1 <0>         0.1108
     35 H7          4.5080   -6.4147   -1.0399 H         1 <0>         0.0804
     36 H8          8.1930   -6.4360   -0.5128 H         1 <0>         0.0967
     37 H9          8.1138   -6.2962    1.2599 H         1 <0>         0.0977
     38 H10         7.5214   -8.1857    2.6364 H         1 <0>         0.1243
     39 H11         7.4688  -10.6084    2.8821 H         1 <0>         0.1328
     40 H12         7.4879  -12.8563    1.8337 H         1 <0>         0.1321
     41 H13         7.5622  -14.2239   -0.1805 H         1 <0>         0.1300
     42 H14         7.6776  -13.1854   -2.4049 H         1 <0>         0.1294
     43 H15         7.7198  -10.7626   -2.6512 H         1 <0>         0.1294
     44 H16         7.7007   -8.5144   -1.6026 H         1 <0>         0.1281
     45 H17         4.2974   -4.4578    0.9444 H         1 <0>         0.1477
     46 H18         4.3766   -4.5976   -0.8283 H         1 <0>         0.1420
     47 H19         2.9936   -2.4319    0.8482 H         1 <0>         0.0891
     48 H20         2.9759   -2.4211   -0.9316 H         1 <0>         0.0846
     49 H21         1.2084   -1.7670   -0.0194 H         1 <0>         0.1425
     50 H22        -0.9278   -0.5534    0.0079 H         1 <0>         0.1495
     51 H23        -0.9605    1.9053    0.0169 H         1 <0>         0.1530
     52 H24         5.1249   -2.6340   -2.0782 H         1 <0>         0.3904
     53 N2          6.2355   -4.7235    0.1583 N.4       1 <0>        -0.5085
     54 H25         6.7665   -4.4612   -0.6804 H         1 <0>         0.4367
     55 H26         6.6919   -4.3294    0.9894 H         1 <0>         0.4331
@<TRIPOS>BOND
     1    1    2 1
     2    1   30 1
     3    1   31 1
     4    1   32 1
     5    2    3 1
     6    2    4 1
     7    2   53 1
     8    3   33 1
     9    3   34 1
    10    3   35 1
    11    4    5 1
    12    4   36 1
    13    4   37 1
    14    5   14 ar
    15    5    6 ar
    16    6    7 ar
    17    6   38 1
    18    7    8 ar
    19    7   39 1
    20    8   13 ar
    21    8    9 ar
    22    9   10 ar
    23    9   40 1
    24   10   11 ar
    25   10   41 1
    26   11   12 ar
    27   11   42 1
    28   12   13 ar
    29   12   43 1
    30   13   14 ar
    31   14   44 1
    32   15   16 1
    33   15   45 1
    34   15   46 1
    35   15   53 1
    36   16   17 1
    37   16   18 1
    38   16   29 1
    39   18   19 1
    40   18   47 1
    41   18   48 1
    42   19   20 1
    43   20   25 ar
    44   20   21 ar
    45   21   22 ar
    46   21   49 1
    47   22   23 ar
    48   22   50 1
    49   23   24 ar
    50   23   51 1
    51   24   25 ar
    52   24   28 1
    53   25   26 1
    54   26   27 3
    55   29   52 1
    56   53   54 1
    57   53   55 1
@<TRIPOS>MOLECULE
ZINC02575703
   48    49     0     0     0
SMALL
USER_CHARGES

@<TRIPOS>ATOM
      1 C1          0.5513    1.4753    0.2881 C.3       1 <0>        -0.1171
      2 C2          0.4534   -0.0274    0.2294 C.ar      1 <0>        -0.0964
      3 C3          0.4290   -0.6673   -0.9949 C.ar      1 <0>        -0.0824
      4 C4          0.3393   -2.0444   -1.0526 C.ar      1 <0>        -0.2079
      5 C5          0.2740   -2.7819    0.1196 C.ar      1 <0>         0.1196
      6 C6          0.2986   -2.1377    1.3504 C.ar      1 <0>        -0.1141
      7 C7          0.3939   -0.7603    1.4031 C.ar      1 <0>        -0.0523
      8 C8          0.4089   -0.3034    2.8462 C.3       1 <0>        -0.0865
      9 C9         -0.1193   -1.5063    3.6563 C.3       1 <0>        -0.1228
     10 C10         0.2414   -2.7013    2.7540 C.3       1 <0>        -0.0735
     11 O1          0.1854   -4.1369    0.0647 O.3       1 <0>        -0.2919
     12 C11         0.1645   -4.7336   -1.2336 C.3       1 <0>         0.0129
     13 C12         0.0623   -6.2538   -1.0947 C.3       1 <0>         0.0920
     14 H1         -0.8067   -6.5054   -0.4866 H         1 <0>         0.1564
     15 C13        -0.0856   -6.8839   -2.4810 C.3       1 <0>        -0.0087
     16 H2         -0.9871   -6.5013   -2.9597 H         1 <0>         0.1551
     17 C14        -0.1879   -8.4041   -2.3421 C.3       1 <0>        -0.1754
     18 N1          1.0855   -6.5447   -3.3005 N.4       1 <0>        -0.5136
     19 C15         0.8837   -7.0361   -4.6701 C.3       1 <0>         0.0199
     20 C16        -0.2705   -6.2714   -5.3213 C.3       1 <0>        -0.1859
     21 C17         2.1617   -6.8198   -5.4830 C.3       1 <0>        -0.1850
     22 O2          1.2441   -6.7553   -0.4671 O.3       1 <0>        -0.5225
     23 H3          1.6004    1.7703    0.3122 H         1 <0>         0.0728
     24 H4          0.0731    1.9052   -0.5920 H         1 <0>         0.0679
     25 H5          0.0514    1.8372    1.1865 H         1 <0>         0.0697
     26 H6          0.4796   -0.0908   -1.9067 H         1 <0>         0.1298
     27 H7          0.3198   -2.5457   -2.0091 H         1 <0>         0.1209
     28 H8          1.4249   -0.0567    3.1543 H         1 <0>         0.0874
     29 H9         -0.2465    0.5577    2.9771 H         1 <0>         0.0825
     30 H10         0.3854   -1.5761    4.6200 H         1 <0>         0.0828
     31 H11        -1.1994   -1.4411    3.7872 H         1 <0>         0.0747
     32 H12        -0.5207   -3.4778    2.8190 H         1 <0>         0.0767
     33 H13         1.2143   -3.1001    3.0414 H         1 <0>         0.0799
     34 H14        -0.6950   -4.3610   -1.7909 H         1 <0>         0.0848
     35 H15         1.0809   -4.4782   -1.7657 H         1 <0>         0.0555
     36 H16         0.7554   -8.7987   -1.9644 H         1 <0>         0.0894
     37 H17        -0.9899   -8.6523   -1.6469 H         1 <0>         0.1111
     38 H18        -0.4019   -8.8444   -3.3159 H         1 <0>         0.0864
     39 H19         1.2059   -5.5431   -3.3168 H         1 <0>         0.4217
     40 H20         0.6457   -8.0994   -4.6433 H         1 <0>         0.1447
     41 H21        -0.0326   -5.2081   -5.3481 H         1 <0>         0.0823
     42 H22        -0.4203   -6.6360   -6.3376 H         1 <0>         0.1102
     43 H23        -1.1810   -6.4255   -4.7422 H         1 <0>         0.0814
     44 H24         2.3518   -5.7512   -5.5837 H         1 <0>         0.0825
     45 H25         3.0012   -7.2917   -4.9726 H         1 <0>         0.0825
     46 H26         2.0425   -7.2623   -6.4720 H         1 <0>         0.1098
     47 H27         2.0580   -6.5674   -0.9542 H         1 <0>         0.3679
     48 H28         1.9081   -6.9760   -2.9063 H         1 <0>         0.4249
@<TRIPOS>BOND
     1    1    2 1
     2    1   23 1
     3    1   24 1
     4    1   25 1
     5    2    7 ar
     6    2    3 ar
     7    3    4 ar
     8    3   26 1
     9    4    5 ar
    10    4   27 1
    11    5    6 ar
    12    5   11 1
    13    6   10 1
    14    6    7 ar
    15    7    8 1
    16    8    9 1
    17    8   28 1
    18    8   29 1
    19    9   10 1
    20    9   30 1
    21    9   31 1
    22   10   32 1
    23   10   33 1
    24   11   12 1
    25   12   13 1
    26   12   34 1
    27   12   35 1
    28   13   14 1
    29   13   15 1
    30   13   22 1
    31   15   16 1
    32   15   17 1
    33   15   18 1
    34   17   36 1
    35   17   37 1
    36   17   38 1
    37   18   19 1
    38   18   39 1
    39   18   48 1
    40   19   20 1
    41   19   21 1
    42   19   40 1
    43   20   41 1
    44   20   42 1
    45   20   43 1
    46   21   44 1
    47   21   45 1
    48   21   46 1
    49   22   47 1
@<TRIPOS>MOLECULE
ZINC03825965
   61    64     0     0     0
SMALL
USER_CHARGES
2-[4-[4-(7-methoxy-1-naphthyl)piperazin-1-yl]butyl]-4-methyl-1,2,4-triazine-3,5-dione
@<TRIPOS>ATOM
      1 C1         -2.0231    1.8137    0.6582 C.3       1 <0>         0.0742
      2 N1         -0.7874    2.5524    0.3867 N.am      1 <0>        -0.5564
      3 C2         -0.8326    3.8813    0.1583 C.2       1 <0>         0.5084
      4 O1         -1.8956    4.4738    0.1762 O.2       1 <0>        -0.4669
      5 C3          0.4140    4.6017   -0.1163 C.2       1 <0>         0.0634
      6 N2          1.5380    3.9407   -0.1287 N.2       1 <0>        -0.1777
      7 N3          1.5393    2.5628    0.1185 N.am      1 <0>        -0.4527
      8 C4          0.3932    1.9057    0.3704 C.2       1 <0>         0.6789
      9 O2          0.4233    0.7087    0.5818 O.2       1 <0>        -0.5327
     10 C5          2.8060    1.8269    0.1029 C.3       1 <0>         0.1443
     11 C6          3.0823    1.3171   -1.3129 C.3       1 <0>        -0.1367
     12 C7          4.4051    0.5485   -1.3292 C.3       1 <0>        -0.1456
     13 C8          4.6814    0.0387   -2.7450 C.3       1 <0>        -0.0029
     14 C9          7.0843    0.1963   -2.4877 C.3       1 <0>        -0.0008
     15 C10         8.3766   -0.6219   -2.4340 C.3       1 <0>         0.0217
     16 N4          8.5611   -1.3257   -3.7108 N.pl3     1 <0>        -0.4829
     17 C11         7.4284   -2.2213   -3.9837 C.3       1 <0>         0.0173
     18 C12         6.1361   -1.4030   -4.0374 C.3       1 <0>         0.0026
     19 C13         9.7664   -2.0260   -3.7256 C.ar      1 <0>         0.0812
     20 C14        10.4947   -2.1813   -2.5657 C.ar      1 <0>        -0.1408
     21 C15        11.6964   -2.8835   -2.5687 C.ar      1 <0>        -0.1158
     22 C16        12.1912   -3.4252   -3.7158 C.ar      1 <0>        -0.0881
     23 C17        11.4824   -3.2847   -4.9213 C.ar      1 <0>        -0.0708
     24 C18        10.2549   -2.5774   -4.9297 C.ar      1 <0>        -0.0049
     25 C19         9.5469   -2.4379   -6.1332 C.ar      1 <0>        -0.1649
     26 C20        10.0499   -2.9838   -7.2801 C.ar      1 <0>         0.1412
     27 C21        11.2610   -3.6818   -7.2702 C.ar      1 <0>        -0.1852
     28 C22        11.9704   -3.8345   -6.1198 C.ar      1 <0>        -0.0583
     29 O3          9.3633   -2.8476   -8.4452 O.3       1 <0>        -0.3171
     30 C23         9.9390   -3.4413   -9.6106 C.3       1 <0>         0.0231
     31 H1         -2.2167    1.8112    1.7308 H         1 <0>         0.0809
     32 H2         -2.8540    2.2926    0.1401 H         1 <0>         0.0986
     33 H3         -1.9180    0.7877    0.3055 H         1 <0>         0.0965
     34 H4          0.4017    5.6648   -0.3060 H         1 <0>         0.2278
     35 H5          3.6143    2.4882    0.4152 H         1 <0>         0.1043
     36 H6          2.7433    0.9812    0.7878 H         1 <0>         0.1061
     37 H7          2.2740    0.6558   -1.6252 H         1 <0>         0.0811
     38 H8          3.1449    2.1627   -1.9978 H         1 <0>         0.0840
     39 H9          5.2134    1.2098   -1.0169 H         1 <0>         0.0927
     40 H10         4.3425   -0.2971   -0.6443 H         1 <0>         0.0923
     41 H11         3.8731   -0.6226   -3.0573 H         1 <0>         0.1313
     42 H12         4.7441    0.8843   -3.4299 H         1 <0>         0.1342
     43 H13         7.1581    0.9411   -3.2801 H         1 <0>         0.1413
     44 H14         6.9304    0.6962   -1.5314 H         1 <0>         0.1384
     45 H15         8.3135   -1.3486   -1.6240 H         1 <0>         0.0709
     46 H16         9.2218    0.0441   -2.2604 H         1 <0>         0.1291
     47 H17         7.3545   -2.9661   -3.1914 H         1 <0>         0.0693
     48 H18         7.5822   -2.7212   -4.9400 H         1 <0>         0.1333
     49 H19         5.2909   -2.0691   -4.2110 H         1 <0>         0.1378
     50 H20         6.1987   -0.6764   -4.8475 H         1 <0>         0.1413
     51 H21        10.1265   -1.7571   -1.6432 H         1 <0>         0.1270
     52 H22        12.2479   -2.9965   -1.6471 H         1 <0>         0.1296
     53 H23        13.1276   -3.9630   -3.6992 H         1 <0>         0.1330
     54 H24         8.6099   -1.9012   -6.1528 H         1 <0>         0.1365
     55 H25        11.6388   -4.1055   -8.1890 H         1 <0>         0.1364
     56 H26        12.9046   -4.3763   -6.1269 H         1 <0>         0.1387
     57 H27         9.2919   -3.2592  -10.4686 H         1 <0>         0.1058
     58 H28        10.9195   -3.0024   -9.7954 H         1 <0>         0.0600
     59 H29        10.0448   -4.5152   -9.4568 H         1 <0>         0.0595
     60 N5          5.9513   -0.7185   -2.7404 N.4       1 <0>        -0.3980
     61 H30         5.9174   -1.4221   -1.9934 H         1 <0>         0.4253
@<TRIPOS>BOND
     1    1    2 1
     2    1   31 1
     3    1   32 1
     4    1   33 1
     5    2    8 am
     6    2    3 am
     7    3    4 2
     8    3    5 1
     9    5    6 2
    10    5   34 1
    11    6    7 1
    12    7    8 am
    13    7   10 1
    14    8    9 2
    15   10   11 1
    16   10   35 1
    17   10   36 1
    18   11   12 1
    19   11   37 1
    20   11   38 1
    21   12   13 1
    22   12   39 1
    23   12   40 1
    24   13   41 1
    25   13   42 1
    26   13   60 1
    27   14   15 1
    28   14   43 1
    29   14   44 1
    30   14   60 1
    31   15   16 1
    32   15   45 1
    33   15   46 1
    34   16   17 1
    35   16   19 1
    36   17   18 1
    37   17   47 1
    38   17   48 1
    39   18   49 1
    40   18   50 1
    41   18   60 1
    42   19   24 ar
    43   19   20 ar
    44   20   21 ar
    45   20   51 1
    46   21   22 ar
    47   21   52 1
    48   22   23 ar
    49   22   53 1
    50   23   28 ar
    51   23   24 ar
    52   24   25 ar
    53   25   26 ar
    54   25   54 1
    55   26   27 ar
    56   26   29 1
    57   27   28 ar
    58   27   55 1
    59   28   56 1
    60   29   30 1
    61   30   57 1
    62   30   58 1
    63   30   59 1
    64   60   61 1
@<TRIPOS>MOLECULE
ZINC28652126
   47    48     0     0     0
SMALL
USER_CHARGES
5-[(1R)-1-hydroxy-2-[[(1R)-2-(4-methoxyphenyl)-1-methyl-ethyl]amino]ethyl]benzene-1,3-diol
@<TRIPOS>ATOM
      1 C1         -2.5918   -3.5851    3.2059 C.3       1 <0>        -0.1825
      2 C2         -3.2940   -2.2799    2.8259 C.3       1 <0>         0.0387
      3 H1         -2.9769   -1.4630    3.4908 H         1 <0>         0.1323
      4 C3         -4.8096   -2.4757    2.9006 C.3       1 <0>        -0.0947
      5 C4         -5.4992   -1.1601    2.6465 C.ar      1 <0>        -0.1653
      6 C5         -5.7933   -0.3195    3.7041 C.ar      1 <0>        -0.0614
      7 C6         -6.4204    0.8896    3.4732 C.ar      1 <0>        -0.1975
      8 C7         -6.7647    1.2553    2.1800 C.ar      1 <0>         0.1460
      9 C8         -6.4736    0.4075    1.1212 C.ar      1 <0>        -0.1412
     10 C9         -5.8417   -0.7982    1.3568 C.ar      1 <0>        -0.1054
     11 O1         -7.3866    2.4417    1.9509 O.3       1 <0>        -0.3105
     12 C10        -7.6550    3.2638    3.0885 C.3       1 <0>         0.0188
     13 N1         -2.9161   -1.9009    1.4579 N.4       1 <0>        -0.5404
     14 C11        -1.6533   -1.1504    1.4494 C.3       1 <0>         0.0098
     15 C12        -1.2934   -0.7740    0.0107 C.3       1 <0>         0.1447
     16 H2         -2.0917   -0.1881   -0.4683 H         1 <0>         0.0862
     17 C13         0.0021   -0.0041    0.0020 C.ar      1 <0>        -0.0641
     18 C14        -0.0167    1.3775    0.0096 C.ar      1 <0>        -0.1954
     19 C15         1.1749    2.0888    0.0021 C.ar      1 <0>         0.2075
     20 C16         2.3847    1.4121   -0.0135 C.ar      1 <0>        -0.2490
     21 C17         2.4009    0.0258   -0.0211 C.ar      1 <0>         0.2036
     22 C18         1.2066   -0.6809   -0.0131 C.ar      1 <0>        -0.2374
     23 O2          3.5853   -0.6404   -0.0360 O.3       1 <0>        -0.5034
     24 O3          1.1558    3.4476    0.0095 O.3       1 <0>        -0.5038
     25 O4         -1.1467   -1.9619   -0.7699 O.3       1 <0>        -0.6060
     26 H3         -1.5022   -3.4443    3.1522 H         1 <0>         0.0805
     27 H4         -2.8936   -4.3803    2.5084 H         1 <0>         0.0847
     28 H5         -2.8748   -3.8689    4.2303 H         1 <0>         0.1062
     29 H6         -5.1228   -3.2066    2.1406 H         1 <0>         0.0984
     30 H7         -5.0827   -2.8459    3.8998 H         1 <0>         0.1192
     31 H8         -5.5290   -0.6066    4.7112 H         1 <0>         0.1324
     32 H9         -6.6456    1.5480    4.2992 H         1 <0>         0.1376
     33 H10        -6.7403    0.6901    0.1135 H         1 <0>         0.1403
     34 H11        -5.6149   -1.4585    0.5328 H         1 <0>         0.1305
     35 H12        -8.1573    4.1869    2.7635 H         1 <0>         0.1113
     36 H13        -6.7088    3.5178    3.5887 H         1 <0>         0.0611
     37 H14        -8.3055    2.7195    3.7889 H         1 <0>         0.0625
     38 H15        -2.7918   -2.8074    0.8474 H         1 <0>         0.4529
     39 H16        -1.7662   -0.2360    2.0504 H         1 <0>         0.1399
     40 H17        -0.8536   -1.7734    1.8764 H         1 <0>         0.1365
     41 H18        -0.9594    1.9043    0.0169 H         1 <0>         0.1310
     42 H19         3.3131    1.9639   -0.0201 H         1 <0>         0.1383
     43 H20         1.2187   -1.7608   -0.0190 H         1 <0>         0.1347
     44 H21         3.5976   -1.7403   -0.0420 H         1 <0>         0.4415
     45 H22         2.1006    4.0110    0.0036 H         1 <0>         0.4470
     46 H23        -0.8871   -1.8906   -1.8365 H         1 <0>         0.4451
     47 H24        -3.7043   -1.2700    1.0212 H         1 <0>         0.4388
@<TRIPOS>BOND
     1    1    2 1
     2    1   26 1
     3    1   27 1
     4    1   28 1
     5    2    3 1
     6    2    4 1
     7    2   13 1
     8    4    5 1
     9    4   29 1
    10    4   30 1
    11    5   10 ar
    12    5    6 ar
    13    6    7 ar
    14    6   31 1
    15    7    8 ar
    16    7   32 1
    17    8    9 ar
    18    8   11 1
    19    9   10 ar
    20    9   33 1
    21   10   34 1
    22   11   12 1
    23   12   35 1
    24   12   36 1
    25   12   37 1
    26   13   14 1
    27   13   38 1
    28   13   47 1
    29   14   15 1
    30   14   39 1
    31   14   40 1
    32   15   16 1
    33   15   17 1
    34   15   25 1
    35   17   22 ar
    36   17   18 ar
    37   18   19 ar
    38   18   41 1
    39   19   20 ar
    40   19   24 1
    41   20   21 ar
    42   20   42 1
    43   21   22 ar
    44   21   23 1
    45   22   43 1
    46   23   44 1
    47   24   45 1
    48   25   46 1
@<TRIPOS>MOLECULE
ZINC28652134
   47    48     0     0     0
SMALL
USER_CHARGES
5-[(1R)-1-hydroxy-2-[[(1S)-2-(4-methoxyphenyl)-1-methyl-ethyl]amino]ethyl]benzene-1,3-diol
@<TRIPOS>ATOM
      1 C1          0.8250   -0.4964   -1.1902 C.3       1 <0>        -0.1833
      2 C2          0.0021   -0.0041    0.0020 C.3       1 <0>         0.0374
      3 H1          0.4186   -0.3899    0.9442 H         1 <0>         0.1337
      4 C3         -0.0187    1.5258    0.0104 C.3       1 <0>        -0.0942
      5 C4         -0.7240    2.0118    1.2503 C.ar      1 <0>        -0.1669
      6 C5         -2.0894    2.2288    1.2273 C.ar      1 <0>        -0.0975
      7 C6         -2.7392    2.6689    2.3642 C.ar      1 <0>        -0.1952
      8 C7         -2.0189    2.9039    3.5264 C.ar      1 <0>         0.1464
      9 C8         -0.6482    2.6908    3.5452 C.ar      1 <0>        -0.1408
     10 C9         -0.0039    2.2452    2.4073 C.ar      1 <0>        -0.0640
     11 O1         -2.6551    3.3418    4.6446 O.3       1 <0>        -0.3102
     12 C10        -4.0673    3.5394    4.5522 C.3       1 <0>         0.0196
     13 N1         -1.3720   -0.5118   -0.1083 N.4       1 <0>        -0.5409
     14 C11        -1.4805   -1.8639    0.4557 C.3       1 <0>         0.0084
     15 C12        -2.9225   -2.3577    0.3229 C.3       1 <0>         0.1455
     16 H2         -3.2602   -2.3500   -0.7239 H         1 <0>         0.0861
     17 C13        -3.0338   -3.7447    0.9015 C.ar      1 <0>        -0.0647
     18 C14        -3.2353   -3.9119    2.2583 C.ar      1 <0>        -0.1839
     19 C15        -3.3438   -5.1880    2.7927 C.ar      1 <0>         0.2064
     20 C16        -3.2380   -6.2958    1.9659 C.ar      1 <0>        -0.2491
     21 C17        -3.0301   -6.1255    0.6058 C.ar      1 <0>         0.2050
     22 C18        -2.9284   -4.8472    0.0753 C.ar      1 <0>        -0.2489
     23 O2         -2.9264   -7.2095   -0.2072 O.3       1 <0>        -0.5031
     24 O3         -3.5481   -5.3518    4.1262 O.3       1 <0>        -0.5033
     25 O4         -3.7954   -1.4749    1.0306 O.3       1 <0>        -0.6045
     26 H3          0.8399   -1.5963   -1.1962 H         1 <0>         0.0803
     27 H4          1.8539   -0.1161   -1.1076 H         1 <0>         0.1073
     28 H5          0.3728   -0.1307   -2.1239 H         1 <0>         0.0841
     29 H6          1.0133    1.9066    0.0025 H         1 <0>         0.1197
     30 H7         -0.5508    1.8902   -0.8807 H         1 <0>         0.0968
     31 H8         -2.6489    2.0499    0.3211 H         1 <0>         0.1247
     32 H9         -3.8063    2.8341    2.3470 H         1 <0>         0.1368
     33 H10        -0.0853    2.8727    4.4488 H         1 <0>         0.1399
     34 H11         1.0631    2.0788    2.4216 H         1 <0>         0.1359
     35 H12        -4.4523    3.8921    5.5204 H         1 <0>         0.1104
     36 H13        -4.5540    2.5889    4.2883 H         1 <0>         0.0603
     37 H14        -4.2826    4.2893    3.7768 H         1 <0>         0.0613
     38 H15        -2.0542    0.1547    0.4397 H         1 <0>         0.4509
     39 H16        -0.8086   -2.5434   -0.0891 H         1 <0>         0.1413
     40 H17        -1.1969   -1.8418    1.5183 H         1 <0>         0.1358
     41 H18        -3.3129   -3.0487    2.9026 H         1 <0>         0.1362
     42 H19        -3.3171   -7.2898    2.3807 H         1 <0>         0.1384
     43 H20        -2.7665   -4.7140   -0.9841 H         1 <0>         0.1292
     44 H21        -2.7614   -7.0739   -1.2863 H         1 <0>         0.4412
     45 H22        -3.6340   -6.3635    4.5493 H         1 <0>         0.4467
     46 H23        -4.8779   -1.6693    1.0485 H         1 <0>         0.4443
     47 H24        -1.6660   -0.5469   -1.1677 H         1 <0>         0.4404
@<TRIPOS>BOND
     1    1    2 1
     2    1   26 1
     3    1   27 1
     4    1   28 1
     5    2    3 1
     6    2    4 1
     7    2   13 1
     8    4    5 1
     9    4   29 1
    10    4   30 1
    11    5   10 ar
    12    5    6 ar
    13    6    7 ar
    14    6   31 1
    15    7    8 ar
    16    7   32 1
    17    8    9 ar
    18    8   11 1
    19    9   10 ar
    20    9   33 1
    21   10   34 1
    22   11   12 1
    23   12   35 1
    24   12   36 1
    25   12   37 1
    26   13   14 1
    27   13   38 1
    28   13   47 1
    29   14   15 1
    30   14   39 1
    31   14   40 1
    32   15   16 1
    33   15   17 1
    34   15   25 1
    35   17   22 ar
    36   17   18 ar
    37   18   19 ar
    38   18   41 1
    39   19   20 ar
    40   19   24 1
    41   20   21 ar
    42   20   42 1
    43   21   22 ar
    44   21   23 1
    45   22   43 1
    46   23   44 1
    47   24   45 1
    48   25   46 1
@<TRIPOS>MOLECULE
ZINC28652142
   47    48     0     0     0
SMALL
USER_CHARGES
5-[(1S)-1-hydroxy-2-[[(1R)-2-(4-methoxyphenyl)-1-methyl-ethyl]amino]ethyl]benzene-1,3-diol
@<TRIPOS>ATOM
      1 C1          3.1860    2.2507   -3.9659 C.3       1 <0>        -0.1834
      2 C2          2.0545    1.2618   -3.6782 C.3       1 <0>         0.0379
      3 H1          2.4572    0.2514   -3.5137 H         1 <0>         0.1331
      4 C3          1.0669    1.2628   -4.8468 C.3       1 <0>        -0.0942
      5 C4          0.0202    0.2024   -4.6207 C.ar      1 <0>        -0.1673
      6 C5          0.2212   -1.0790   -5.0998 C.ar      1 <0>        -0.0622
      7 C6         -0.7343   -2.0542   -4.8890 C.ar      1 <0>        -0.1984
      8 C7         -1.9010   -1.7443   -4.2054 C.ar      1 <0>         0.1463
      9 C8         -2.1028   -0.4565   -3.7306 C.ar      1 <0>        -0.1370
     10 C9         -1.1420    0.5139   -3.9395 C.ar      1 <0>        -0.0997
     11 O1         -2.8449   -2.7005   -4.0016 O.3       1 <0>        -0.3107
     12 C10        -2.5698   -4.0042   -4.5182 C.3       1 <0>         0.0190
     13 N1          1.3575    1.6597   -2.4478 N.4       1 <0>        -0.5417
     14 C11         2.0397    1.1274   -1.2607 C.3       1 <0>         0.0079
     15 C12         1.2864    1.5618   -0.0018 C.3       1 <0>         0.1452
     16 H2          1.1231    2.6494    0.0196 H         1 <0>         0.0850
     17 C13         2.0519    1.1207    1.2190 C.ar      1 <0>        -0.0649
     18 C14         1.9550   -0.1854    1.6593 C.ar      1 <0>        -0.1829
     19 C15         2.6633   -0.5954    2.7800 C.ar      1 <0>         0.2060
     20 C16         3.4595    0.3096    3.4648 C.ar      1 <0>        -0.2488
     21 C17         3.5507    1.6210    3.0243 C.ar      1 <0>         0.2045
     22 C18         2.8451    2.0245    1.8995 C.ar      1 <0>        -0.2482
     23 O2          4.3307    2.5103    3.6932 O.3       1 <0>        -0.5032
     24 O3          2.5716   -1.8814    3.2096 O.3       1 <0>        -0.5034
     25 O4         -0.0110    0.9628    0.0073 O.3       1 <0>        -0.6020
     26 H3          3.8960    2.2500   -3.1257 H         1 <0>         0.0804
     27 H4          2.7676    3.2602   -4.0915 H         1 <0>         0.0845
     28 H5          3.7079    1.9528   -4.8873 H         1 <0>         0.1069
     29 H6          0.5821    2.2477   -4.9163 H         1 <0>         0.0976
     30 H7          1.6057    1.0526   -5.7825 H         1 <0>         0.1189
     31 H8          1.1277   -1.3186   -5.6358 H         1 <0>         0.1314
     32 H9         -0.5747   -3.0561   -5.2593 H         1 <0>         0.1369
     33 H10        -3.0101   -0.2128   -3.1979 H         1 <0>         0.1397
     34 H11        -1.2986    1.5166   -3.5701 H         1 <0>         0.1289
     35 H12        -3.4094   -4.6756   -4.2852 H         1 <0>         0.1108
     36 H13        -1.6498   -4.3942   -4.0583 H         1 <0>         0.0608
     37 H14        -2.4384   -3.9462   -5.6088 H         1 <0>         0.0620
     38 H15         1.3337    2.7573   -2.3785 H         1 <0>         0.4407
     39 H16         2.0633    0.0289   -1.3131 H         1 <0>         0.1362
     40 H17         3.0685    1.5149   -1.2244 H         1 <0>         0.1413
     41 H18         1.3308   -0.8889    1.1283 H         1 <0>         0.1355
     42 H19         4.0076   -0.0063    4.3401 H         1 <0>         0.1384
     43 H20         2.9158    3.0460    1.5560 H         1 <0>         0.1292
     44 H21         4.4028    3.5507    3.3433 H         1 <0>         0.4412
     45 H22         3.1333   -2.2059    4.0980 H         1 <0>         0.4466
     46 H23        -0.7021    1.1602    0.8400 H         1 <0>         0.4440
     47 H24         0.3286    1.2712   -2.4672 H         1 <0>         0.4507
@<TRIPOS>BOND
     1    1    2 1
     2    1   26 1
     3    1   27 1
     4    1   28 1
     5    2    3 1
     6    2    4 1
     7    2   13 1
     8    4    5 1
     9    4   29 1
    10    4   30 1
    11    5   10 ar
    12    5    6 ar
    13    6    7 ar
    14    6   31 1
    15    7    8 ar
    16    7   32 1
    17    8    9 ar
    18    8   11 1
    19    9   10 ar
    20    9   33 1
    21   10   34 1
    22   11   12 1
    23   12   35 1
    24   12   36 1
    25   12   37 1
    26   13   14 1
    27   13   38 1
    28   13   47 1
    29   14   15 1
    30   14   39 1
    31   14   40 1
    32   15   16 1
    33   15   17 1
    34   15   25 1
    35   17   22 ar
    36   17   18 ar
    37   18   19 ar
    38   18   41 1
    39   19   20 ar
    40   19   24 1
    41   20   21 ar
    42   20   42 1
    43   21   22 ar
    44   21   23 1
    45   22   43 1
    46   23   44 1
    47   24   45 1
    48   25   46 1
@<TRIPOS>MOLECULE
ZINC00057319
   44    45     0     0     0
SMALL
USER_CHARGES

@<TRIPOS>ATOM
      1 C1         -0.0187    1.5258    0.0104 C.3       1 <0>        -0.1849
      2 C2          0.0021   -0.0041    0.0020 C.3       1 <0>         0.0295
      3 H1         -1.0205   -0.3814    0.0098 H         1 <0>         0.1404
      4 C3          0.7182   -0.4975   -1.2568 C.3       1 <0>        -0.0975
      5 C4          0.6316   -2.0003   -1.3275 C.ar      1 <0>        -0.1406
      6 C5          1.6125   -2.7766   -0.7383 C.ar      1 <0>        -0.1210
      7 C6          1.5356   -4.1544   -0.8021 C.ar      1 <0>        -0.1349
      8 C7          0.4730   -4.7591   -1.4577 C.ar      1 <0>         0.1268
      9 C8         -0.5101   -3.9780   -2.0477 C.ar      1 <0>        -0.1355
     10 C9         -0.4314   -2.6006   -1.9766 C.ar      1 <0>        -0.0866
     11 O1          0.3954   -6.1144   -1.5223 O.3       1 <0>        -0.4946
     12 N1          0.7126   -0.4907    1.1921 N.4       1 <0>        -0.5053
     13 C10        -0.0398   -0.1189    2.3978 C.3       1 <0>        -0.0478
     14 C11         0.7001   -0.6257    3.6373 C.3       1 <0>         0.1367
     15 H2          1.6931   -0.1778    3.6761 H         1 <0>         0.1353
     16 C12        -0.0717   -0.2443    4.8741 C.ar      1 <0>        -0.1061
     17 C13        -1.0971   -1.0537    5.3242 C.ar      1 <0>        -0.1464
     18 C14        -1.8094   -0.7046    6.4629 C.ar      1 <0>         0.1387
     19 C15        -1.4914    0.4573    7.1490 C.ar      1 <0>        -0.1578
     20 C16        -0.4622    1.2678    6.6954 C.ar      1 <0>         0.1382
     21 C17         0.2508    0.9115    5.5594 C.ar      1 <0>        -0.1412
     22 O2         -0.1485    2.4077    7.3655 O.3       1 <0>        -0.4931
     23 O3         -2.8181   -1.5009    6.9049 O.3       1 <0>        -0.4936
     24 O4          0.8214   -2.0480    3.5713 O.3       1 <0>        -0.5459
     25 H3          1.0039    1.9031    0.0027 H         1 <0>         0.0848
     26 H4         -0.5459    1.8868   -0.8726 H         1 <0>         0.1092
     27 H5         -0.5289    1.8773    0.9072 H         1 <0>         0.0833
     28 H6          0.2444   -0.0644   -2.1377 H         1 <0>         0.1226
     29 H7          1.7648   -0.1951   -1.2215 H         1 <0>         0.0992
     30 H8          2.4395   -2.3054   -0.2281 H         1 <0>         0.1264
     31 H9          2.3024   -4.7604   -0.3424 H         1 <0>         0.1385
     32 H10        -1.3383   -4.4464   -2.5587 H         1 <0>         0.1387
     33 H11        -1.1987   -1.9921   -2.4319 H         1 <0>         0.1344
     34 H12        -0.0869   -6.5162   -0.7867 H         1 <0>         0.4002
     35 H13         0.7982   -1.4950    1.1455 H         1 <0>         0.4293
     36 H14        -0.1324    0.9660    2.4481 H         1 <0>         0.1487
     37 H15        -1.0328   -0.5668    2.3589 H         1 <0>         0.1376
     38 H16        -1.3447   -1.9586    4.7892 H         1 <0>         0.1320
     39 H17        -2.0448    0.7309    8.0352 H         1 <0>         0.1449
     40 H18         1.0556    1.5402    5.2081 H         1 <0>         0.1379
     41 H19         0.5165    2.2870    8.0571 H         1 <0>         0.4027
     42 H20        -2.5359   -2.1825    7.5302 H         1 <0>         0.4025
     43 H21        -0.0252   -2.5137    3.5341 H         1 <0>         0.3886
     44 H22         1.6317   -0.0761    1.2281 H         1 <0>         0.4257
@<TRIPOS>BOND
     1    1    2 1
     2    1   25 1
     3    1   26 1
     4    1   27 1
     5    2    3 1
     6    2    4 1
     7    2   12 1
     8    4    5 1
     9    4   28 1
    10    4   29 1
    11    5   10 ar
    12    5    6 ar
    13    6    7 ar
    14    6   30 1
    15    7    8 ar
    16    7   31 1
    17    8    9 ar
    18    8   11 1
    19    9   10 ar
    20    9   32 1
    21   10   33 1
    22   11   34 1
    23   12   13 1
    24   12   35 1
    25   12   44 1
    26   13   14 1
    27   13   36 1
    28   13   37 1
    29   14   15 1
    30   14   16 1
    31   14   24 1
    32   16   21 ar
    33   16   17 ar
    34   17   18 ar
    35   17   38 1
    36   18   19 ar
    37   18   23 1
    38   19   20 ar
    39   19   39 1
    40   20   21 ar
    41   20   22 1
    42   21   40 1
    43   22   41 1
    44   23   42 1
    45   24   43 1
@<TRIPOS>MOLECULE
ZINC00020252
   44    45     0     0     0
SMALL
USER_CHARGES

@<TRIPOS>ATOM
      1 C1         -0.0187    1.5258    0.0104 C.3       1 <0>        -0.1845
      2 C2          0.0021   -0.0041    0.0020 C.3       1 <0>         0.0296
      3 H1         -1.0205   -0.3814    0.0098 H         1 <0>         0.1402
      4 C3          0.7421   -0.5109    1.2415 C.3       1 <0>        -0.0975
      5 C4          0.6567   -2.0144    1.2978 C.ar      1 <0>        -0.1412
      6 C5         -0.3968   -2.6218    1.9557 C.ar      1 <0>        -0.0868
      7 C6         -0.4771   -3.9998    2.0091 C.ar      1 <0>        -0.1359
      8 C7          0.5003   -4.7745    1.4014 C.ar      1 <0>         0.1274
      9 C8          1.5561   -4.1627    0.7414 C.ar      1 <0>        -0.1344
     10 C9          1.6291   -2.7842    0.6865 C.ar      1 <0>        -0.1208
     11 O1          0.4238   -6.1304    1.4528 O.3       1 <0>        -0.4946
     12 N1          0.6897   -0.4778   -1.2066 N.4       1 <0>        -0.5063
     13 C10        -0.0856   -0.0931   -2.3936 C.3       1 <0>        -0.0466
     14 C11         0.6305   -0.5866   -3.6524 C.3       1 <0>         0.1361
     15 H2          1.6531   -0.2093   -3.6601 H         1 <0>         0.1339
     16 C12        -0.0983   -0.0873   -4.8733 C.ar      1 <0>        -0.1060
     17 C13        -1.2415   -0.7319   -5.3057 C.ar      1 <0>        -0.1474
     18 C14        -1.9145   -0.2741   -6.4297 C.ar      1 <0>         0.1388
     19 C15        -1.4389    0.8308   -7.1188 C.ar      1 <0>        -0.1580
     20 C16        -0.2918    1.4758   -6.6829 C.ar      1 <0>         0.1384
     21 C17         0.3745    1.0176   -5.5551 C.ar      1 <0>        -0.1403
     22 O2          0.1771    2.5589   -7.3566 O.3       1 <0>        -0.4909
     23 O3         -3.0384   -0.9087   -6.8548 O.3       1 <0>        -0.4911
     24 O4          0.6499   -2.0154   -3.6603 O.3       1 <0>        -0.5441
     25 H3          1.0039    1.9031    0.0027 H         1 <0>         0.0849
     26 H4         -0.5459    1.8868   -0.8726 H         1 <0>         0.0825
     27 H5         -0.5289    1.8773    0.9072 H         1 <0>         0.1090
     28 H6          1.7879   -0.2080    1.1895 H         1 <0>         0.0992
     29 H7          0.2852   -0.0874    2.1360 H         1 <0>         0.1226
     30 H8         -1.1575   -2.0183    2.4286 H         1 <0>         0.1341
     31 H9         -1.2999   -4.4738    2.5237 H         1 <0>         0.1387
     32 H10         2.3183   -4.7635    0.2676 H         1 <0>         0.1387
     33 H11         2.4485   -2.3075    0.1691 H         1 <0>         0.1264
     34 H12        -0.0660   -6.5248    0.7183 H         1 <0>         0.4005
     35 H13         1.6080   -0.0627   -1.2556 H         1 <0>         0.4258
     36 H14        -1.0777   -0.5415   -2.3406 H         1 <0>         0.1371
     37 H15        -0.1790    0.9922   -2.4305 H         1 <0>         0.1477
     38 H16        -1.6113   -1.5929   -4.7688 H         1 <0>         0.1320
     39 H17        -1.9611    1.1884   -7.9940 H         1 <0>         0.1451
     40 H18         1.2657    1.5223   -5.2126 H         1 <0>         0.1382
     41 H19        -0.1782    3.4016   -7.0424 H         1 <0>         0.4004
     42 H20        -3.8550   -0.5637   -6.4684 H         1 <0>         0.3999
     43 H21        -0.2280   -2.4207   -3.6540 H         1 <0>         0.3890
     44 H22         0.7761   -1.4825   -1.1724 H         1 <0>         0.4302
@<TRIPOS>BOND
     1    1    2 1
     2    1   25 1
     3    1   26 1
     4    1   27 1
     5    2    3 1
     6    2    4 1
     7    2   12 1
     8    4    5 1
     9    4   28 1
    10    4   29 1
    11    5   10 ar
    12    5    6 ar
    13    6    7 ar
    14    6   30 1
    15    7    8 ar
    16    7   31 1
    17    8    9 ar
    18    8   11 1
    19    9   10 ar
    20    9   32 1
    21   10   33 1
    22   11   34 1
    23   12   13 1
    24   12   35 1
    25   12   44 1
    26   13   14 1
    27   13   36 1
    28   13   37 1
    29   14   15 1
    30   14   16 1
    31   14   24 1
    32   16   21 ar
    33   16   17 ar
    34   17   18 ar
    35   17   38 1
    36   18   19 ar
    37   18   23 1
    38   19   20 ar
    39   19   39 1
    40   20   21 ar
    41   20   22 1
    42   21   40 1
    43   22   41 1
    44   23   42 1
    45   24   43 1
@<TRIPOS>MOLECULE
ZINC02033145
   38    38     0     0     0
SMALL
USER_CHARGES
1-isopropylamino-3-(3-methylphenoxy)-propan-2-ol
@<TRIPOS>ATOM
      1 C1         -0.3028   -0.2479    7.2841 C.3       1 <0>        -0.1218
      2 C2          0.4115   -0.5934    6.0029 C.ar      1 <0>        -0.0401
      3 C3          1.6021   -1.2957    6.0435 C.ar      1 <0>        -0.1494
      4 C4          2.2600   -1.6138    4.8700 C.ar      1 <0>        -0.0751
      5 C5          1.7289   -1.2310    3.6533 C.ar      1 <0>        -0.2163
      6 C6          0.5346   -0.5268    3.6099 C.ar      1 <0>         0.1215
      7 C7         -0.1209   -0.2038    4.7894 C.ar      1 <0>        -0.1473
      8 O1          0.0101   -0.1492    2.4144 O.3       1 <0>        -0.3028
      9 C8          0.7421   -0.5109    1.2415 C.3       1 <0>         0.0301
     10 C9          0.0021   -0.0041    0.0020 C.3       1 <0>         0.0856
     11 H1         -1.0205   -0.3814    0.0098 H         1 <0>         0.1354
     12 C10         0.7182   -0.4975   -1.2568 C.3       1 <0>        -0.0384
     13 C11         0.6685   -0.4662   -3.6774 C.3       1 <0>         0.0270
     14 C12        -0.3503   -0.5073   -4.8181 C.3       1 <0>        -0.1861
     15 C13         1.7983    0.5006   -4.0373 C.3       1 <0>        -0.1845
     16 O2         -0.0173    1.4248    0.0099 O.3       1 <0>        -0.5436
     17 H2          0.0452    0.7203    7.6444 H         1 <0>         0.0784
     18 H3         -1.3763   -0.2029    7.1009 H         1 <0>         0.0716
     19 H4         -0.0938   -1.0110    8.0338 H         1 <0>         0.0738
     20 H5          2.0189   -1.5958    6.9935 H         1 <0>         0.1292
     21 H6          3.1900   -2.1617    4.9043 H         1 <0>         0.1287
     22 H7          2.2434   -1.4794    2.7368 H         1 <0>         0.1227
     23 H8         -1.0484    0.3485    4.7585 H         1 <0>         0.1326
     24 H9          0.8346   -1.5958    1.1912 H         1 <0>         0.0811
     25 H10         1.7350   -0.0630    1.2804 H         1 <0>         0.0760
     26 H11         1.7408   -0.1202   -1.2645 H         1 <0>         0.1376
     27 H12         0.7330   -1.5874   -1.2628 H         1 <0>         0.1455
     28 H13         1.0796   -1.4635   -3.5213 H         1 <0>         0.1384
     29 H14        -0.7615    0.4900   -4.9742 H         1 <0>         0.0832
     30 H15         0.1400   -0.8452   -5.7311 H         1 <0>         0.1079
     31 H16        -1.1553   -1.1961   -4.5617 H         1 <0>         0.0829
     32 H17         2.5241    0.5299   -3.2246 H         1 <0>         0.0786
     33 H18         2.2886    0.1628   -4.9503 H         1 <0>         0.1076
     34 H19         1.3872    1.4980   -4.1934 H         1 <0>         0.0837
     35 H20         0.8606    1.8301    0.0037 H         1 <0>         0.3897
     36 N1         -0.0011   -0.0048   -2.4466 N.4       1 <0>        -0.5131
     37 H21        -0.0150    1.0217   -2.4331 H         1 <0>         0.4359
     38 H22        -0.9643   -0.3604   -2.4315 H         1 <0>         0.4340
@<TRIPOS>BOND
     1    1    2 1
     2    1   17 1
     3    1   18 1
     4    1   19 1
     5    2    7 ar
     6    2    3 ar
     7    3    4 ar
     8    3   20 1
     9    4    5 ar
    10    4   21 1
    11    5    6 ar
    12    5   22 1
    13    6    7 ar
    14    6    8 1
    15    7   23 1
    16    8    9 1
    17    9   10 1
    18    9   24 1
    19    9   25 1
    20   10   11 1
    21   10   12 1
    22   10   16 1
    23   12   26 1
    24   12   27 1
    25   12   36 1
    26   13   14 1
    27   13   15 1
    28   13   28 1
    29   13   36 1
    30   14   29 1
    31   14   30 1
    32   14   31 1
    33   15   32 1
    34   15   33 1
    35   15   34 1
    36   16   35 1
    37   36   37 1
    38   36   38 1
@<TRIPOS>MOLECULE
ZINC25758512
   37    40     0     0     0
SMALL
USER_CHARGES

@<TRIPOS>ATOM
      1 C1         -0.0166    1.3758    0.0096 C.ar      1 <0>        -0.1157
      2 C2          1.1763    2.0743    0.0020 C.ar      1 <0>        -0.1192
      3 C3          2.3733    1.3896   -0.0385 C.ar      1 <0>        -0.1176
      4 C4          2.4009    0.0034   -0.0861 C.ar      1 <0>        -0.0687
      5 C5          1.2046   -0.6903   -0.0209 C.ar      1 <0>        -0.1153
      6 C6          0.0021   -0.0041    0.0020 C.ar      1 <0>        -0.1124
      7 C7          1.1747   -2.1927    0.1001 C.3       1 <0>         0.0903
      8 N1          2.4687   -2.6697    0.6185 N.3       1 <0>        -0.6611
      9 C8          3.5248   -2.2256   -0.2859 C.3       1 <0>         0.0873
     10 H1          3.2495   -2.4784   -1.3135 H         1 <0>         0.0869
     11 C9          3.7062   -0.7101   -0.1807 C.3       1 <0>        -0.0427
     12 H2          4.2639   -0.5125    0.7432 H         1 <0>         0.0912
     13 C10         4.5908   -0.3033   -1.3255 C.ar      1 <0>        -0.0537
     14 C11         4.3958    0.8864   -1.9965 C.ar      1 <0>        -0.1327
     15 C12         5.2340    1.2611   -3.0353 C.ar      1 <0>         0.0776
     16 C13         6.2733    0.4178   -3.4135 C.ar      1 <0>         0.0830
     17 C14         6.4491   -0.7850   -2.7594 C.ar      1 <0>        -0.1337
     18 C15         5.6055   -1.1624   -1.7191 C.ar      1 <0>        -0.0657
     19 C16         5.8510   -2.5104   -1.0979 C.3       1 <0>        -0.0803
     20 C17         4.8823   -2.8512    0.0309 C.3       1 <0>        -0.1091
     21 O1          7.1132    0.7761   -4.4215 O.3       1 <0>        -0.4882
     22 O2          5.0382    2.4433   -3.6773 O.3       1 <0>        -0.4862
     23 H3         -0.9564    1.9057    0.0259 H         1 <0>         0.1245
     24 H4          1.1697    3.1547    0.0285 H         1 <0>         0.1242
     25 H5          3.3025    1.9411   -0.0098 H         1 <0>         0.1225
     26 H6         -0.9296   -0.5512    0.0145 H         1 <0>         0.1248
     27 H7          0.3852   -2.4841    0.7865 H         1 <0>         0.0925
     28 H8          1.0003   -2.6301   -0.8788 H         1 <0>         0.0889
     29 H9          2.6220   -2.3300    1.5564 H         1 <0>         0.3432
     30 H10         3.5793    1.5447   -1.7458 H         1 <0>         0.1418
     31 H11         7.2519   -1.4441   -3.0565 H         1 <0>         0.1336
     32 H12         5.7665   -3.2743   -1.8756 H         1 <0>         0.0813
     33 H13         6.8713   -2.5358   -0.7070 H         1 <0>         0.0819
     34 H14         5.2573   -2.4506    0.9741 H         1 <0>         0.0674
     35 H15         4.7745   -3.9334    0.1136 H         1 <0>         0.0849
     36 H16         7.8888    1.2742   -4.1290 H         1 <0>         0.3876
     37 H17         5.5166    3.1871   -3.2864 H         1 <0>         0.3869
@<TRIPOS>BOND
     1    1    6 ar
     2    1    2 ar
     3    1   23 1
     4    2    3 ar
     5    2   24 1
     6    3    4 ar
     7    3   25 1
     8    4   11 1
     9    4    5 ar
    10    5    6 ar
    11    5    7 1
    12    6   26 1
    13    7    8 1
    14    7   27 1
    15    7   28 1
    16    8    9 1
    17    8   29 1
    18    9   10 1
    19    9   20 1
    20    9   11 1
    21   11   12 1
    22   11   13 1
    23   13   18 ar
    24   13   14 ar
    25   14   15 ar
    26   14   30 1
    27   15   16 ar
    28   15   22 1
    29   16   17 ar
    30   16   21 1
    31   17   18 ar
    32   17   31 1
    33   18   19 1
    34   19   20 1
    35   19   32 1
    36   19   33 1
    37   20   34 1
    38   20   35 1
    39   21   36 1
    40   22   37 1
@<TRIPOS>MOLECULE
ZINC71754993
   49    52     0     0     0
SMALL
USER_CHARGES

@<TRIPOS>ATOM
      1 C1          2.6170   -2.6358   -1.1889 C.3       1 <0>        -0.1671
      2 C2          2.2134   -1.1611   -1.2456 C.3       1 <0>         0.1069
      3 N1          0.7528   -1.0529   -1.2130 N.am      1 <0>        -0.6114
      4 C3          0.0461   -1.0616    0.0703 C.3       1 <0>         0.0994
      5 C4         -0.0614    0.3687    0.6029 C.3       1 <0>        -0.1765
      6 C5          0.0592   -0.9454   -2.3636 C.2       1 <0>         0.5267
      7 O1          0.6474   -0.8703   -3.4215 O.2       1 <0>        -0.5333
      8 C6         -1.4473   -0.9186   -2.3355 C.3       1 <0>        -0.0725
      9 H1         -1.8080   -1.4645   -1.4638 H         1 <0>         0.1146
     10 C7         -1.9990   -1.5624   -3.6126 C.3       1 <0>         0.0770
     11 N2         -3.4593   -1.4331   -3.6037 N.3       1 <0>        -0.5484
     12 C8         -3.9081   -0.0485   -3.6742 C.3       1 <0>         0.1385
     13 H2         -3.8294    0.2578   -4.7173 H         1 <0>         0.0457
     14 C9         -5.3934    0.0321   -3.2953 C.3       1 <0>        -0.0232
     15 C10        -5.8207    1.4760   -3.2538 C.2       1 <0>        -0.1681
     16 C11        -6.9734    2.1212   -3.3973 C.2       1 <0>         0.0572
     17 N3         -6.7828    3.4861   -3.2468 N.pl3     1 <0>        -0.5952
     18 H3         -7.4843    4.1531   -3.3095 H         1 <0>         0.4163
     19 C12        -5.4715    3.7584   -2.9981 C.ar      1 <0>         0.1107
     20 C13        -4.8308    2.5163   -3.0000 C.ar      1 <0>        -0.1310
     21 C14        -3.4506    2.3050   -2.7990 C.ar      1 <0>        -0.0034
     22 C15        -2.7031    3.4367   -2.5663 C.ar      1 <0>        -0.1283
     23 C16        -3.3241    4.6838   -2.5516 C.ar      1 <0>        -0.0962
     24 C17        -4.6837    4.8842   -2.7614 C.ar      1 <0>        -0.1216
     25 C18        -3.0445    0.8889   -2.8726 C.2       1 <0>        -0.0548
     26 C19        -1.9279    0.5065   -2.2758 C.2       1 <0>        -0.1279
     27 C20        -4.0657   -2.2382   -4.6723 C.3       1 <0>         0.0274
     28 H4          2.2786   -3.0692   -0.2477 H         1 <0>         0.0559
     29 H5          2.1583   -3.1703   -2.0208 H         1 <0>         0.0579
     30 H6          3.7017   -2.7185   -1.2577 H         1 <0>         0.0673
     31 H7          2.6359   -0.6355   -0.3892 H         1 <0>         0.0755
     32 H8          2.5902   -0.7164   -2.1667 H         1 <0>         0.0872
     33 H9         -0.9534   -1.4738   -0.0682 H         1 <0>         0.0851
     34 H10         0.5964   -1.6747    0.7839 H         1 <0>         0.0811
     35 H11        -0.5106    0.3537    1.5960 H         1 <0>         0.0701
     36 H12         0.9333    0.8106    0.6607 H         1 <0>         0.0594
     37 H13        -0.6835    0.9606   -0.0684 H         1 <0>         0.0612
     38 H14        -1.5914   -1.0526   -4.4855 H         1 <0>         0.0533
     39 H15        -1.7248   -2.6170   -3.6391 H         1 <0>         0.0845
     40 H16        -5.9874   -0.5018   -4.0371 H         1 <0>         0.0765
     41 H17        -5.5435   -0.4200   -2.3149 H         1 <0>         0.0843
     42 H18        -7.9232    1.6497   -3.6022 H         1 <0>         0.1695
     43 H19        -1.6396    3.3585   -2.3953 H         1 <0>         0.1220
     44 H20        -2.7091    5.5517   -2.3648 H         1 <0>         0.1224
     45 H21        -5.1135    5.8748   -2.7421 H         1 <0>         0.1285
     46 H22        -1.3518    1.2331   -1.7222 H         1 <0>         0.1200
     47 H23        -3.7498   -3.2763   -4.5689 H         1 <0>         0.0734
     48 H24        -5.1517   -2.1799   -4.5994 H         1 <0>         0.0744
     49 H25        -3.7455   -1.8558   -5.6415 H         1 <0>         0.0291
@<TRIPOS>BOND
     1    1    2 1
     2    1   28 1
     3    1   29 1
     4    1   30 1
     5    2    3 1
     6    2   31 1
     7    2   32 1
     8    3    4 1
     9    3    6 am
    10    4    5 1
    11    4   33 1
    12    4   34 1
    13    5   35 1
    14    5   36 1
    15    5   37 1
    16    6    7 2
    17    6    8 1
    18    8    9 1
    19    8   26 1
    20    8   10 1
    21   10   11 1
    22   10   38 1
    23   10   39 1
    24   11   12 1
    25   11   27 1
    26   12   13 1
    27   12   25 1
    28   12   14 1
    29   14   15 1
    30   14   40 1
    31   14   41 1
    32   15   20 1
    33   15   16 2
    34   16   17 1
    35   16   42 1
    36   17   18 1
    37   17   19 1
    38   19   24 ar
    39   19   20 ar
    40   20   21 ar
    41   21   22 ar
    42   21   25 1
    43   22   23 ar
    44   22   43 1
    45   23   24 ar
    46   23   44 1
    47   24   45 1
    48   25   26 2
    49   26   46 1
    50   27   47 1
    51   27   48 1
    52   27   49 1
@<TRIPOS>MOLECULE
ZINC71754993
   50    53     0     0     0
SMALL
USER_CHARGES

@<TRIPOS>ATOM
      1 C1         -4.4131    1.6542    2.7709 C.3       1 <0>        -0.1692
      2 C2         -3.1002    1.6745    1.9857 C.3       1 <0>         0.1077
      3 N1         -3.2120    0.7884    0.8243 N.am      1 <0>        -0.6044
      4 C3         -3.6997    1.3136   -0.4534 C.3       1 <0>         0.0980
      5 C4         -2.5178    1.8262   -1.2787 C.3       1 <0>        -0.1810
      6 C5         -2.8661   -0.5098    0.9314 C.2       1 <0>         0.5240
      7 O1         -2.5501   -0.9662    2.0097 O.2       1 <0>        -0.5069
      8 C6         -2.8722   -1.3943   -0.2887 C.3       1 <0>        -0.1042
      9 H1         -2.7358   -0.7873   -1.1837 H         1 <0>         0.1306
     10 C7         -4.2036   -2.1497   -0.3737 C.3       1 <0>         0.0021
     11 N2         -4.1503   -3.0574   -1.5221 N.4       1 <0>        -0.3772
     12 C8         -3.1649   -4.1132   -1.3324 C.3       1 <0>         0.0727
     13 H2         -3.6138   -4.8485   -0.6647 H         1 <0>         0.1401
     14 C9         -2.9105   -4.8224   -2.6700 C.3       1 <0>        -0.0390
     15 C10        -1.8064   -5.8325   -2.5003 C.2       1 <0>        -0.2014
     16 C11        -1.4541   -6.9552   -3.1179 C.2       1 <0>         0.0960
     17 N3         -0.3151   -7.4883   -2.5346 N.pl3     1 <0>        -0.5871
     18 H3          0.1234   -8.3046   -2.8215 H         1 <0>         0.4245
     19 C12         0.1019   -6.7038   -1.5020 C.ar      1 <0>         0.1104
     20 C13        -0.8165   -5.6518   -1.4449 C.ar      1 <0>        -0.1254
     21 C14        -0.7954   -4.5939   -0.5123 C.ar      1 <0>        -0.0281
     22 C15         0.2416   -4.6193    0.3924 C.ar      1 <0>        -0.0998
     23 C16         1.1732   -5.6542    0.3464 C.ar      1 <0>        -0.0987
     24 C17         1.1382   -6.6995   -0.5693 C.ar      1 <0>        -0.0978
     25 C18        -1.9016   -3.6317   -0.6709 C.2       1 <0>        -0.0695
     26 C19        -1.7626   -2.4072   -0.1876 C.2       1 <0>        -0.1111
     27 C20        -5.4735   -3.6664   -1.7125 C.3       1 <0>        -0.0520
     28 H4         -4.3299    2.3134    3.6350 H         1 <0>         0.0742
     29 H5         -5.2253    1.9965    2.1296 H         1 <0>         0.0570
     30 H6         -4.6195    0.6382    3.1076 H         1 <0>         0.0594
     31 H7         -2.8938    2.6904    1.6490 H         1 <0>         0.0854
     32 H8         -2.2879    1.3322    2.6269 H         1 <0>         0.0886
     33 H9         -4.2089    0.5208   -1.0014 H         1 <0>         0.0700
     34 H10        -4.3955    2.1319   -0.2680 H         1 <0>         0.0939
     35 H11        -2.8686    2.1332   -2.2639 H         1 <0>         0.0759
     36 H12        -2.0638    2.6783   -0.7728 H         1 <0>         0.0695
     37 H13        -1.7789    1.0322   -1.3872 H         1 <0>         0.0580
     38 H14        -4.3580   -2.7236    0.5400 H         1 <0>         0.1434
     39 H15        -5.0199   -1.4395   -0.5058 H         1 <0>         0.1437
     40 H16        -3.8204   -5.3293   -2.9914 H         1 <0>         0.0997
     41 H17        -2.6190   -4.0881   -3.4210 H         1 <0>         0.0934
     42 H18        -1.9802   -7.3903   -3.9547 H         1 <0>         0.1758
     43 H19         0.3329   -3.8400    1.1346 H         1 <0>         0.1302
     44 H20         1.9754   -5.6435    1.0695 H         1 <0>         0.1317
     45 H21         1.8852   -7.4794   -0.5582 H         1 <0>         0.1373
     46 H22        -0.8304   -2.1256    0.2794 H         1 <0>         0.1476
     47 H23        -6.2103   -2.8845   -1.8961 H         1 <0>         0.1309
     48 H24        -5.4422   -4.3438   -2.5658 H         1 <0>         0.1309
     49 H25        -5.7497   -4.2228   -0.8168 H         1 <0>         0.1266
     50 H26        -3.9112   -2.5291   -2.3478 H         1 <0>         0.4234
@<TRIPOS>BOND
     1    1    2 1
     2    1   28 1
     3    1   29 1
     4    1   30 1
     5    2    3 1
     6    2   31 1
     7    2   32 1
     8    3    4 1
     9    3    6 am
    10    4    5 1
    11    4   33 1
    12    4   34 1
    13    5   35 1
    14    5   36 1
    15    5   37 1
    16    6    7 2
    17    6    8 1
    18    8    9 1
    19    8   26 1
    20    8   10 1
    21   10   11 1
    22   10   38 1
    23   10   39 1
    24   11   12 1
    25   11   27 1
    26   11   50 1
    27   12   13 1
    28   12   25 1
    29   12   14 1
    30   14   15 1
    31   14   40 1
    32   14   41 1
    33   15   20 1
    34   15   16 2
    35   16   17 1
    36   16   42 1
    37   17   18 1
    38   17   19 1
    39   19   24 ar
    40   19   20 ar
    41   20   21 ar
    42   21   22 ar
    43   21   25 1
    44   22   23 ar
    45   22   43 1
    46   23   24 ar
    47   23   44 1
    48   24   45 1
    49   25   26 2
    50   26   46 1
    51   27   47 1
    52   27   48 1
    53   27   49 1
@<TRIPOS>MOLECULE
ZINC00000023
   42    42     0     0     0
SMALL
USER_CHARGES

@<TRIPOS>ATOM
      1 C1         -0.0187    1.5258    0.0104 C.3       1 <0>        -0.1863
      2 C2          0.0021   -0.0041    0.0020 C.3       1 <0>         0.0237
      3 C3         -1.4333   -0.5336    0.0129 C.3       1 <0>        -0.1853
      4 N1          0.6897   -0.4778   -1.2066 N.4       1 <0>        -0.5024
      5 C4          2.1002   -0.0703   -1.1590 C.3       1 <0>        -0.0456
      6 C5          2.8163   -0.5637   -2.4178 C.3       1 <0>         0.0870
      7 H1          2.6781   -1.6404   -2.5160 H         1 <0>         0.1342
      8 C6          4.3098   -0.2489   -2.3115 C.3       1 <0>         0.0292
      9 O1          4.9962   -0.8116   -3.4314 O.3       1 <0>        -0.2974
     10 C7          6.3406   -0.6217   -3.4901 C.ar      1 <0>         0.1193
     11 C8          6.9868    0.0868   -2.4873 C.ar      1 <0>        -0.2066
     12 C9          8.3533    0.2781   -2.5491 C.ar      1 <0>        -0.0839
     13 C10         9.0774   -0.2360   -3.6092 C.ar      1 <0>        -0.1431
     14 C11         8.4358   -0.9419   -4.6098 C.ar      1 <0>        -0.0755
     15 C12         7.0699   -1.1408   -4.5497 C.ar      1 <0>        -0.0997
     16 C13         6.3721   -1.9158   -5.6376 C.3       1 <0>        -0.0468
     17 C14         5.8306   -0.9586   -6.6680 C.2       1 <0>        -0.1491
     18 C15         6.1568   -1.1001   -7.9288 C.2       1 <0>        -0.1878
     19 O2          2.2715    0.0930   -3.5641 O.3       1 <0>        -0.5421
     20 H2          1.0039    1.9031    0.0027 H         1 <0>         0.0795
     21 H3         -0.5459    1.8868   -0.8726 H         1 <0>         0.0834
     22 H4         -0.5289    1.8773    0.9072 H         1 <0>         0.1079
     23 H5          0.5293   -0.3651    0.8851 H         1 <0>         0.1397
     24 H6         -1.9605   -0.1726   -0.8702 H         1 <0>         0.0829
     25 H7         -1.4185   -1.6235    0.0069 H         1 <0>         0.0831
     26 H8         -1.9435   -0.1821    0.9097 H         1 <0>         0.1083
     27 H9          0.6317   -1.4840   -1.2540 H         1 <0>         0.4304
     28 H10         2.1628    1.0167   -1.1079 H         1 <0>         0.1406
     29 H11         2.5740   -0.5034   -0.2781 H         1 <0>         0.1458
     30 H12         4.4536    0.8316   -2.3027 H         1 <0>         0.0758
     31 H13         4.7064   -0.6757   -1.3903 H         1 <0>         0.0803
     32 H14         6.4217    0.4888   -1.6594 H         1 <0>         0.1233
     33 H15         8.8567    0.8298   -1.7690 H         1 <0>         0.1280
     34 H16        10.1458   -0.0853   -3.6557 H         1 <0>         0.1296
     35 H17         9.0035   -1.3420   -5.4369 H         1 <0>         0.1335
     36 H18         7.0803   -2.5962   -6.1105 H         1 <0>         0.0781
     37 H19         5.5508   -2.4882   -5.2064 H         1 <0>         0.0827
     38 H20         5.1735   -0.1561   -6.3669 H         1 <0>         0.1060
     39 H21         6.8138   -1.9026   -8.2298 H         1 <0>         0.0984
     40 H22         5.7687   -0.4141   -8.6672 H         1 <0>         0.0994
     41 H23         2.3595    1.0558   -3.5447 H         1 <0>         0.3897
     42 H24         0.2511   -0.0769   -2.0221 H         1 <0>         0.4317
@<TRIPOS>BOND
     1    1    2 1
     2    1   20 1
     3    1   21 1
     4    1   22 1
     5    2    3 1
     6    2    4 1
     7    2   23 1
     8    3   24 1
     9    3   25 1
    10    3   26 1
    11    4    5 1
    12    4   27 1
    13    4   42 1
    14    5    6 1
    15    5   28 1
    16    5   29 1
    17    6    7 1
    18    6    8 1
    19    6   19 1
    20    8    9 1
    21    8   30 1
    22    8   31 1
    23    9   10 1
    24   10   15 ar
    25   10   11 ar
    26   11   12 ar
    27   11   32 1
    28   12   13 ar
    29   12   33 1
    30   13   14 ar
    31   13   34 1
    32   14   15 ar
    33   14   35 1
    34   15   16 1
    35   16   17 1
    36   16   36 1
    37   16   37 1
    38   17   18 2
    39   17   38 1
    40   18   39 1
    41   18   40 1
    42   19   41 1
