@<TRIPOS>MOLECULE
ZINC01636704
   25    25     0     0     0
SMALL
USER_CHARGES

@<TRIPOS>ATOM
      1 C1         -0.0178    1.4636    0.0101 C.3       1 <0>        -0.0435
      2 C2          1.4163    1.9970   -0.0007 C.3       1 <0>         0.0576
      3 H1          1.9452    1.6372    0.8818 H         1 <0>         0.0953
      4 C3          2.1299    1.5015   -1.2619 C.3       1 <0>         0.0740
      5 H2          1.6316    1.9031   -2.1442 H         1 <0>         0.0896
      6 C4          2.0795   -0.0286   -1.2972 C.3       1 <0>         0.1002
      7 H3          2.5366   -0.3867   -2.2197 H         1 <0>         0.1194
      8 C5          0.6208   -0.4870   -1.2383 C.3       1 <0>         0.0442
      9 H4          0.0792   -0.0848   -2.0945 H         1 <0>         0.1594
     10 N1          0.0021   -0.0041    0.0020 N.4       1 <0>        -0.4939
     11 C6          0.5654   -2.0156   -1.2729 C.3       1 <0>         0.0552
     12 O1         -0.7972   -2.4415   -1.3354 O.3       1 <0>        -0.5823
     13 O2          2.7918   -0.5555   -0.1760 O.3       1 <0>        -0.5657
     14 O3          3.4911    1.9360   -1.2427 O.3       1 <0>        -0.5491
     15 O4          1.3941    3.4258    0.0058 O.3       1 <0>        -0.5404
     16 H5         -0.5288    1.8147    0.9066 H         1 <0>         0.1416
     17 H6         -0.5458    1.8242   -0.8727 H         1 <0>         0.1407
     18 H7          0.5329   -0.3366    0.7931 H         1 <0>         0.4344
     19 H8          1.1002   -2.3788   -2.1504 H         1 <0>         0.0978
     20 H9          1.0304   -2.4165   -0.3722 H         1 <0>         0.0847
     21 H10        -0.9084   -3.4018   -1.3601 H         1 <0>         0.4135
     22 H11         3.7244   -0.3017   -0.1479 H         1 <0>         0.4180
     23 H12         3.5970    2.8968   -1.2145 H         1 <0>         0.4076
     24 H13         0.9534    3.8088    0.7767 H         1 <0>         0.4003
     25 H14        -0.9428   -0.3526    0.0632 H         1 <0>         0.4412
@<TRIPOS>BOND
     1    1   10 1
     2    1    2 1
     3    1   16 1
     4    1   17 1
     5    2    3 1
     6    2    4 1
     7    2   15 1
     8    4    5 1
     9    4    6 1
    10    4   14 1
    11    6    7 1
    12    6    8 1
    13    6   13 1
    14    8    9 1
    15    8   10 1
    16    8   11 1
    17   10   18 1
    18   10   25 1
    19   11   12 1
    20   11   19 1
    21   11   20 1
    22   12   21 1
    23   13   22 1
    24   14   23 1
    25   15   24 1
@<TRIPOS>MOLECULE
ZINC05766623
   25    25     0     0     0
SMALL
USER_CHARGES
2,5-bis(hydroxymethyl)pyrrolidine-3,4-diol
@<TRIPOS>ATOM
      1 C1          1.2864    1.5618   -0.0018 C.3       1 <0>         0.0568
      2 C2          1.1449    3.0852    0.0077 C.3       1 <0>         0.0350
      3 H1          0.5071    3.4039   -0.8168 H         1 <0>         0.1626
      4 C3          2.5322    3.7417   -0.1181 C.3       1 <0>         0.0640
      5 H2          3.3059    2.9783   -0.2000 H         1 <0>         0.1121
      6 C4          2.7147    4.5529    1.1852 C.3       1 <0>         0.0547
      7 H3          3.7394    4.4743    1.5482 H         1 <0>         0.1206
      8 C5          1.7284    3.8651    2.1624 C.3       1 <0>         0.0415
      9 H4          2.1699    2.9609    2.5814 H         1 <0>         0.1615
     10 C6          1.3131    4.8276    3.2768 C.3       1 <0>         0.0663
     11 O1          0.4985    4.1353    4.2251 O.3       1 <0>        -0.5803
     12 O2          2.3552    5.9212    0.9837 O.3       1 <0>        -0.5440
     13 O3          2.5689    4.6103   -1.2522 O.3       1 <0>        -0.5387
     14 O4         -0.0110    0.9628    0.0073 O.3       1 <0>        -0.5753
     15 H5          1.8401    1.2428    0.8812 H         1 <0>         0.0735
     16 H6          1.8231    1.2523   -0.8987 H         1 <0>         0.0981
     17 H7          2.2030    5.2126    3.7748 H         1 <0>         0.0962
     18 H8          0.7486    5.6564    2.8495 H         1 <0>         0.0820
     19 H9          0.1980    4.6855    4.9614 H         1 <0>         0.4102
     20 H10         2.8939    6.3760    0.3219 H         1 <0>         0.4057
     21 H11         3.4192    5.0522   -1.3819 H         1 <0>         0.4033
     22 H12         0.0021   -0.0041    0.0020 H         1 <0>         0.4125
     23 N1          0.5915    3.5276    1.2874 N.4       1 <0>        -0.5042
     24 H13         0.0350    2.7747    1.7089 H         1 <0>         0.4460
     25 H14        -0.0014    4.3541    1.1472 H         1 <0>         0.4399
@<TRIPOS>BOND
     1    1    2 1
     2    1   14 1
     3    1   15 1
     4    1   16 1
     5    2    3 1
     6    2    4 1
     7    2   23 1
     8    4    5 1
     9    4    6 1
    10    4   13 1
    11    6    7 1
    12    6    8 1
    13    6   12 1
    14    8    9 1
    15    8   10 1
    16    8   23 1
    17   10   11 1
    18   10   17 1
    19   10   18 1
    20   11   19 1
    21   12   20 1
    22   13   21 1
    23   14   22 1
    24   23   24 1
    25   23   25 1
