@<TRIPOS>MOLECULE
ZINC03782818
   51    55     0     0     0
SMALL
USER_CHARGES

@<TRIPOS>ATOM
      1 C1          0.0895   -5.1806   -0.3315 C.3       1 <0>        -0.1532
      2 C2          0.1330   -3.6520   -0.2848 C.3       1 <0>         0.0824
      3 O1          0.3156   -3.1400   -1.6063 O.3       1 <0>        -0.2881
      4 C3          0.3760   -1.7953   -1.7411 C.2       1 <0>         0.4632
      5 N1          0.2859   -0.9373   -0.7589 N.2       1 <0>        -0.5521
      6 C4          0.3865    0.3269   -1.2500 C.ar      1 <0>         0.0540
      7 C5          0.3563    1.5910   -0.6579 C.ar      1 <0>        -0.0950
      8 C6          0.4862    2.7237   -1.4351 C.ar      1 <0>        -0.1326
      9 C7          0.6472    2.6260   -2.8039 C.ar      1 <0>        -0.0984
     10 C8          0.6807    1.3733   -3.4209 C.ar      1 <0>        -0.1052
     11 C9          0.5501    0.2157   -2.6400 C.ar      1 <0>         0.0828
     12 N2          0.5458   -1.1324   -2.9221 N.pl3     1 <0>        -0.4528
     13 C10         0.6925   -1.7423   -4.2461 C.3       1 <0>         0.1335
     14 C11         2.1231   -2.1719   -4.4455 C.ar      1 <0>        -0.0407
     15 C12         3.1417   -1.4986   -3.7952 C.ar      1 <0>        -0.1014
     16 C13         4.4536   -1.8875   -3.9739 C.ar      1 <0>        -0.1027
     17 C14         4.7516   -2.9612   -4.8119 C.ar      1 <0>        -0.0712
     18 C15         3.7208   -3.6359   -5.4646 C.ar      1 <0>         0.0082
     19 C16         2.4122   -3.2416   -5.2737 C.ar      1 <0>        -0.1293
     20 C17         6.1587   -3.3834   -5.0084 C.ar      1 <0>        -0.0192
     21 C18         7.1331   -2.4432   -5.3319 C.ar      1 <0>        -0.1125
     22 C19         8.4423   -2.8406   -5.5141 C.ar      1 <0>        -0.1367
     23 C20         8.7960   -4.1725   -5.3770 C.ar      1 <0>        -0.1319
     24 C21         7.8438   -5.1182   -5.0567 C.ar      1 <0>        -0.1068
     25 C22         6.5180   -4.7340   -4.8635 C.ar      1 <0>         0.0468
     26 C23         5.4946   -5.7426   -4.5146 C.2       1 <0>         0.0721
     27 N3          4.1937   -5.5236   -4.3126 N.2       1 <0>        -0.3355
     28 N4          3.6493   -6.6577   -4.0308 N.2       1 <0>        -0.1935
     29 N5          4.5498   -7.5771   -4.0472 N.2       1 <0>        -0.2018
     30 N6          5.6889   -7.0521   -4.3454 N.2       1 <0>        -0.3731
     31 C24         0.8512    1.2690   -4.8788 C.2       1 <0>         0.5159
     32 O2          0.3623    2.1159   -5.6140 O.co2     1 <0>        -0.6872
     33 O3          1.4820    0.3354   -5.3557 O.co2     1 <0>        -0.6546
     34 H1         -0.7389   -5.5014   -0.9632 H         1 <0>         0.0642
     35 H2          1.0262   -5.5584   -0.7413 H         1 <0>         0.0734
     36 H3         -0.0498   -5.5712    0.6765 H         1 <0>         0.0762
     37 H4         -0.8038   -3.2742    0.1250 H         1 <0>         0.0629
     38 H5          0.9614   -3.3312    0.3469 H         1 <0>         0.0652
     39 H6          0.2307    1.6824    0.4109 H         1 <0>         0.1156
     40 H7          0.4613    3.6973   -0.9684 H         1 <0>         0.1171
     41 H8          0.7472    3.5217   -3.3991 H         1 <0>         0.1246
     42 H9          0.0385   -2.6111   -4.3204 H         1 <0>         0.0722
     43 H10         0.4209   -1.0165   -5.0126 H         1 <0>         0.1566
     44 H11         2.9097   -0.6668   -3.1466 H         1 <0>         0.1020
     45 H12         5.2480   -1.3609   -3.4660 H         1 <0>         0.1026
     46 H13         3.9457   -4.4684   -6.1149 H         1 <0>         0.1062
     47 H14         1.6126   -3.7663   -5.7753 H         1 <0>         0.1063
     48 H15         6.8645   -1.4028   -5.4408 H         1 <0>         0.1208
     49 H16         9.1954   -2.1084   -5.7653 H         1 <0>         0.1130
     50 H17         9.8233   -4.4727   -5.5221 H         1 <0>         0.1131
     51 H18         8.1264   -6.1553   -4.9517 H         1 <0>         0.1246
@<TRIPOS>BOND
     1    1    2 1
     2    1   34 1
     3    1   35 1
     4    1   36 1
     5    2    3 1
     6    2   37 1
     7    2   38 1
     8    3    4 1
     9    4   12 1
    10    4    5 2
    11    5    6 1
    12    6   11 ar
    13    6    7 ar
    14    7    8 ar
    15    7   39 1
    16    8    9 ar
    17    8   40 1
    18    9   10 ar
    19    9   41 1
    20   10   11 ar
    21   10   31 1
    22   11   12 1
    23   12   13 1
    24   13   14 1
    25   13   42 1
    26   13   43 1
    27   14   19 ar
    28   14   15 ar
    29   15   16 ar
    30   15   44 1
    31   16   17 ar
    32   16   45 1
    33   17   18 ar
    34   17   20 1
    35   18   19 ar
    36   18   46 1
    37   19   47 1
    38   20   25 ar
    39   20   21 ar
    40   21   22 ar
    41   21   48 1
    42   22   23 ar
    43   22   49 1
    44   23   24 ar
    45   23   50 1
    46   24   25 ar
    47   24   51 1
    48   25   26 1
    49   26   30 2
    50   26   27 1
    51   27   28 1
    52   28   29 2
    53   29   30 1
    54   31   32 2
    55   31   33 1
@<TRIPOS>MOLECULE
ZINC03782818
   52    56     0     0     0
SMALL
USER_CHARGES

@<TRIPOS>ATOM
      1 C1          0.0895   -5.1806   -0.3315 C.3       1 <0>        -0.1561
      2 C2          0.1330   -3.6520   -0.2848 C.3       1 <0>         0.0431
      3 O1          0.3156   -3.1400   -1.6063 O.3       1 <0>        -0.2529
      4 C3          0.3760   -1.7953   -1.7411 C.cat     1 <0>         0.5549
      5 N1          0.2859   -0.9373   -0.7589 N.pl3     1 <0>        -0.5380
      6 C4          0.3865    0.3269   -1.2500 C.ar      1 <0>         0.0428
      7 C5          0.3563    1.5910   -0.6579 C.ar      1 <0>        -0.1004
      8 C6          0.4862    2.7237   -1.4351 C.ar      1 <0>        -0.0886
      9 C7          0.6472    2.6260   -2.8039 C.ar      1 <0>        -0.0626
     10 C8          0.6807    1.3733   -3.4209 C.ar      1 <0>        -0.0796
     11 C9          0.5501    0.2157   -2.6400 C.ar      1 <0>         0.1123
     12 N2          0.5458   -1.1324   -2.9221 N.pl3     1 <0>        -0.3864
     13 C10         0.6925   -1.7423   -4.2461 C.3       1 <0>         0.1264
     14 C11         2.1231   -2.1719   -4.4455 C.ar      1 <0>        -0.0673
     15 C12         3.1417   -1.4986   -3.7952 C.ar      1 <0>        -0.1124
     16 C13         4.4536   -1.8875   -3.9739 C.ar      1 <0>        -0.1013
     17 C14         4.7516   -2.9612   -4.8119 C.ar      1 <0>        -0.0485
     18 C15         3.7208   -3.6359   -5.4646 C.ar      1 <0>         0.0142
     19 C16         2.4122   -3.2416   -5.2737 C.ar      1 <0>        -0.1183
     20 C17         6.1587   -3.3834   -5.0084 C.ar      1 <0>        -0.0348
     21 C18         7.1331   -2.4432   -5.3319 C.ar      1 <0>        -0.1093
     22 C19         8.4423   -2.8406   -5.5141 C.ar      1 <0>        -0.1346
     23 C20         8.7960   -4.1725   -5.3770 C.ar      1 <0>        -0.1237
     24 C21         7.8438   -5.1182   -5.0567 C.ar      1 <0>        -0.1050
     25 C22         6.5180   -4.7340   -4.8635 C.ar      1 <0>         0.0486
     26 C23         5.4946   -5.7426   -4.5146 C.2       1 <0>         0.0745
     27 N3          4.1937   -5.5236   -4.3126 N.2       1 <0>        -0.3488
     28 N4          3.6493   -6.6577   -4.0308 N.2       1 <0>        -0.1955
     29 N5          4.5498   -7.5771   -4.0472 N.2       1 <0>        -0.1947
     30 N6          5.6889   -7.0521   -4.3454 N.2       1 <0>        -0.3664
     31 C24         0.8512    1.2690   -4.8788 C.2       1 <0>         0.5106
     32 O2          0.3623    2.1159   -5.6140 O.co2     1 <0>        -0.6575
     33 O3          1.4820    0.3354   -5.3557 O.co2     1 <0>        -0.6401
     34 H1         -0.7389   -5.5014   -0.9632 H         1 <0>         0.0782
     35 H2          1.0262   -5.5584   -0.7413 H         1 <0>         0.0871
     36 H3         -0.0498   -5.5712    0.6765 H         1 <0>         0.0948
     37 H4         -0.8038   -3.2742    0.1250 H         1 <0>         0.0803
     38 H5          0.9614   -3.3312    0.3469 H         1 <0>         0.0822
     39 H6          0.2307    1.6824    0.4109 H         1 <0>         0.1397
     40 H7          0.4613    3.6973   -0.9684 H         1 <0>         0.1451
     41 H8          0.7472    3.5217   -3.3991 H         1 <0>         0.1508
     42 H9          0.0385   -2.6111   -4.3204 H         1 <0>         0.0967
     43 H10         0.4209   -1.0165   -5.0126 H         1 <0>         0.1788
     44 H11         2.9097   -0.6668   -3.1466 H         1 <0>         0.0960
     45 H12         5.2480   -1.3609   -3.4660 H         1 <0>         0.1084
     46 H13         3.9457   -4.4684   -6.1149 H         1 <0>         0.1140
     47 H14         1.6126   -3.7663   -5.7753 H         1 <0>         0.1129
     48 H15         6.8645   -1.4028   -5.4408 H         1 <0>         0.1212
     49 H16         9.1954   -2.1084   -5.7653 H         1 <0>         0.1166
     50 H17         9.8233   -4.4727   -5.5221 H         1 <0>         0.1173
     51 H18         8.1264   -6.1553   -4.9517 H         1 <0>         0.1276
     52 H19         0.1656   -1.1668    0.1759 H         1 <0>         0.4474
@<TRIPOS>BOND
     1    1    2 1
     2    1   34 1
     3    1   35 1
     4    1   36 1
     5    2    3 1
     6    2   37 1
     7    2   38 1
     8    3    4 1
     9    4   12 1
    10    4    5 2
    11    5    6 1
    12    5   52 1
    13    6   11 ar
    14    6    7 ar
    15    7    8 ar
    16    7   39 1
    17    8    9 ar
    18    8   40 1
    19    9   10 ar
    20    9   41 1
    21   10   11 ar
    22   10   31 1
    23   11   12 1
    24   12   13 1
    25   13   14 1
    26   13   42 1
    27   13   43 1
    28   14   19 ar
    29   14   15 ar
    30   15   16 ar
    31   15   44 1
    32   16   17 ar
    33   16   45 1
    34   17   18 ar
    35   17   20 1
    36   18   19 ar
    37   18   46 1
    38   19   47 1
    39   20   25 ar
    40   20   21 ar
    41   21   22 ar
    42   21   48 1
    43   22   23 ar
    44   22   49 1
    45   23   24 ar
    46   23   50 1
    47   24   25 ar
    48   24   51 1
    49   25   26 1
    50   26   30 2
    51   26   27 1
    52   27   28 1
    53   28   29 2
    54   29   30 1
    55   31   32 2
    56   31   33 1
@<TRIPOS>MOLECULE
ZINC11687040
   74    78     0     0     0
SMALL
USER_CHARGES
2-[4-[[2-butyl-6-(cyclohexylcarbamoylamino)benzimidazol-1-yl]methyl]phenyl]benzoic acid
@<TRIPOS>ATOM
      1 C1          0.1709    1.8160  -14.6673 C.3       1 <0>        -0.1518
      2 C2         -0.4305    0.5817  -13.9922 C.3       1 <0>        -0.1246
      3 C3         -0.6015    0.8513  -12.4959 C.3       1 <0>        -0.1128
      4 C4         -1.2029   -0.3830  -11.8208 C.3       1 <0>        -0.0478
      5 C5         -1.2599   -0.1630  -10.3310 C.2       1 <0>         0.2904
      6 N1         -2.2955    0.2832   -9.6827 N.2       1 <0>        -0.4934
      7 C6         -2.0062    0.3615   -8.3576 C.ar      1 <0>         0.0340
      8 C7         -2.7357    0.7655   -7.2358 C.ar      1 <0>        -0.0465
      9 C8         -2.1591    0.7322   -5.9989 C.ar      1 <0>        -0.1496
     10 C9         -0.8444    0.2979   -5.8405 C.ar      1 <0>         0.1722
     11 C10        -0.1034   -0.1013   -6.9397 C.ar      1 <0>        -0.1048
     12 C11        -0.6803   -0.0771   -8.2017 C.ar      1 <0>         0.0766
     13 N2         -0.2349   -0.4020   -9.4675 N.pl3     1 <0>        -0.4747
     14 C12         1.0945   -0.9090   -9.8167 C.3       1 <0>         0.1589
     15 C13         1.0816   -2.4156   -9.7856 C.ar      1 <0>        -0.1298
     16 C14         1.2680   -3.0816   -8.5874 C.ar      1 <0>        -0.0995
     17 C15         1.2515   -4.4610   -8.5518 C.ar      1 <0>        -0.0220
     18 C16         1.0579   -5.1837   -9.7285 C.ar      1 <0>        -0.0025
     19 C17         0.8764   -4.5069  -10.9340 C.ar      1 <0>        -0.1160
     20 C18         0.8891   -3.1272  -10.9562 C.ar      1 <0>        -0.1169
     21 C19         1.0448   -6.6651   -9.6978 C.ar      1 <0>        -0.0314
     22 C20         1.9476   -7.3896  -10.4709 C.ar      1 <0>        -0.1239
     23 C21         1.9318   -8.7695  -10.4399 C.ar      1 <0>        -0.1268
     24 C22         1.0217   -9.4433   -9.6419 C.ar      1 <0>        -0.1371
     25 C23         0.1194   -8.7437   -8.8683 C.ar      1 <0>        -0.0805
     26 C24         0.1236   -7.3480   -8.8829 C.ar      1 <0>        -0.0999
     27 C25        -0.8348   -6.5941   -8.0531 C.2       1 <0>         0.4824
     28 O1         -0.9066   -5.3854   -8.1543 O.co2     1 <0>        -0.6042
     29 N3         -0.2683    0.2706   -4.5642 N.am      1 <0>        -0.6833
     30 C26         0.6233   -0.6892   -4.2477 C.2       1 <0>         0.6976
     31 O2          0.8582   -1.5847   -5.0361 O.2       1 <0>        -0.5555
     32 N4          1.2546   -0.6566   -3.0574 N.am      1 <0>        -0.7403
     33 C27         2.2238   -1.6999   -2.7134 C.3       1 <0>         0.1642
     34 C28         3.2157   -1.1551   -1.6838 C.3       1 <0>        -0.1240
     35 C29         4.2279   -2.2448   -1.3245 C.3       1 <0>        -0.1154
     36 C30         3.4921   -3.4502   -0.7357 C.3       1 <0>        -0.1208
     37 C31         2.5002   -3.9950   -1.7654 C.3       1 <0>        -0.1188
     38 C32         1.4880   -2.9053   -2.1246 C.3       1 <0>        -0.1319
     39 H1         -0.4940    2.6680  -14.5253 H         1 <0>         0.0536
     40 H2          1.1423    2.0354  -14.2243 H         1 <0>         0.0527
     41 H3          0.2927    1.6239  -15.7333 H         1 <0>         0.0536
     42 H4          0.2344   -0.2703  -14.1342 H         1 <0>         0.0640
     43 H5         -1.4019    0.3623  -14.4352 H         1 <0>         0.0657
     44 H6         -1.2664    1.7033  -12.3539 H         1 <0>         0.0706
     45 H7          0.3699    1.0707  -12.0529 H         1 <0>         0.0609
     46 H8         -0.5828   -1.2532  -12.0361 H         1 <0>         0.0876
     47 H9         -2.2101   -0.5512  -12.2020 H         1 <0>         0.0992
     48 H10        -3.7551    1.1041   -7.3476 H         1 <0>         0.1303
     49 H11        -2.7270    1.0451   -5.1352 H         1 <0>         0.1281
     50 H12         0.9166   -0.4337   -6.8153 H         1 <0>         0.1324
     51 H13         1.3620   -0.5685  -10.8170 H         1 <0>         0.0953
     52 H14         1.8254   -0.5370   -9.0987 H         1 <0>         0.0920
     53 H15         1.4225   -2.5208   -7.6775 H         1 <0>         0.1185
     54 H16         1.3926   -4.9798   -7.6151 H         1 <0>         0.1130
     55 H17         0.7257   -5.0614  -11.8485 H         1 <0>         0.1150
     56 H18         0.7483   -2.6019  -11.8893 H         1 <0>         0.1129
     57 H19         2.6606   -6.8719  -11.0955 H         1 <0>         0.1173
     58 H20         2.6338   -9.3277  -11.0416 H         1 <0>         0.1154
     59 H21         1.0190  -10.5231   -9.6251 H         1 <0>         0.1158
     60 H22        -0.5875   -9.2754   -8.2487 H         1 <0>         0.1307
     61 H23        -0.5109    0.9426   -3.9081 H         1 <0>         0.4042
     62 H24         1.0673    0.0578   -2.4285 H         1 <0>         0.3933
     63 H25         2.7623   -2.0056   -3.6104 H         1 <0>         0.0899
     64 H26         3.7399   -0.2964   -2.1032 H         1 <0>         0.0668
     65 H27         2.6772   -0.8495   -0.7868 H         1 <0>         0.0662
     66 H28         4.7664   -2.5505   -2.2215 H         1 <0>         0.0659
     67 H29         4.9346   -1.8567   -0.5909 H         1 <0>         0.0650
     68 H30         2.9536   -3.1445    0.1613 H         1 <0>         0.0608
     69 H31         4.2132   -4.2265   -0.4798 H         1 <0>         0.0626
     70 H32         1.9760   -4.8537   -1.3459 H         1 <0>         0.0659
     71 H33         3.0388   -4.3006   -2.6624 H         1 <0>         0.0664
     72 H34         0.9495   -2.5996   -1.2276 H         1 <0>         0.0606
     73 H35         0.7814   -3.2934   -2.8582 H         1 <0>         0.0732
     74 O3         -1.6309   -7.2457   -7.1829 O.co2     1 <0>        -0.7552
@<TRIPOS>BOND
     1    1    2 1
     2    1   39 1
     3    1   40 1
     4    1   41 1
     5    2    3 1
     6    2   42 1
     7    2   43 1
     8    3    4 1
     9    3   44 1
    10    3   45 1
    11    4    5 1
    12    4   46 1
    13    4   47 1
    14    5   13 1
    15    5    6 2
    16    6    7 1
    17    7   12 ar
    18    7    8 ar
    19    8    9 ar
    20    8   48 1
    21    9   10 ar
    22    9   49 1
    23   10   11 ar
    24   10   29 1
    25   11   12 ar
    26   11   50 1
    27   12   13 1
    28   13   14 1
    29   14   15 1
    30   14   51 1
    31   14   52 1
    32   15   20 ar
    33   15   16 ar
    34   16   17 ar
    35   16   53 1
    36   17   18 ar
    37   17   54 1
    38   18   19 ar
    39   18   21 1
    40   19   20 ar
    41   19   55 1
    42   20   56 1
    43   21   26 ar
    44   21   22 ar
    45   22   23 ar
    46   22   57 1
    47   23   24 ar
    48   23   58 1
    49   24   25 ar
    50   24   59 1
    51   25   26 ar
    52   25   60 1
    53   26   27 1
    54   27   28 2
    55   27   74 1
    56   29   30 am
    57   29   61 1
    58   30   31 2
    59   30   32 am
    60   32   33 1
    61   32   62 1
    62   33   38 1
    63   33   34 1
    64   33   63 1
    65   34   35 1
    66   34   64 1
    67   34   65 1
    68   35   36 1
    69   35   66 1
    70   35   67 1
    71   36   37 1
    72   36   68 1
    73   36   69 1
    74   37   38 1
    75   37   70 1
    76   37   71 1
    77   38   72 1
    78   38   73 1
@<TRIPOS>MOLECULE
ZINC03783066
   69    73     0     0     0
SMALL
USER_CHARGES

@<TRIPOS>ATOM
      1 C1         -0.2101    1.4175   -4.4385 C.3       1 <0>        -0.1032
      2 C2         -0.1304    0.0033   -3.9241 C.ar      1 <0>        -0.0980
      3 C3          0.5410   -0.9602   -4.6513 C.ar      1 <0>        -0.0941
      4 C4          0.6141   -2.2580   -4.1803 C.ar      1 <0>        -0.1139
      5 C5          0.0161   -2.5962   -2.9800 C.ar      1 <0>        -0.0938
      6 C6         -0.6564   -1.6379   -2.2477 C.ar      1 <0>        -0.1193
      7 C7         -0.7273   -0.3316   -2.7155 C.ar      1 <0>         0.1758
      8 N1         -1.4021    0.6415   -1.9748 N.pl3     1 <0>        -0.6867
      9 C8         -0.6798    1.4341   -0.9767 C.3       1 <0>         0.1172
     10 C9         -2.8323    0.8694   -2.1960 C.3       1 <0>         0.1183
     11 C10         1.3467   -3.3067   -4.9770 C.3       1 <0>         0.1474
     12 N2          2.7527   -3.3381   -4.5665 N.pl3     1 <0>        -0.4464
     13 C11         3.7775   -2.6802   -5.1560 C.2       1 <0>         0.1635
     14 N3          4.8801   -2.9513   -4.5073 N.2       1 <0>        -0.4772
     15 C12         4.6007   -3.7784   -3.4977 C.2       1 <0>        -0.0264
     16 C13         3.2742   -4.0305   -3.5158 C.2       1 <0>         0.0117
     17 C14         2.5550   -4.9247   -2.5403 C.3       1 <0>        -0.0457
     18 C15         3.4421   -5.1232   -1.3045 C.3       1 <0>         0.0858
     19 H1          3.4285   -4.2183   -0.6970 H         1 <0>         0.0631
     20 N4          4.8186   -5.4024   -1.7400 N.am      1 <0>        -0.5941
     21 C16         5.5502   -4.3574   -2.4758 C.3       1 <0>         0.2048
     22 C17         5.3982   -6.5903   -1.4767 C.2       1 <0>         0.5028
     23 O1          4.7536   -7.4784   -0.9603 O.2       1 <0>        -0.4450
     24 C18         6.8474   -6.8150   -1.8238 C.3       1 <0>        -0.0317
     25 C19         7.7019   -5.8204   -1.0811 C.ar      1 <0>        -0.0647
     26 C20         7.4999   -5.6083    0.2698 C.ar      1 <0>        -0.1008
     27 C21         8.2837   -4.6959    0.9510 C.ar      1 <0>        -0.1149
     28 C22         9.2698   -3.9959    0.2814 C.ar      1 <0>        -0.1231
     29 C23         9.4724   -4.2086   -1.0694 C.ar      1 <0>        -0.1197
     30 C24         8.6914   -5.1241   -1.7497 C.ar      1 <0>        -0.1111
     31 C25         7.2472   -8.2136   -1.4299 C.ar      1 <0>        -0.0567
     32 C26         7.0645   -8.6443   -0.1292 C.ar      1 <0>        -0.0721
     33 C27         7.4312   -9.9272    0.2321 C.ar      1 <0>        -0.1224
     34 C28         7.9803  -10.7796   -0.7075 C.ar      1 <0>        -0.1225
     35 C29         8.1623  -10.3492   -2.0085 C.ar      1 <0>        -0.1287
     36 C30         7.7915   -9.0677   -2.3708 C.ar      1 <0>        -0.1114
     37 C31         2.9237   -6.2825   -0.4931 C.2       1 <0>         0.5181
     38 O2          2.6297   -7.3294   -1.0445 O.co2     1 <0>        -0.6612
     39 O3          2.7984   -6.1736    0.7148 O.co2     1 <0>        -0.7014
     40 H2          0.6424    1.9872   -4.0687 H         1 <0>         0.0652
     41 H3         -0.1962    1.4091   -5.5284 H         1 <0>         0.0606
     42 H4         -1.1341    1.8792   -4.0905 H         1 <0>         0.0670
     43 H5          1.0091   -0.6994   -5.5890 H         1 <0>         0.1214
     44 H6          0.0747   -3.6110   -2.6151 H         1 <0>         0.1287
     45 H7         -1.1235   -1.9027   -1.3107 H         1 <0>         0.1252
     46 H8          0.1251    1.9849   -1.4633 H         1 <0>         0.0392
     47 H9         -1.3666    2.1364   -0.5041 H         1 <0>         0.0644
     48 H10        -0.2607    0.7709   -0.2200 H         1 <0>         0.0421
     49 H11        -3.4097    0.2251   -1.5331 H         1 <0>         0.0336
     50 H12        -3.0705    1.9124   -1.9872 H         1 <0>         0.0561
     51 H13        -3.0807    0.6404   -3.2324 H         1 <0>         0.0530
     52 H14         0.8939   -4.2818   -4.7972 H         1 <0>         0.0997
     53 H15         1.2833   -3.0669   -6.0383 H         1 <0>         0.1013
     54 H16         3.6980   -2.0372   -6.0201 H         1 <0>         0.1997
     55 H17         1.6144   -4.4603   -2.2440 H         1 <0>         0.0714
     56 H18         2.3571   -5.8898   -3.0068 H         1 <0>         0.0908
     57 H19         6.4188   -4.7847   -2.9768 H         1 <0>         0.0877
     58 H20         5.8670   -3.5795   -1.7811 H         1 <0>         0.0703
     59 H21         6.9883   -6.6854   -2.8968 H         1 <0>         0.1021
     60 H22         6.7295   -6.1552    0.7930 H         1 <0>         0.1248
     61 H23         8.1254   -4.5297    2.0064 H         1 <0>         0.1210
     62 H24         9.8817   -3.2825    0.8134 H         1 <0>         0.1180
     63 H25        10.2426   -3.6614   -1.5927 H         1 <0>         0.1200
     64 H26         8.8522   -5.2930   -2.8042 H         1 <0>         0.1217
     65 H27         6.6355   -7.9784    0.6049 H         1 <0>         0.1227
     66 H28         7.2891  -10.2635    1.2485 H         1 <0>         0.1191
     67 H29         8.2675  -11.7817   -0.4251 H         1 <0>         0.1162
     68 H30         8.5916  -11.0150   -2.7425 H         1 <0>         0.1172
     69 H31         7.9302   -8.7327   -3.3881 H         1 <0>         0.1174
@<TRIPOS>BOND
     1    1    2 1
     2    1   40 1
     3    1   41 1
     4    1   42 1
     5    2    7 ar
     6    2    3 ar
     7    3    4 ar
     8    3   43 1
     9    4    5 ar
    10    4   11 1
    11    5    6 ar
    12    5   44 1
    13    6    7 ar
    14    6   45 1
    15    7    8 1
    16    8    9 1
    17    8   10 1
    18    9   46 1
    19    9   47 1
    20    9   48 1
    21   10   49 1
    22   10   50 1
    23   10   51 1
    24   11   12 1
    25   11   52 1
    26   11   53 1
    27   12   16 1
    28   12   13 1
    29   13   14 2
    30   13   54 1
    31   14   15 1
    32   15   21 1
    33   15   16 2
    34   16   17 1
    35   17   18 1
    36   17   55 1
    37   17   56 1
    38   18   19 1
    39   18   20 1
    40   18   37 1
    41   20   21 1
    42   20   22 am
    43   21   57 1
    44   21   58 1
    45   22   23 2
    46   22   24 1
    47   24   25 1
    48   24   31 1
    49   24   59 1
    50   25   30 ar
    51   25   26 ar
    52   26   27 ar
    53   26   60 1
    54   27   28 ar
    55   27   61 1
    56   28   29 ar
    57   28   62 1
    58   29   30 ar
    59   29   63 1
    60   30   64 1
    61   31   36 ar
    62   31   32 ar
    63   32   33 ar
    64   32   65 1
    65   33   34 ar
    66   33   66 1
    67   34   35 ar
    68   34   67 1
    69   35   36 ar
    70   35   68 1
    71   36   69 1
    72   37   38 2
    73   37   39 1
@<TRIPOS>MOLECULE
ZINC02014009
   42    44     0     0     0
SMALL
USER_CHARGES
4-[(2-butylbenzoimidazol-1-yl)methyl]benzoic acid
@<TRIPOS>ATOM
      1 C1         -2.6260    8.5797   -3.4275 C.3       1 <0>        -0.1523
      2 C2         -2.5627    8.2412   -1.9367 C.3       1 <0>        -0.1245
      3 C3         -2.1122    6.7895   -1.7620 C.3       1 <0>        -0.1121
      4 C4         -2.0488    6.4511   -0.2712 C.3       1 <0>        -0.0476
      5 C5         -1.4929    5.0616   -0.0947 C.2       1 <0>         0.2912
      6 N1         -0.2267    4.7648   -0.0555 N.2       1 <0>        -0.4971
      7 C6         -0.0767    3.4258    0.1133 C.ar      1 <0>         0.0458
      8 C7          1.0355    2.5866    0.2206 C.ar      1 <0>        -0.0682
      9 C8          0.8602    1.2425    0.3894 C.ar      1 <0>        -0.1306
     10 C9         -0.4145    0.6976    0.4556 C.ar      1 <0>        -0.1071
     11 C10        -1.5261    1.5056    0.3469 C.ar      1 <0>        -0.1048
     12 C11        -1.3675    2.8748    0.1806 C.ar      1 <0>         0.0531
     13 N2         -2.2418    3.9346    0.0459 N.pl3     1 <0>        -0.4775
     14 C12        -3.7048    3.8597    0.0536 C.3       1 <0>         0.1565
     15 C13        -4.2017    3.8843    1.4761 C.ar      1 <0>        -0.1317
     16 C14        -4.3471    2.6992    2.1753 C.ar      1 <0>        -0.1148
     17 C15        -4.7968    2.7148    3.4794 C.ar      1 <0>        -0.0779
     18 C16        -5.1156    3.9294    4.0900 C.ar      1 <0>        -0.0987
     19 C17        -4.9715    5.1211    3.3767 C.ar      1 <0>        -0.0874
     20 C18        -4.5157    5.0914    2.0751 C.ar      1 <0>        -0.1176
     21 C19        -5.6026    3.9535    5.4844 C.2       1 <0>         0.4866
     22 O1         -5.8787    5.0117    6.0131 O.co2     1 <0>        -0.6284
     23 H1         -1.6393    8.4494   -3.8719 H         1 <0>         0.0538
     24 H2         -3.3370    7.9168   -3.9206 H         1 <0>         0.0528
     25 H3         -2.9470    9.6139   -3.5519 H         1 <0>         0.0543
     26 H4         -3.5494    8.3715   -1.4923 H         1 <0>         0.0644
     27 H5         -1.8517    8.9041   -1.4435 H         1 <0>         0.0660
     28 H6         -1.1254    6.6593   -2.2064 H         1 <0>         0.0717
     29 H7         -2.8231    6.1266   -2.2551 H         1 <0>         0.0616
     30 H8         -3.0509    6.4984    0.1550 H         1 <0>         0.0856
     31 H9         -1.4037    7.1678    0.2370 H         1 <0>         0.1002
     32 H10         2.0319    3.0001    0.1704 H         1 <0>         0.1250
     33 H11         1.7222    0.5972    0.4720 H         1 <0>         0.1258
     34 H12        -0.5363   -0.3672    0.5887 H         1 <0>         0.1276
     35 H13        -2.5158    1.0760    0.3949 H         1 <0>         0.1203
     36 H14        -4.1151    4.7112   -0.4893 H         1 <0>         0.0996
     37 H15        -4.0238    2.9346   -0.4267 H         1 <0>         0.0945
     38 H16        -4.1041    1.7601    1.7005 H         1 <0>         0.1143
     39 H17        -4.9056    1.7895    4.0255 H         1 <0>         0.1331
     40 H18        -5.2159    6.0640    3.8432 H         1 <0>         0.1297
     41 H19        -4.4035    6.0124    1.5224 H         1 <0>         0.1156
     42 O2         -5.7405    2.8019    6.1697 O.co2     1 <0>        -0.7510
@<TRIPOS>BOND
     1    1    2 1
     2    1   23 1
     3    1   24 1
     4    1   25 1
     5    2    3 1
     6    2   26 1
     7    2   27 1
     8    3    4 1
     9    3   28 1
    10    3   29 1
    11    4    5 1
    12    4   30 1
    13    4   31 1
    14    5   13 1
    15    5    6 2
    16    6    7 1
    17    7   12 ar
    18    7    8 ar
    19    8    9 ar
    20    8   32 1
    21    9   10 ar
    22    9   33 1
    23   10   11 ar
    24   10   34 1
    25   11   12 ar
    26   11   35 1
    27   12   13 1
    28   13   14 1
    29   14   15 1
    30   14   36 1
    31   14   37 1
    32   15   20 ar
    33   15   16 ar
    34   16   17 ar
    35   16   38 1
    36   17   18 ar
    37   17   39 1
    38   18   19 ar
    39   18   21 1
    40   19   20 ar
    41   19   40 1
    42   20   41 1
    43   21   22 2
    44   21   42 1
@<TRIPOS>MOLECULE
ZINC13298439
   52    55     0     0     0
SMALL
USER_CHARGES

@<TRIPOS>ATOM
      1 C1         -0.0187    1.5258    0.0104 C.3       1 <0>        -0.1520
      2 C2          0.0021   -0.0041    0.0020 C.3       1 <0>        -0.1243
      3 C3         -1.4333   -0.5336    0.0129 C.3       1 <0>        -0.1132
      4 C4         -1.4126   -2.0635    0.0045 C.3       1 <0>        -0.0387
      5 C5         -2.8264   -2.5851    0.0152 C.2       1 <0>         0.2364
      6 N1         -3.5317   -2.8487    1.0813 N.2       1 <0>        -0.4833
      7 C6         -4.7425   -3.2933    0.7126 C.2       1 <0>         0.0724
      8 C7         -4.7893   -3.3058   -0.6341 C.2       1 <0>         0.0070
      9 N2         -3.5749   -2.8515   -1.0765 N.pl3     1 <0>        -0.4283
     10 C8         -3.1642   -2.6880   -2.4732 C.3       1 <0>         0.1504
     11 C9         -2.5320   -3.9650   -2.9637 C.ar      1 <0>        -0.1207
     12 C10        -1.1697   -4.1584   -2.8210 C.ar      1 <0>        -0.1279
     13 C11        -0.5852   -5.3258   -3.2683 C.ar      1 <0>        -0.1070
     14 C12        -1.3705   -6.3112   -3.8649 C.ar      1 <0>        -0.0343
     15 C13        -2.7429   -6.1106   -4.0060 C.ar      1 <0>         0.0104
     16 C14        -3.3171   -4.9416   -3.5498 C.ar      1 <0>        -0.0911
     17 C15        -0.7486   -7.5670   -4.3478 C.ar      1 <0>        -0.0450
     18 C16         0.3817   -7.5216   -5.1593 C.ar      1 <0>        -0.1084
     19 C17         0.9577   -8.6934   -5.6068 C.ar      1 <0>        -0.1383
     20 C18         0.4183   -9.9190   -5.2536 C.ar      1 <0>        -0.1199
     21 C19        -0.7015   -9.9834   -4.4501 C.ar      1 <0>        -0.1062
     22 C20        -1.2929   -8.8103   -3.9843 C.ar      1 <0>         0.0581
     23 C21        -2.4897   -8.8737   -3.1184 C.2       1 <0>         0.0616
     24 N3         -3.1640   -7.8399   -2.6109 N.2       1 <0>        -0.3452
     25 N4         -4.1379   -8.3174   -1.9140 N.2       1 <0>        -0.1738
     26 N5         -4.1044   -9.6030   -1.9618 N.2       1 <0>        -0.1968
     27 N6         -3.1117   -9.9760   -2.6951 N.2       1 <0>        -0.3674
     28 C22        -5.9547   -3.7328   -1.4888 C.3       1 <0>         0.1509
     29 O1         -5.8570   -5.1318   -1.7630 O.3       1 <0>        -0.5319
     30 Cl1        -6.0238   -3.7700    1.7825 Cl        1 <0>        -0.0161
     31 H1          1.0039    1.9031    0.0027 H         1 <0>         0.0535
     32 H2         -0.5459    1.8868   -0.8726 H         1 <0>         0.0526
     33 H3         -0.5289    1.8773    0.9072 H         1 <0>         0.0538
     34 H4          0.5123   -0.3556   -0.8948 H         1 <0>         0.0633
     35 H5          0.5293   -0.3651    0.8851 H         1 <0>         0.0653
     36 H6         -1.9435   -0.1821    0.9097 H         1 <0>         0.0707
     37 H7         -1.9605   -0.1726   -0.8702 H         1 <0>         0.0600
     38 H8         -0.9024   -2.4150   -0.8923 H         1 <0>         0.0847
     39 H9         -0.8854   -2.4246    0.8875 H         1 <0>         0.0966
     40 H10        -4.0369   -2.4567   -3.0839 H         1 <0>         0.0952
     41 H11        -2.4431   -1.8739   -2.5470 H         1 <0>         0.0983
     42 H12        -0.5623   -3.3942   -2.3590 H         1 <0>         0.1109
     43 H13         0.4786   -5.4755   -3.1566 H         1 <0>         0.1139
     44 H14        -3.3562   -6.8705   -4.4674 H         1 <0>         0.1153
     45 H15        -4.3808   -4.7869   -3.6546 H         1 <0>         0.1143
     46 H16         0.8076   -6.5694   -5.4391 H         1 <0>         0.1193
     47 H17         1.8342   -8.6542   -6.2365 H         1 <0>         0.1164
     48 H18         0.8767  -10.8298   -5.6096 H         1 <0>         0.1178
     49 H19        -1.1173  -10.9425   -4.1788 H         1 <0>         0.1287
     50 H20        -6.8863   -3.5303   -0.9604 H         1 <0>         0.0664
     51 H21        -5.9406   -3.1769   -2.4263 H         1 <0>         0.0471
     52 H22        -6.5760   -5.4766   -2.3100 H         1 <0>         0.3784
@<TRIPOS>BOND
     1    1    2 1
     2    1   31 1
     3    1   32 1
     4    1   33 1
     5    2    3 1
     6    2   34 1
     7    2   35 1
     8    3    4 1
     9    3   36 1
    10    3   37 1
    11    4    5 1
    12    4   38 1
    13    4   39 1
    14    5    9 1
    15    5    6 2
    16    6    7 1
    17    7    8 2
    18    7   30 1
    19    8    9 1
    20    8   28 1
    21    9   10 1
    22   10   11 1
    23   10   40 1
    24   10   41 1
    25   11   16 ar
    26   11   12 ar
    27   12   13 ar
    28   12   42 1
    29   13   14 ar
    30   13   43 1
    31   14   15 ar
    32   14   17 1
    33   15   16 ar
    34   15   44 1
    35   16   45 1
    36   17   22 ar
    37   17   18 ar
    38   18   19 ar
    39   18   46 1
    40   19   20 ar
    41   19   47 1
    42   20   21 ar
    43   20   48 1
    44   21   22 ar
    45   21   49 1
    46   22   23 1
    47   23   27 2
    48   23   24 1
    49   24   25 1
    50   25   26 2
    51   26   27 1
    52   28   29 1
    53   28   50 1
    54   28   51 1
    55   29   52 1
@<TRIPOS>MOLECULE
ZINC03918293
   77    80     0     0     0
SMALL
USER_CHARGES

@<TRIPOS>ATOM
      1 C1          0.0376    1.5380    0.0199 C.3       1 <0>        -0.1497
      2 C2          0.0530    0.0081    0.0098 C.3       1 <0>        -0.1205
      3 C3          0.7884   -0.5027    1.2504 C.3       1 <0>        -0.1237
      4 C4          0.8038   -2.0326    1.2403 C.3       1 <0>         0.0815
      5 O1          1.4906   -2.5097    2.3990 O.3       1 <0>        -0.3327
      6 C5          1.5937   -3.8485    2.5427 C.2       1 <0>         0.6373
      7 O2          2.2306   -4.3653    3.6154 O.3       1 <0>        -0.6932
      8 N1          1.0803   -4.6388    1.6495 N.2       1 <0>        -1.1080
      9 S1          1.2067   -6.2805    1.8258 S.o2      1 <0>         2.7087
     10 O3          2.5873   -6.5963    1.7100 O.2       1 <0>        -0.9885
     11 O4          0.4395   -6.6262    2.9708 O.2       1 <0>        -0.9872
     12 C6          0.4038   -7.0165    0.4407 C.2       1 <0>        -0.6890
     13 C7          0.2415   -8.3408    0.1438 C.2       1 <0>         0.0305
     14 C8         -0.4373   -8.6812   -1.0224 C.2       1 <0>        -0.1670
     15 C9         -0.9106   -7.6955   -1.8177 C.2       1 <0>        -0.1348
     16 S2         -0.4151   -6.2260   -0.9343 S.3       1 <0>         0.1799
     17 C10        -1.6679   -7.8088   -3.1156 C.3       1 <0>        -0.0331
     18 C11        -3.1697   -7.8580   -2.8273 C.3       1 <0>        -0.0941
     19 C12        -3.9431   -7.8472   -4.1473 C.3       1 <0>        -0.1458
     20 C13        -3.4988   -9.1363   -2.0537 C.3       1 <0>        -0.1523
     21 C14         0.7772   -9.3914    1.0440 C.ar      1 <0>        -0.0478
     22 C15         2.0986   -9.3296    1.4824 C.ar      1 <0>        -0.1177
     23 C16         2.5915  -10.3094    2.3201 C.ar      1 <0>        -0.0800
     24 C17         1.7767  -11.3516    2.7243 C.ar      1 <0>        -0.1200
     25 C18         0.4645  -11.4182    2.2919 C.ar      1 <0>        -0.1053
     26 C19        -0.0408  -10.4405    1.4590 C.ar      1 <0>        -0.0979
     27 C20         2.3209  -12.4187    3.6387 C.3       1 <0>         0.1576
     28 N2          2.2092  -11.9732    5.0299 N.pl3     1 <0>        -0.4722
     29 C21         1.1989  -12.2708    5.8922 C.2       1 <0>         0.2922
     30 N3          1.4171  -11.7116    7.0465 N.2       1 <0>        -0.4801
     31 C22         2.5823  -11.0181    7.0006 C.ar      1 <0>        -0.0043
     32 C23         3.1108  -11.1808    5.7073 C.ar      1 <0>         0.2563
     33 N4          4.2585  -10.6110    5.3770 N.ar      1 <0>        -0.4849
     34 C24         4.9398   -9.8829    6.2375 C.ar      1 <0>         0.1713
     35 C25         4.4844   -9.6804    7.5305 C.ar      1 <0>        -0.1873
     36 C26         3.2873  -10.2454    7.9281 C.ar      1 <0>         0.0136
     37 C27         2.7646  -10.0473    9.3276 C.3       1 <0>        -0.1091
     38 C28         6.2417   -9.2576    5.8072 C.3       1 <0>        -0.1030
     39 C29         0.0017  -13.1230    5.5583 C.3       1 <0>        -0.0475
     40 C30         0.2654  -14.5659    5.9936 C.3       1 <0>        -0.1454
     41 H1          1.0615    1.9117    0.0149 H         1 <0>         0.0535
     42 H2         -0.4863    1.9019   -0.8640 H         1 <0>         0.0520
     43 H3         -0.4734    1.8903    0.9159 H         1 <0>         0.0535
     44 H4         -0.9710   -0.3656    0.0148 H         1 <0>         0.0638
     45 H5          0.5639   -0.3442   -0.8863 H         1 <0>         0.0639
     46 H6          1.8123   -0.1290    1.2454 H         1 <0>         0.0682
     47 H7          0.2774   -0.1504    2.1464 H         1 <0>         0.0681
     48 H8         -0.2202   -2.4063    1.2453 H         1 <0>         0.0610
     49 H9          1.3147   -2.3849    0.3442 H         1 <0>         0.0614
     50 H10        -0.5837   -9.7177   -1.2884 H         1 <0>         0.1365
     51 H11        -1.4464   -6.9448   -3.7421 H         1 <0>         0.0823
     52 H12        -1.3673   -8.7196   -3.6334 H         1 <0>         0.0868
     53 H13        -3.4541   -6.9900   -2.2325 H         1 <0>         0.0756
     54 H14        -3.6587   -8.7152   -4.7421 H         1 <0>         0.0553
     55 H15        -5.0130   -7.8823   -3.9419 H         1 <0>         0.0571
     56 H16        -3.7086   -6.9365   -4.6984 H         1 <0>         0.0561
     57 H17        -4.5687   -9.1714   -1.8483 H         1 <0>         0.0547
     58 H18        -3.2144  -10.0043   -2.6485 H         1 <0>         0.0543
     59 H19        -2.9478   -9.1440   -1.1133 H         1 <0>         0.0607
     60 H20         2.7358   -8.5168    1.1668 H         1 <0>         0.1599
     61 H21         3.6154  -10.2625    2.6604 H         1 <0>         0.1343
     62 H22        -0.1672  -12.2343    2.6104 H         1 <0>         0.1247
     63 H23        -1.0669  -10.4909    1.1259 H         1 <0>         0.1270
     64 H24         1.7503  -13.3377    3.5046 H         1 <0>         0.1017
     65 H25         3.3681  -12.6030    3.3992 H         1 <0>         0.1024
     66 H26         5.0580   -9.0799    8.2211 H         1 <0>         0.1419
     67 H27         3.1490  -10.8363    9.9741 H         1 <0>         0.0744
     68 H28         3.0913   -9.0779    9.7037 H         1 <0>         0.0717
     69 H29         1.6752  -10.0847    9.3173 H         1 <0>         0.0760
     70 H30         6.0500   -8.2675    5.3936 H         1 <0>         0.0860
     71 H31         6.9045   -9.1697    6.6680 H         1 <0>         0.0766
     72 H32         6.7121   -9.8834    5.0488 H         1 <0>         0.0759
     73 H33        -0.8743  -12.7399    6.0817 H         1 <0>         0.1027
     74 H34        -0.1761  -13.0945    4.4833 H         1 <0>         0.0845
     75 H35         1.0861  -14.9782    5.4067 H         1 <0>         0.0543
     76 H36         0.5299  -14.5838    7.0509 H         1 <0>         0.0651
     77 H37        -0.6320  -15.1635    5.8334 H         1 <0>         0.0691
@<TRIPOS>BOND
     1    1    2 1
     2    1   41 1
     3    1   42 1
     4    1   43 1
     5    2    3 1
     6    2   44 1
     7    2   45 1
     8    3    4 1
     9    3   46 1
    10    3   47 1
    11    4    5 1
    12    4   48 1
    13    4   49 1
    14    5    6 1
    15    6    7 1
    16    6    8 2
    17    8    9 1
    18    9   10 2
    19    9   11 2
    20    9   12 1
    21   12   16 1
    22   12   13 2
    23   13   14 1
    24   13   21 1
    25   14   15 2
    26   14   50 1
    27   15   16 1
    28   15   17 1
    29   17   18 1
    30   17   51 1
    31   17   52 1
    32   18   19 1
    33   18   20 1
    34   18   53 1
    35   19   54 1
    36   19   55 1
    37   19   56 1
    38   20   57 1
    39   20   58 1
    40   20   59 1
    41   21   26 ar
    42   21   22 ar
    43   22   23 ar
    44   22   60 1
    45   23   24 ar
    46   23   61 1
    47   24   25 ar
    48   24   27 1
    49   25   26 ar
    50   25   62 1
    51   26   63 1
    52   27   28 1
    53   27   64 1
    54   27   65 1
    55   28   32 1
    56   28   29 1
    57   29   30 2
    58   29   39 1
    59   30   31 1
    60   31   36 ar
    61   31   32 ar
    62   32   33 ar
    63   33   34 ar
    64   34   35 ar
    65   34   38 1
    66   35   36 ar
    67   35   66 1
    68   36   37 1
    69   37   67 1
    70   37   68 1
    71   37   69 1
    72   38   70 1
    73   38   71 1
    74   38   72 1
    75   39   40 1
    76   39   73 1
    77   39   74 1
    78   40   75 1
    79   40   76 1
    80   40   77 1
@<TRIPOS>MOLECULE
ZINC29396939
   67    71     0     0     0
SMALL
USER_CHARGES
2-[2-butyl-4-oxo-3-[[4-[2-(2H-tetrazol-5-yl)phenyl]phenyl]methyl]imidazo[4,5-c]pyridin-5-yl]-N,N-dimethyl-acetamide
@<TRIPOS>ATOM
      1 C1          2.3504   -1.3509    4.7833 C.3       1 <0>        -0.1532
      2 C2          1.9868    0.0894    4.4168 C.3       1 <0>        -0.1255
      3 C3          2.2586    0.3211    2.9290 C.3       1 <0>        -0.1136
      4 C4          1.8950    1.7613    2.5624 C.3       1 <0>        -0.0504
      5 C5          2.2685    2.0237    1.1262 C.2       1 <0>         0.2752
      6 N1          3.4566    2.3746    0.7132 N.2       1 <0>        -0.4876
      7 C6          3.4430    2.5320   -0.6193 C.2       1 <0>         0.1143
      8 C7          4.4422    2.9101   -1.6163 C.2       1 <0>        -0.1439
      9 C8          4.0790    2.9730   -2.9118 C.2       1 <0>         0.0986
     10 N2          2.8035    2.6917   -3.3047 N.am      1 <0>        -0.4949
     11 C9          1.8473    2.3385   -2.4254 C.2       1 <0>         0.5809
     12 O1          0.7186    2.0949   -2.8202 O.2       1 <0>        -0.5426
     13 C10         2.1436    2.2497   -1.0550 C.2       1 <0>        -0.0968
     14 N3          1.4250    1.9278    0.0767 N.pl3     1 <0>        -0.4046
     15 C11         0.0088    1.5570    0.1309 C.3       1 <0>         0.1423
     16 C12        -0.8258    2.7922    0.3515 C.ar      1 <0>        -0.1134
     17 C13        -1.2298    3.1314    1.6303 C.ar      1 <0>        -0.1126
     18 C14        -1.9894    4.2645    1.8391 C.ar      1 <0>         0.0075
     19 C15        -2.3596    5.0613    0.7568 C.ar      1 <0>        -0.0358
     20 C16        -1.9543    4.7114   -0.5303 C.ar      1 <0>        -0.1063
     21 C17        -1.1897    3.5794   -0.7262 C.ar      1 <0>        -0.1174
     22 C18        -3.1814    6.2759    0.9738 C.ar      1 <0>        -0.0407
     23 C19        -2.7881    7.4943    0.4263 C.ar      1 <0>        -0.1089
     24 C20        -3.5592    8.6214    0.6260 C.ar      1 <0>        -0.1355
     25 C21        -4.7191    8.5515    1.3788 C.ar      1 <0>        -0.1208
     26 C22        -5.1202    7.3527    1.9332 C.ar      1 <0>        -0.1042
     27 C23        -4.3571    6.2053    1.7368 C.ar      1 <0>         0.0535
     28 C24        -4.7840    4.9151    2.3311 C.2       1 <0>         0.0744
     29 N4         -5.8585    4.7034    3.0655 N.2       1 <0>        -0.3637
     30 N5         -5.8757    3.4559    3.3884 N.2       1 <0>        -0.1967
     31 N6         -4.8469    2.8705    2.8824 N.2       1 <0>        -0.1856
     32 N7         -4.1554    3.7358    2.2214 N.2       1 <0>        -0.3564
     33 C25         2.4640    2.7755   -4.7273 C.3       1 <0>         0.0830
     34 C26         2.6997    1.4377   -5.3797 C.2       1 <0>         0.4993
     35 O2          3.1108    0.5059   -4.7212 O.2       1 <0>        -0.5198
     36 N8          2.4537    1.2766   -6.6950 N.am      1 <0>        -0.6211
     37 C27         2.6828   -0.0240   -7.3292 C.3       1 <0>         0.0874
     38 C28         1.9571    2.4021   -7.4905 C.3       1 <0>         0.0703
     39 H1          2.1550   -1.5175    5.8529 H         1 <0>         0.0546
     40 H2          3.4162   -1.5246    4.5738 H         1 <0>         0.0532
     41 H3          1.7414   -2.0460    4.1867 H         1 <0>         0.0538
     42 H4          0.9210    0.2631    4.6263 H         1 <0>         0.0670
     43 H5          2.5958    0.7845    5.0134 H         1 <0>         0.0658
     44 H6          3.3244    0.1473    2.7196 H         1 <0>         0.0720
     45 H7          1.6496   -0.3740    2.3324 H         1 <0>         0.0623
     46 H8          0.8131    1.9109    2.6931 H         1 <0>         0.0911
     47 H9          2.4428    2.4556    3.2165 H         1 <0>         0.1024
     48 H10         5.4558    3.1351   -1.3192 H         1 <0>         0.1511
     49 H11         4.8123    3.2513   -3.6542 H         1 <0>         0.1624
     50 H12        -0.2825    1.0823   -0.8177 H         1 <0>         0.1100
     51 H13        -0.1541    0.8517    0.9591 H         1 <0>         0.1017
     52 H14        -0.9464    2.5107    2.4675 H         1 <0>         0.1129
     53 H15        -2.3003    4.5309    2.8385 H         1 <0>         0.1160
     54 H16        -2.2384    5.3249   -1.3725 H         1 <0>         0.1128
     55 H17        -0.8752    3.3073   -1.7229 H         1 <0>         0.1238
     56 H18        -1.8820    7.5564   -0.1581 H         1 <0>         0.1192
     57 H19        -3.2539    9.5640    0.1963 H         1 <0>         0.1170
     58 H20        -5.3133    9.4401    1.5334 H         1 <0>         0.1186
     59 H21        -6.0262    7.3050    2.5191 H         1 <0>         0.1292
     60 H22         1.4056    3.0550   -4.8358 H         1 <0>         0.1301
     61 H23         3.0953    3.5355   -5.2108 H         1 <0>         0.1220
     62 H24         2.4279    0.0390   -8.3974 H         1 <0>         0.0774
     63 H25         2.0514   -0.7840   -6.8457 H         1 <0>         0.0619
     64 H26         3.7411   -0.3035   -7.2206 H         1 <0>         0.0618
     65 H27         1.8172    2.0807   -8.5331 H         1 <0>         0.0826
     66 H28         2.6855    3.2256   -7.4553 H         1 <0>         0.0651
     67 H29         0.9958    2.7450   -7.0804 H         1 <0>         0.0674
@<TRIPOS>BOND
     1    1    2 1
     2    1   39 1
     3    1   40 1
     4    1   41 1
     5    2    3 1
     6    2   42 1
     7    2   43 1
     8    3    4 1
     9    3   44 1
    10    3   45 1
    11    4    5 1
    12    4   46 1
    13    4   47 1
    14    5   14 1
    15    5    6 2
    16    6    7 1
    17    7   13 2
    18    7    8 1
    19    8    9 2
    20    8   48 1
    21    9   10 1
    22    9   49 1
    23   10   11 am
    24   10   33 1
    25   11   12 2
    26   11   13 1
    27   13   14 1
    28   14   15 1
    29   15   16 1
    30   15   50 1
    31   15   51 1
    32   16   21 ar
    33   16   17 ar
    34   17   18 ar
    35   17   52 1
    36   18   19 ar
    37   18   53 1
    38   19   20 ar
    39   19   22 1
    40   20   21 ar
    41   20   54 1
    42   21   55 1
    43   22   27 ar
    44   22   23 ar
    45   23   24 ar
    46   23   56 1
    47   24   25 ar
    48   24   57 1
    49   25   26 ar
    50   25   58 1
    51   26   27 ar
    52   26   59 1
    53   27   28 1
    54   28   32 1
    55   28   29 2
    56   29   30 1
    57   30   31 1
    58   31   32 2
    59   33   34 1
    60   33   60 1
    61   33   61 1
    62   34   35 2
    63   34   36 am
    64   36   37 1
    65   36   38 1
    66   37   62 1
    67   37   63 1
    68   37   64 1
    69   38   65 1
    70   38   66 1
    71   38   67 1
@<TRIPOS>MOLECULE
ZINC03778636
   63    67     0     0     0
SMALL
USER_CHARGES

@<TRIPOS>ATOM
      1 C1          3.7523    3.1341    2.3277 C.3       1 <0>        -0.1021
      2 C2          3.2298    1.8248    1.7951 C.ar      1 <0>        -0.1711
      3 C3          3.6181    1.3823    0.5457 C.ar      1 <0>        -0.0505
      4 C4          3.1388    0.1814    0.0560 C.ar      1 <0>        -0.1687
      5 C5          2.2696   -0.5810    0.8151 C.ar      1 <0>        -0.0503
      6 C6          1.8776   -0.1447    2.0652 C.ar      1 <0>        -0.1916
      7 C7          2.3615    1.0589    2.5624 C.ar      1 <0>         0.2249
      8 N1          1.9712    1.5007    3.8287 N.pl3     1 <0>        -0.8771
      9 C8          3.5640   -0.2978   -1.3081 C.3       1 <0>         0.1536
     10 N2          4.7753   -1.1124   -1.1839 N.pl3     1 <0>        -0.4445
     11 C9          6.0507   -0.6838   -1.3256 C.2       1 <0>         0.1625
     12 N3          6.8577   -1.6960   -1.1403 N.2       1 <0>        -0.4782
     13 C10         6.1359   -2.7877   -0.8781 C.2       1 <0>        -0.0247
     14 C11         4.8304   -2.4431   -0.8980 C.2       1 <0>         0.0125
     15 C12         3.6863   -3.3915   -0.6531 C.3       1 <0>        -0.0442
     16 C13         4.2248   -4.6454    0.0479 C.3       1 <0>         0.0850
     17 H1          4.4388   -4.4158    1.0917 H         1 <0>         0.0635
     18 N4          5.4592   -5.0793   -0.6232 N.am      1 <0>        -0.5956
     19 C14         6.6295   -4.1860   -0.5914 C.3       1 <0>         0.1978
     20 C15         5.5188   -6.2665   -1.2584 C.2       1 <0>         0.5078
     21 O1          4.5206   -6.9468   -1.3671 O.2       1 <0>        -0.4476
     22 C16         6.8256   -6.7486   -1.8335 C.3       1 <0>        -0.0311
     23 C17         6.8764   -8.2535   -1.7725 C.ar      1 <0>        -0.0667
     24 C18         5.8836   -9.0036   -2.3748 C.ar      1 <0>        -0.0749
     25 C19         5.9303  -10.3840   -2.3189 C.ar      1 <0>        -0.1250
     26 C20         6.9699  -11.0144   -1.6612 C.ar      1 <0>        -0.1220
     27 C21         7.9632  -10.2644   -1.0597 C.ar      1 <0>        -0.1303
     28 C22         7.9189   -8.8840   -1.1193 C.ar      1 <0>        -0.1116
     29 C23         6.9394   -6.2998   -3.2676 C.ar      1 <0>        -0.0631
     30 C24         8.0855   -5.6614   -3.7031 C.ar      1 <0>        -0.1093
     31 C25         8.1899   -5.2497   -5.0186 C.ar      1 <0>        -0.1216
     32 C26         7.1483   -5.4768   -5.8986 C.ar      1 <0>        -0.1240
     33 C27         6.0025   -6.1160   -5.4633 C.ar      1 <0>        -0.1184
     34 C28         5.8999   -6.5315   -4.1489 C.ar      1 <0>        -0.1002
     35 C29         3.1965   -5.7446   -0.0256 C.2       1 <0>         0.5189
     36 O2          2.6363   -5.9857   -1.0813 O.co2     1 <0>        -0.6624
     37 O3          2.9247   -6.3927    0.9707 O.co2     1 <0>        -0.7010
     38 H2          4.6794    2.9601    2.8739 H         1 <0>         0.0640
     39 H3          3.9419    3.8144    1.4975 H         1 <0>         0.0655
     40 H4          3.0135    3.5749    2.9971 H         1 <0>         0.0569
     41 H5          4.2967    1.9751   -0.0497 H         1 <0>         0.1196
     42 H6          1.8968   -1.5184    0.4295 H         1 <0>         0.1271
     43 H7          1.1986   -0.7403    2.6573 H         1 <0>         0.1241
     44 H8          2.3066    2.3432    4.1731 H         1 <0>         0.3964
     45 H9          1.3648    0.9650    4.3636 H         1 <0>         0.3986
     46 H10         2.7666   -0.8970   -1.7475 H         1 <0>         0.0960
     47 H11         3.7677    0.5611   -1.9476 H         1 <0>         0.0977
     48 H12         6.3527    0.3276   -1.5544 H         1 <0>         0.1985
     49 H13         2.9419   -2.9098   -0.0191 H         1 <0>         0.0712
     50 H14         3.2333   -3.6708   -1.6043 H         1 <0>         0.0900
     51 H15         7.3552   -4.4855   -1.3476 H         1 <0>         0.0893
     52 H16         7.0865   -4.2225    0.3975 H         1 <0>         0.0709
     53 H17         7.6518   -6.3335   -1.2562 H         1 <0>         0.0980
     54 H18         5.0714   -8.5111   -2.8886 H         1 <0>         0.1351
     55 H19         5.1542  -10.9700   -2.7888 H         1 <0>         0.1193
     56 H20         7.0060  -12.0929   -1.6169 H         1 <0>         0.1161
     57 H21         8.7753  -10.7569   -0.5456 H         1 <0>         0.1176
     58 H22         8.6969   -8.2981   -0.6526 H         1 <0>         0.1185
     59 H23         8.8993   -5.4840   -3.0156 H         1 <0>         0.1210
     60 H24         9.0851   -4.7504   -5.3588 H         1 <0>         0.1191
     61 H25         7.2296   -5.1545   -6.9262 H         1 <0>         0.1169
     62 H26         5.1886   -6.2931   -6.1507 H         1 <0>         0.1200
     63 H27         5.0062   -7.0342   -3.8096 H         1 <0>         0.1339
@<TRIPOS>BOND
     1    1    2 1
     2    1   38 1
     3    1   39 1
     4    1   40 1
     5    2    7 ar
     6    2    3 ar
     7    3    4 ar
     8    3   41 1
     9    4    5 ar
    10    4    9 1
    11    5    6 ar
    12    5   42 1
    13    6    7 ar
    14    6   43 1
    15    7    8 1
    16    8   44 1
    17    8   45 1
    18    9   10 1
    19    9   46 1
    20    9   47 1
    21   10   14 1
    22   10   11 1
    23   11   12 2
    24   11   48 1
    25   12   13 1
    26   13   19 1
    27   13   14 2
    28   14   15 1
    29   15   16 1
    30   15   49 1
    31   15   50 1
    32   16   17 1
    33   16   18 1
    34   16   35 1
    35   18   19 1
    36   18   20 am
    37   19   51 1
    38   19   52 1
    39   20   21 2
    40   20   22 1
    41   22   23 1
    42   22   29 1
    43   22   53 1
    44   23   28 ar
    45   23   24 ar
    46   24   25 ar
    47   24   54 1
    48   25   26 ar
    49   25   55 1
    50   26   27 ar
    51   26   56 1
    52   27   28 ar
    53   27   57 1
    54   28   58 1
    55   29   34 ar
    56   29   30 ar
    57   30   31 ar
    58   30   59 1
    59   31   32 ar
    60   31   60 1
    61   32   33 ar
    62   32   61 1
    63   33   34 ar
    64   33   62 1
    65   34   63 1
    66   35   36 2
    67   35   37 1
@<TRIPOS>MOLECULE
ZINC13760710
   55    59     0     0     0
SMALL
USER_CHARGES

@<TRIPOS>ATOM
      1 C1         -0.9597    1.3515   -3.7393 C.3       1 <0>        -0.1529
      2 C2         -0.5540   -0.0539   -3.2910 C.3       1 <0>         0.0773
      3 O1         -1.7086   -0.7590   -2.8309 O.3       1 <0>        -0.2962
      4 C3         -1.5215   -2.0262   -2.3958 C.2       1 <0>         0.4685
      5 N1         -0.3708   -2.6458   -2.3602 N.2       1 <0>        -0.5340
      6 C4         -0.5463   -3.9015   -1.8686 C.ar      1 <0>         0.0600
      7 C5          0.3239   -4.9656   -1.6229 C.ar      1 <0>        -0.0489
      8 C6         -0.1593   -6.1500   -1.1065 C.ar      1 <0>        -0.1327
      9 C7         -1.5042   -6.3012   -0.8258 C.ar      1 <0>        -0.0495
     10 C8         -2.3943   -5.2528   -1.0629 C.ar      1 <0>        -0.0888
     11 C9         -1.9141   -4.0450   -1.5869 C.ar      1 <0>         0.1036
     12 N2         -2.5048   -2.8460   -1.9230 N.pl3     1 <0>        -0.4609
     13 C10        -3.9264   -2.5142   -1.7994 C.3       1 <0>         0.1345
     14 C11        -4.7102   -3.2645   -2.8453 C.ar      1 <0>        -0.1113
     15 C12        -4.5395   -2.9604   -4.1839 C.ar      1 <0>        -0.1242
     16 C13        -5.2544   -3.6440   -5.1462 C.ar      1 <0>        -0.1047
     17 C14        -6.1501   -4.6428   -4.7668 C.ar      1 <0>        -0.0361
     18 C15        -6.3180   -4.9448   -3.4161 C.ar      1 <0>         0.0059
     19 C16        -5.5933   -4.2583   -2.4632 C.ar      1 <0>        -0.1547
     20 C17        -6.9214   -5.3803   -5.7955 C.ar      1 <0>        -0.0430
     21 C18        -7.6141   -4.6855   -6.7831 C.ar      1 <0>        -0.1092
     22 C19        -8.3311   -5.3762   -7.7392 C.ar      1 <0>        -0.1376
     23 C20        -8.3671   -6.7605   -7.7240 C.ar      1 <0>        -0.1208
     24 C21        -7.6867   -7.4659   -6.7528 C.ar      1 <0>        -0.1056
     25 C22        -6.9528   -6.7850   -5.7830 C.ar      1 <0>         0.0560
     26 C23        -6.2172   -7.5361   -4.7433 C.2       1 <0>         0.0635
     27 N3         -6.1571   -8.8625   -4.6083 N.2       1 <0>        -0.3669
     28 N4         -5.4174   -9.1142   -3.5828 N.2       1 <0>        -0.2006
     29 N5         -5.0114   -8.0061   -3.0694 N.2       1 <0>        -0.1650
     30 N6         -5.4778   -7.0214   -3.7587 N.2       1 <0>        -0.3492
     31 C24        -3.8285   -5.4144   -0.7639 C.2       1 <0>         0.5089
     32 O2         -4.4372   -4.5225   -0.2067 O.2       1 <0>        -0.5238
     33 O3         -4.4647   -6.5513   -1.1086 O.3       1 <0>        -0.2762
     34 C25        -5.8545   -6.6396   -0.7883 C.3       1 <0>         0.0357
     35 H1         -0.0790    1.8894   -4.0903 H         1 <0>         0.0833
     36 H2         -1.6873    1.2791   -4.5478 H         1 <0>         0.0670
     37 H3         -1.4020    1.8873   -2.8994 H         1 <0>         0.0662
     38 H4         -0.1117   -0.5897   -4.1309 H         1 <0>         0.0712
     39 H5          0.1736    0.0185   -2.4826 H         1 <0>         0.0709
     40 H6          1.3771   -4.8613   -1.8379 H         1 <0>         0.1323
     41 H7          0.5206   -6.9681   -0.9198 H         1 <0>         0.1368
     42 H8         -1.8678   -7.2345   -0.4217 H         1 <0>         0.1426
     43 H9         -4.2805   -2.7966   -0.8079 H         1 <0>         0.1307
     44 H10        -4.0631   -1.4423   -1.9423 H         1 <0>         0.0966
     45 H11        -3.8456   -2.1863   -4.4766 H         1 <0>         0.1067
     46 H12        -5.1206   -3.4056   -6.1910 H         1 <0>         0.1122
     47 H13        -7.0104   -5.7175   -3.1164 H         1 <0>         0.1157
     48 H14        -5.7192   -4.4944   -1.4169 H         1 <0>         0.1542
     49 H15        -7.5908   -3.6059   -6.8010 H         1 <0>         0.1185
     50 H16        -8.8675   -4.8337   -8.5036 H         1 <0>         0.1160
     51 H17        -8.9315   -7.2910   -8.4766 H         1 <0>         0.1175
     52 H18        -7.7193   -8.5453   -6.7466 H         1 <0>         0.1286
     53 H19        -6.2431   -7.6027   -1.1192 H         1 <0>         0.0993
     54 H20        -5.9856   -6.5459    0.2897 H         1 <0>         0.0422
     55 H21        -6.3949   -5.8376   -1.2912 H         1 <0>         0.0702
@<TRIPOS>BOND
     1    1    2 1
     2    1   35 1
     3    1   36 1
     4    1   37 1
     5    2    3 1
     6    2   38 1
     7    2   39 1
     8    3    4 1
     9    4   12 1
    10    4    5 2
    11    5    6 1
    12    6   11 ar
    13    6    7 ar
    14    7    8 ar
    15    7   40 1
    16    8    9 ar
    17    8   41 1
    18    9   10 ar
    19    9   42 1
    20   10   11 ar
    21   10   31 1
    22   11   12 1
    23   12   13 1
    24   13   14 1
    25   13   43 1
    26   13   44 1
    27   14   19 ar
    28   14   15 ar
    29   15   16 ar
    30   15   45 1
    31   16   17 ar
    32   16   46 1
    33   17   18 ar
    34   17   20 1
    35   18   19 ar
    36   18   47 1
    37   19   48 1
    38   20   25 ar
    39   20   21 ar
    40   21   22 ar
    41   21   49 1
    42   22   23 ar
    43   22   50 1
    44   23   24 ar
    45   23   51 1
    46   24   25 ar
    47   24   52 1
    48   25   26 1
    49   26   27 2
    50   26   30 1
    51   27   28 1
    52   28   29 2
    53   29   30 1
    54   31   32 2
    55   31   33 1
    56   33   34 1
    57   34   53 1
    58   34   54 1
    59   34   55 1
@<TRIPOS>MOLECULE
ZINC13760707
   56    60     0     0     0
SMALL
USER_CHARGES
methyl 2-ethoxy-3-[[4-[2-(5-hydroxy-1,2,4-oxadiazol-3-yl)phenyl]phenyl]methyl]benzimidazole-4-carboxylate
@<TRIPOS>ATOM
      1 C1          1.2022   -1.1491   18.6938 C.3       1 <0>        -0.1545
      2 C2          1.6795   -2.6007   18.6168 C.3       1 <0>         0.0755
      3 O1          1.7607   -3.0035   17.2482 O.3       1 <0>        -0.2883
      4 C3          2.1703   -4.2695   17.0038 C.2       1 <0>         0.4951
      5 N1          2.4939   -5.1441   17.9200 N.2       1 <0>        -0.5314
      6 C4          2.8569   -6.3118   17.3250 C.ar      1 <0>         0.0769
      7 C5          3.2832   -7.5472   17.8170 C.ar      1 <0>        -0.0462
      8 C6          3.5876   -8.5720   16.9453 C.ar      1 <0>        -0.1282
      9 C7          3.4766   -8.3932   15.5792 C.ar      1 <0>        -0.0640
     10 C8          3.0532   -7.1679   15.0624 C.ar      1 <0>        -0.0984
     11 C9          2.7409   -6.1201   15.9391 C.ar      1 <0>         0.0857
     12 N2          2.3062   -4.8240   15.7642 N.pl3     1 <0>        -0.4722
     13 C10         2.0394   -4.1635   14.4841 C.3       1 <0>         0.1489
     14 C11         0.5516   -4.0966   14.2538 C.ar      1 <0>        -0.1235
     15 C12        -0.1908   -3.0846   14.8355 C.ar      1 <0>        -0.0978
     16 C13        -1.5528   -3.0155   14.6243 C.ar      1 <0>        -0.0168
     17 C14        -2.1820   -3.9745   13.8319 C.ar      1 <0>        -0.0400
     18 C15        -1.4295   -4.9950   13.2526 C.ar      1 <0>        -0.1008
     19 C16        -0.0672   -5.0507   13.4662 C.ar      1 <0>        -0.1182
     20 C17        -3.6457   -3.9095   13.6066 C.ar      1 <0>        -0.0312
     21 C18        -4.1591   -3.9833   12.3144 C.ar      1 <0>        -0.1117
     22 C19        -5.5229   -3.9273   12.1095 C.ar      1 <0>        -0.1204
     23 C20        -6.3868   -3.7871   13.1825 C.ar      1 <0>        -0.1235
     24 C21        -5.8942   -3.7072   14.4693 C.ar      1 <0>        -0.0827
     25 C22        -4.5216   -3.7674   14.6942 C.ar      1 <0>         0.0257
     26 C23        -3.9878   -3.6815   16.0749 C.2       1 <0>         0.1910
     27 N3         -4.7125   -3.5388   17.2068 N.2       1 <0>        -0.5915
     28 C24        -3.8327   -3.5123   18.1869 C.2       1 <0>         0.4364
     29 O2         -2.6211   -3.6285   17.6278 O.3       1 <0>        -0.0315
     30 N4         -2.7274   -3.7239   16.4235 N.2       1 <0>        -0.4122
     31 O3         -4.1011   -3.3864   19.5048 O.3       1 <0>        -0.6596
     32 C25         2.9354   -6.9772   13.6057 C.2       1 <0>         0.5125
     33 O4          2.0280   -7.5067   12.9951 O.2       1 <0>        -0.4840
     34 O5          3.8339   -6.2157   12.9509 O.3       1 <0>        -0.3540
     35 C26         3.6560   -6.0721   11.5170 C.3       1 <0>         0.0252
     36 H1          1.1397   -0.8391   19.7474 H         1 <0>         0.0858
     37 H2          0.2097   -1.0642   18.2271 H         1 <0>         0.0731
     38 H3          1.9140   -0.5004   18.1623 H         1 <0>         0.0629
     39 H4          2.6720   -2.6856   19.0835 H         1 <0>         0.0700
     40 H5          0.9677   -3.2494   19.1483 H         1 <0>         0.0796
     41 H6          3.3744   -7.7007   18.8822 H         1 <0>         0.1370
     42 H7          3.9205   -9.5229   17.3342 H         1 <0>         0.1391
     43 H8          3.7185   -9.2048   14.9090 H         1 <0>         0.1355
     44 H9          2.4535   -3.1446   14.5039 H         1 <0>         0.1029
     45 H10         2.5109   -4.7352   13.6712 H         1 <0>         0.0976
     46 H11         0.2971   -2.3448   15.4528 H         1 <0>         0.1228
     47 H12        -2.1307   -2.2224   15.0753 H         1 <0>         0.1193
     48 H13        -1.9117   -5.7409   12.6381 H         1 <0>         0.1187
     49 H14         0.5168   -5.8408   13.0179 H         1 <0>         0.1188
     50 H15        -3.4904   -4.0882   11.4728 H         1 <0>         0.1237
     51 H16        -5.9181   -3.9886   11.1063 H         1 <0>         0.1214
     52 H17        -7.4521   -3.7397   13.0114 H         1 <0>         0.1236
     53 H18        -6.5735   -3.5975   15.3018 H         1 <0>         0.1367
     54 H19         4.4519   -5.4303   11.1112 H         1 <0>         0.1060
     55 H20         2.6766   -5.6148   11.3130 H         1 <0>         0.0673
     56 H21         3.7047   -7.0623   11.0405 H         1 <0>         0.0675
@<TRIPOS>BOND
     1    1    2 1
     2    1   36 1
     3    1   37 1
     4    1   38 1
     5    2    3 1
     6    2   39 1
     7    2   40 1
     8    3    4 1
     9    4   12 1
    10    4    5 2
    11    5    6 1
    12    6   11 ar
    13    6    7 ar
    14    7    8 ar
    15    7   41 1
    16    8    9 ar
    17    8   42 1
    18    9   10 ar
    19    9   43 1
    20   10   11 ar
    21   10   32 1
    22   11   12 1
    23   12   13 1
    24   13   14 1
    25   13   44 1
    26   13   45 1
    27   14   19 ar
    28   14   15 ar
    29   15   16 ar
    30   15   46 1
    31   16   17 ar
    32   16   47 1
    33   17   18 ar
    34   17   20 1
    35   18   19 ar
    36   18   48 1
    37   19   49 1
    38   20   25 ar
    39   20   21 ar
    40   21   22 ar
    41   21   50 1
    42   22   23 ar
    43   22   51 1
    44   23   24 ar
    45   23   52 1
    46   24   25 ar
    47   24   53 1
    48   25   26 1
    49   26   30 2
    50   26   27 1
    51   27   28 2
    52   28   29 1
    53   28   31 1
    54   29   30 1
    55   32   33 2
    56   32   34 1
    57   34   35 1
    58   35   54 1
    59   35   55 1
    60   35   56 1
@<TRIPOS>MOLECULE
ZINC01916018
   56    60     0     0     0
SMALL
USER_CHARGES
2-butyl-3-[[4-[2-(1H-tetrazol-5-yl)phenyl]phenyl]methyl]benzoimidazole-4-carboxylic acid
@<TRIPOS>ATOM
      1 C1          1.1369    2.0338    6.1820 C.3       1 <0>        -0.1508
      2 C2          1.0119    1.7337    4.6869 C.3       1 <0>        -0.1227
      3 C3          1.4093    0.2798    4.4236 C.3       1 <0>        -0.1131
      4 C4          1.2844   -0.0203    2.9286 C.3       1 <0>        -0.0502
      5 C5          1.8081   -1.4054    2.6488 C.2       1 <0>         0.2770
      6 N1          1.0813   -2.4835    2.6085 N.2       1 <0>        -0.5091
      7 C6          1.8711   -3.5537    2.3316 C.ar      1 <0>         0.0342
      8 C7          1.6207   -4.9193    2.1755 C.ar      1 <0>        -0.0880
      9 C8          2.6554   -5.7841    1.8891 C.ar      1 <0>        -0.1341
     10 C9          3.9499   -5.3169    1.7529 C.ar      1 <0>        -0.0915
     11 C10         4.2268   -3.9584    1.9047 C.ar      1 <0>        -0.0847
     12 C11         3.1820   -3.0692    2.1953 C.ar      1 <0>         0.0767
     13 N2          3.1110   -1.7116    2.4006 N.pl3     1 <0>        -0.4566
     14 C12         4.2312   -0.7684    2.3594 C.3       1 <0>         0.1225
     15 C13         4.0927    0.1235    1.1526 C.ar      1 <0>        -0.0875
     16 C14         4.3765   -0.3728   -0.1071 C.ar      1 <0>        -0.0849
     17 C15         4.2460    0.4375   -1.2164 C.ar      1 <0>         0.0071
     18 C16         3.8388    1.7623   -1.0646 C.ar      1 <0>        -0.0582
     19 C17         3.5597    2.2585    0.2081 C.ar      1 <0>        -0.1123
     20 C18         3.6878    1.4370    1.3094 C.ar      1 <0>        -0.1440
     21 C19         3.7036    2.6397   -2.2514 C.ar      1 <0>        -0.0219
     22 C20         2.5377    3.3743   -2.4498 C.ar      1 <0>        -0.1134
     23 C21         2.4177    4.1939   -3.5539 C.ar      1 <0>        -0.1362
     24 C22         3.4477    4.2839   -4.4753 C.ar      1 <0>        -0.1300
     25 C23         4.6084    3.5593   -4.2978 C.ar      1 <0>        -0.1029
     26 C24         4.7490    2.7306   -3.1859 C.ar      1 <0>         0.0503
     27 C25         5.9903    1.9517   -2.9911 C.2       1 <0>         0.1134
     28 N3          7.9837    1.0580   -3.2032 N.2       1 <0>        -0.2146
     29 N4          7.4219    0.6195   -2.1292 N.2       1 <0>        -0.1418
     30 N5          6.2537    1.1347   -1.9923 N.2       1 <0>        -0.3702
     31 C26         5.6067   -3.4611    1.7599 C.2       1 <0>         0.4850
     32 O1          5.8311   -2.4824    1.0756 O.co2     1 <0>        -0.5950
     33 H1          0.4783    1.3700    6.7421 H         1 <0>         0.0515
     34 H2          2.1676    1.8757    6.4994 H         1 <0>         0.0536
     35 H3          0.8538    3.0696    6.3695 H         1 <0>         0.0507
     36 H4          1.6705    2.3975    4.1268 H         1 <0>         0.0651
     37 H5         -0.0188    1.8918    4.3695 H         1 <0>         0.0624
     38 H6          0.7507   -0.3840    4.9837 H         1 <0>         0.0664
     39 H7          2.4400    0.1217    4.7411 H         1 <0>         0.0620
     40 H8          1.8638    0.7086    2.3620 H         1 <0>         0.0980
     41 H9          0.2370    0.0388    2.6324 H         1 <0>         0.0901
     42 H10         0.6146   -5.2981    2.2791 H         1 <0>         0.1160
     43 H11         2.4535   -6.8388    1.7742 H         1 <0>         0.1187
     44 H12         4.7499   -6.0069    1.5288 H         1 <0>         0.1254
     45 H13         4.2270   -0.1596    3.2635 H         1 <0>         0.0703
     46 H14         5.1690   -1.3204    2.2975 H         1 <0>         0.1491
     47 H15         4.6964   -1.3978   -0.2230 H         1 <0>         0.1432
     48 H16         4.4633    0.0476   -2.1999 H         1 <0>         0.1082
     49 H17         3.2442    3.2840    0.3318 H         1 <0>         0.1073
     50 H18         3.4719    1.8203    2.2958 H         1 <0>         0.1079
     51 H19         1.7287    3.3059   -1.7377 H         1 <0>         0.1197
     52 H20         1.5133    4.7651   -3.7025 H         1 <0>         0.1136
     53 H21         3.3417    4.9249   -5.3381 H         1 <0>         0.1145
     54 H22         5.4076    3.6340   -5.0204 H         1 <0>         0.1264
     55 N6          7.0682    1.9244   -3.7869 N.2       1 <0>        -0.4211
     56 O2          6.6194   -4.0917    2.3865 O.co2     1 <0>        -0.7516
@<TRIPOS>BOND
     1    1    2 1
     2    1   33 1
     3    1   34 1
     4    1   35 1
     5    2    3 1
     6    2   36 1
     7    2   37 1
     8    3    4 1
     9    3   38 1
    10    3   39 1
    11    4    5 1
    12    4   40 1
    13    4   41 1
    14    5   13 1
    15    5    6 2
    16    6    7 1
    17    7   12 ar
    18    7    8 ar
    19    8    9 ar
    20    8   42 1
    21    9   10 ar
    22    9   43 1
    23   10   11 ar
    24   10   44 1
    25   11   12 ar
    26   11   31 1
    27   12   13 1
    28   13   14 1
    29   14   15 1
    30   14   45 1
    31   14   46 1
    32   15   20 ar
    33   15   16 ar
    34   16   17 ar
    35   16   47 1
    36   17   18 ar
    37   17   48 1
    38   18   19 ar
    39   18   21 1
    40   19   20 ar
    41   19   49 1
    42   20   50 1
    43   21   26 ar
    44   21   22 ar
    45   22   23 ar
    46   22   51 1
    47   23   24 ar
    48   23   52 1
    49   24   25 ar
    50   24   53 1
    51   25   26 ar
    52   25   54 1
    53   26   27 1
    54   27   30 2
    55   27   55 1
    56   28   29 2
    57   28   55 1
    58   29   30 1
    59   31   32 2
    60   31   56 1
@<TRIPOS>MOLECULE
ZINC01916018
   57    61     0     0     0
SMALL
USER_CHARGES
2-butyl-3-[[4-[2-(1H-tetrazol-5-yl)phenyl]phenyl]methyl]benzoimidazole-4-carboxylic acid
@<TRIPOS>ATOM
      1 C1          1.1369    2.0338    6.1820 C.3       1 <0>        -0.1551
      2 C2          1.0119    1.7337    4.6869 C.3       1 <0>        -0.1235
      3 C3          1.4093    0.2798    4.4236 C.3       1 <0>        -0.1202
      4 C4          1.2844   -0.0203    2.9286 C.3       1 <0>        -0.0892
      5 C5          1.8081   -1.4054    2.6488 C.cat     1 <0>         0.3711
      6 C6          1.8711   -3.5537    2.3316 C.ar      1 <0>         0.0416
      7 C7          1.6207   -4.9193    2.1755 C.ar      1 <0>        -0.1050
      8 C8          2.6554   -5.7841    1.8891 C.ar      1 <0>        -0.0824
      9 C9          3.9499   -5.3169    1.7529 C.ar      1 <0>        -0.0623
     10 C10         4.2268   -3.9584    1.9047 C.ar      1 <0>        -0.0554
     11 C11         3.1820   -3.0692    2.1953 C.ar      1 <0>         0.0959
     12 N1          3.1110   -1.7116    2.4006 N.pl3     1 <0>        -0.3882
     13 C12         4.2312   -0.7684    2.3594 C.3       1 <0>         0.1121
     14 C13         4.0927    0.1235    1.1526 C.ar      1 <0>        -0.1191
     15 C14         4.3765   -0.3728   -0.1071 C.ar      1 <0>        -0.0832
     16 C15         4.2460    0.4375   -1.2164 C.ar      1 <0>         0.0099
     17 C16         3.8388    1.7623   -1.0646 C.ar      1 <0>        -0.0338
     18 C17         3.5597    2.2585    0.2081 C.ar      1 <0>        -0.1102
     19 C18         3.6878    1.4370    1.3094 C.ar      1 <0>        -0.1419
     20 C19         3.7036    2.6397   -2.2514 C.ar      1 <0>        -0.0391
     21 C20         2.5377    3.3743   -2.4498 C.ar      1 <0>        -0.1107
     22 C21         2.4177    4.1939   -3.5539 C.ar      1 <0>        -0.1352
     23 C22         3.4477    4.2839   -4.4753 C.ar      1 <0>        -0.1212
     24 C23         4.6084    3.5593   -4.2978 C.ar      1 <0>        -0.1011
     25 C24         4.7490    2.7306   -3.1859 C.ar      1 <0>         0.0549
     26 C25         5.9903    1.9517   -2.9911 C.2       1 <0>         0.1122
     27 N2          7.9837    1.0580   -3.2032 N.2       1 <0>        -0.2060
     28 N3          7.4219    0.6195   -2.1292 N.2       1 <0>        -0.1417
     29 N4          6.2537    1.1347   -1.9923 N.2       1 <0>        -0.3817
     30 C26         5.6067   -3.4611    1.7599 C.2       1 <0>         0.4761
     31 O1          5.8311   -2.4824    1.0756 O.co2     1 <0>        -0.5803
     32 H1          0.4783    1.3700    6.7421 H         1 <0>         0.0538
     33 H2          2.1676    1.8757    6.4994 H         1 <0>         0.0575
     34 H3          0.8538    3.0696    6.3695 H         1 <0>         0.0595
     35 H4          1.6705    2.3975    4.1268 H         1 <0>         0.0732
     36 H5         -0.0188    1.8918    4.3695 H         1 <0>         0.0685
     37 H6          0.7507   -0.3840    4.9837 H         1 <0>         0.0731
     38 H7          2.4400    0.1217    4.7411 H         1 <0>         0.0757
     39 H8          1.8638    0.7086    2.3620 H         1 <0>         0.1343
     40 H9          0.2370    0.0388    2.6324 H         1 <0>         0.1150
     41 H10         0.6146   -5.2981    2.2791 H         1 <0>         0.1402
     42 H11         2.4535   -6.8388    1.7742 H         1 <0>         0.1464
     43 H12         4.7499   -6.0069    1.5288 H         1 <0>         0.1514
     44 H13         4.2270   -0.1596    3.2635 H         1 <0>         0.0984
     45 H14         5.1690   -1.3204    2.2975 H         1 <0>         0.1707
     46 H15         4.6964   -1.3978   -0.2230 H         1 <0>         0.1446
     47 H16         4.4633    0.0476   -2.1999 H         1 <0>         0.1158
     48 H17         3.2442    3.2840    0.3318 H         1 <0>         0.1151
     49 H18         3.4719    1.8203    2.2958 H         1 <0>         0.1123
     50 H19         1.7287    3.3059   -1.7377 H         1 <0>         0.1190
     51 H20         1.5133    4.7651   -3.7025 H         1 <0>         0.1167
     52 H21         3.3417    4.9249   -5.3381 H         1 <0>         0.1188
     53 H22         5.4076    3.6340   -5.0204 H         1 <0>         0.1298
     54 N5          7.0682    1.9244   -3.7869 N.2       1 <0>        -0.4134
     55 O2          6.6194   -4.0917    2.3865 O.co2     1 <0>        -0.7196
     56 N6          1.0809   -2.4835    2.6086 N.pl3     1 <0>        -0.5079
     57 H23         0.0664   -2.5200    2.7624 H         1 <0>         0.4638
@<TRIPOS>BOND
     1    1    2 1
     2    1   32 1
     3    1   33 1
     4    1   34 1
     5    2    3 1
     6    2   35 1
     7    2   36 1
     8    3    4 1
     9    3   37 1
    10    3   38 1
    11    4    5 1
    12    4   39 1
    13    4   40 1
    14    5   12 1
    15    5   56 2
    16    6   11 ar
    17    6    7 ar
    18    6   56 1
    19    7    8 ar
    20    7   41 1
    21    8    9 ar
    22    8   42 1
    23    9   10 ar
    24    9   43 1
    25   10   11 ar
    26   10   30 1
    27   11   12 1
    28   12   13 1
    29   13   14 1
    30   13   44 1
    31   13   45 1
    32   14   19 ar
    33   14   15 ar
    34   15   16 ar
    35   15   46 1
    36   16   17 ar
    37   16   47 1
    38   17   18 ar
    39   17   20 1
    40   18   19 ar
    41   18   48 1
    42   19   49 1
    43   20   25 ar
    44   20   21 ar
    45   21   22 ar
    46   21   50 1
    47   22   23 ar
    48   22   51 1
    49   23   24 ar
    50   23   52 1
    51   24   25 ar
    52   24   53 1
    53   25   26 1
    54   26   29 2
    55   26   54 1
    56   27   28 2
    57   27   54 1
    58   28   29 1
    59   30   31 2
    60   30   55 1
    61   56   57 1
@<TRIPOS>MOLECULE
ZINC13760709
   53    57     0     0     0
SMALL
USER_CHARGES

@<TRIPOS>ATOM
      1 C1          0.1189   -5.1906   -0.3232 C.3       1 <0>        -0.1520
      2 C2          0.1642   -3.6620   -0.2768 C.3       1 <0>         0.0799
      3 O1          0.3362   -3.1501   -1.5999 O.3       1 <0>        -0.2942
      4 C3          0.3966   -1.8055   -1.7352 C.2       1 <0>         0.4573
      5 N1          0.3157   -0.9474   -0.7522 N.2       1 <0>        -0.5444
      6 C4          0.4133    0.3166   -1.2442 C.ar      1 <0>         0.0536
      7 C5          0.3894    1.5808   -0.6519 C.ar      1 <0>        -0.0910
      8 C6          0.5137    2.7134   -1.4302 C.ar      1 <0>        -0.1288
      9 C7          0.6631    2.6156   -2.8003 C.ar      1 <0>        -0.0916
     10 C8          0.6902    1.3628   -3.4175 C.ar      1 <0>        -0.1099
     11 C9          0.5651    0.2054   -2.6355 C.ar      1 <0>         0.0814
     12 N2          0.5571   -1.1428   -2.9176 N.pl3     1 <0>        -0.4585
     13 C10         0.6921   -1.7528   -4.2427 C.3       1 <0>         0.1273
     14 C11         2.1205   -2.1840   -4.4541 C.ar      1 <0>        -0.0235
     15 C12         3.1452   -1.5117   -3.8126 C.ar      1 <0>        -0.0830
     16 C13         4.4552   -1.9021   -4.0023 C.ar      1 <0>        -0.0904
     17 C14         4.7448   -2.9766   -4.8421 C.ar      1 <0>        -0.1031
     18 C15         3.7078   -3.6506   -5.4856 C.ar      1 <0>        -0.0447
     19 C16         2.4014   -3.2542   -5.2844 C.ar      1 <0>        -0.1169
     20 C17         6.1498   -3.4004   -5.0503 C.ar      1 <0>         0.0356
     21 C18         7.1224   -2.4614   -5.3828 C.ar      1 <0>        -0.1099
     22 C19         8.4296   -2.8603   -5.5759 C.ar      1 <0>        -0.0816
     23 C20         8.7829   -4.1926   -5.4416 C.ar      1 <0>        -0.1282
     24 C21         7.8323   -5.1370   -5.1126 C.ar      1 <0>        -0.0803
     25 C22         6.5088   -4.7511   -4.9078 C.ar      1 <0>        -0.0625
     26 C23         5.4871   -5.7587   -4.5490 C.2       1 <0>         0.3432
     27 N3          5.7136   -7.1095   -4.3747 N.am      1 <0>        -0.6654
     28 C24         4.5468   -7.7020   -4.0541 C.2       1 <0>         0.6094
     29 O2          4.3817   -8.8861   -3.8309 O.2       1 <0>        -0.4908
     30 O3          3.5980   -6.7507   -4.0246 O.3       1 <0>        -0.1455
     31 N4          4.2251   -5.5195   -4.3391 N.2       1 <0>        -0.2541
     32 C25         0.8483    1.2584   -4.8768 C.2       1 <0>         0.5192
     33 O4          0.3538    2.1057   -5.6078 O.co2     1 <0>        -0.6778
     34 O5          1.4742    0.3243   -5.3590 O.co2     1 <0>        -0.6671
     35 H1         -0.7151   -5.5106   -0.9478 H         1 <0>         0.0655
     36 H2          1.0518   -5.5692   -0.7409 H         1 <0>         0.0668
     37 H3         -0.0122   -5.5810    0.6859 H         1 <0>         0.0797
     38 H4         -0.7687   -3.2833    0.1408 H         1 <0>         0.0671
     39 H5          0.9983   -3.3420    0.3478 H         1 <0>         0.0668
     40 H6          0.2729    1.6724    0.4179 H         1 <0>         0.1190
     41 H7          0.4937    3.6870   -0.9633 H         1 <0>         0.1212
     42 H8          0.7588    3.5111   -3.3963 H         1 <0>         0.1277
     43 H9          0.0365   -2.6209   -4.3116 H         1 <0>         0.0777
     44 H10         0.4149   -1.0267   -5.0069 H         1 <0>         0.1645
     45 H11         2.9197   -0.6795   -3.1622 H         1 <0>         0.1155
     46 H12         5.2545   -1.3760   -3.5014 H         1 <0>         0.1151
     47 H13         3.9263   -4.4836   -6.1373 H         1 <0>         0.1108
     48 H14         1.5970   -3.7782   -5.7792 H         1 <0>         0.1190
     49 H15         6.8540   -1.4208   -5.4900 H         1 <0>         0.1401
     50 H16         9.1814   -2.1290   -5.8337 H         1 <0>         0.1333
     51 H17         9.8084   -4.4941   -5.5956 H         1 <0>         0.1329
     52 H18         8.1145   -6.1744   -5.0097 H         1 <0>         0.1264
     53 H19         6.5692   -7.5569   -4.4678 H         1 <0>         0.4398
@<TRIPOS>BOND
     1    1    2 1
     2    1   35 1
     3    1   36 1
     4    1   37 1
     5    2    3 1
     6    2   38 1
     7    2   39 1
     8    3    4 1
     9    4   12 1
    10    4    5 2
    11    5    6 1
    12    6   11 ar
    13    6    7 ar
    14    7    8 ar
    15    7   40 1
    16    8    9 ar
    17    8   41 1
    18    9   10 ar
    19    9   42 1
    20   10   11 ar
    21   10   32 1
    22   11   12 1
    23   12   13 1
    24   13   14 1
    25   13   43 1
    26   13   44 1
    27   14   19 ar
    28   14   15 ar
    29   15   16 ar
    30   15   45 1
    31   16   17 ar
    32   16   46 1
    33   17   18 ar
    34   17   20 1
    35   18   19 ar
    36   18   47 1
    37   19   48 1
    38   20   25 ar
    39   20   21 ar
    40   21   22 ar
    41   21   49 1
    42   22   23 ar
    43   22   50 1
    44   23   24 ar
    45   23   51 1
    46   24   25 ar
    47   24   52 1
    48   25   26 1
    49   26   31 2
    50   26   27 1
    51   27   28 am
    52   27   53 1
    53   28   29 2
    54   28   30 1
    55   30   31 1
    56   32   33 2
    57   32   34 1
@<TRIPOS>MOLECULE
ZINC13760709
   53    57     0     0     0
SMALL
USER_CHARGES

@<TRIPOS>ATOM
      1 C1          3.8396    1.5038    1.0861 C.3       1 <0>        -0.1530
      2 C2          3.2182    0.1094    1.1871 C.3       1 <0>         0.0771
      3 O1          3.4419   -0.6013   -0.0323 O.3       1 <0>        -0.2967
      4 C3          2.9520   -1.8600   -0.1084 C.2       1 <0>         0.4688
      5 N1          2.2897   -2.4668    0.8416 N.2       1 <0>        -0.5320
      6 C4          1.9484   -3.7170    0.4298 C.ar      1 <0>         0.0608
      7 C5          1.2528   -4.7683    1.0307 C.ar      1 <0>        -0.0478
      8 C6          1.0580   -5.9501    0.3466 C.ar      1 <0>        -0.1311
      9 C7          1.5453   -6.1116   -0.9368 C.ar      1 <0>        -0.0497
     10 C8          2.2442   -5.0762   -1.5591 C.ar      1 <0>        -0.0929
     11 C9          2.4474   -3.8710   -0.8733 C.ar      1 <0>         0.1014
     12 N2          3.0706   -2.6834   -1.1904 N.pl3     1 <0>        -0.4636
     13 C10         3.7401   -2.3649   -2.4539 C.3       1 <0>         0.1369
     14 C11         5.0107   -3.1674   -2.5654 C.ar      1 <0>        -0.1097
     15 C12         6.0518   -2.9351   -1.6846 C.ar      1 <0>        -0.1171
     16 C13         7.2176   -3.6672   -1.7815 C.ar      1 <0>        -0.0996
     17 C14         7.3449   -4.6424   -2.7695 C.ar      1 <0>        -0.0478
     18 C15         6.2924   -4.8721   -3.6543 C.ar      1 <0>        -0.0131
     19 C16         5.1294   -4.1374   -3.5444 C.ar      1 <0>        -0.1351
     20 C17         8.5949   -5.4318   -2.8791 C.ar      1 <0>        -0.0223
     21 C18         9.8295   -4.7884   -2.9012 C.ar      1 <0>        -0.1159
     22 C19        10.9908   -5.5273   -3.0029 C.ar      1 <0>        -0.1134
     23 C20        10.9370   -6.9085   -3.0838 C.ar      1 <0>        -0.1276
     24 C21         9.7214   -7.5620   -3.0637 C.ar      1 <0>        -0.0725
     25 C22         8.5407   -6.8323   -2.9553 C.ar      1 <0>         0.0060
     26 C23         7.2328   -7.5304   -2.9270 C.2       1 <0>         0.2799
     27 N3          6.0598   -6.9515   -2.8395 N.2       1 <0>        -0.3916
     28 O2          5.0931   -7.9910   -2.8457 O.3       1 <0>        -0.1670
     29 C24         5.7754   -9.1428   -2.9387 C.2       1 <0>         0.5063
     30 O3          5.2361  -10.3807   -2.9761 O.3       1 <0>        -0.6567
     31 N4          7.0538   -8.8612   -2.9928 N.2       1 <0>        -0.6455
     32 C25         2.7642   -5.2487   -2.9274 C.2       1 <0>         0.5242
     33 O4          2.5830   -4.3823   -3.7599 O.2       1 <0>        -0.5284
     34 O5          3.4405   -6.3672   -3.2551 O.3       1 <0>        -0.4407
     35 H1          4.9114    1.4121    0.9104 H         1 <0>         0.0670
     36 H2          3.3812    2.0469    0.2597 H         1 <0>         0.0664
     37 H3          3.6689    2.0459    2.0162 H         1 <0>         0.0839
     38 H4          3.6766   -0.4337    2.0135 H         1 <0>         0.0717
     39 H5          2.1463    0.2011    1.3627 H         1 <0>         0.0715
     40 H6          0.8669   -4.6559    2.0331 H         1 <0>         0.1335
     41 H7          0.5192   -6.7582    0.8189 H         1 <0>         0.1382
     42 H8          1.3850   -7.0427   -1.4599 H         1 <0>         0.1431
     43 H9          3.0808   -2.6108   -3.2864 H         1 <0>         0.1266
     44 H10         3.9783   -1.3016   -2.4810 H         1 <0>         0.1003
     45 H11         5.9522   -2.1791   -0.9198 H         1 <0>         0.1108
     46 H12         8.0299   -3.4847   -1.0935 H         1 <0>         0.1169
     47 H13         6.3856   -5.6261   -4.4219 H         1 <0>         0.1214
     48 H14         4.3116   -4.3176   -4.2265 H         1 <0>         0.1449
     49 H15         9.8784   -3.7113   -2.8392 H         1 <0>         0.1242
     50 H16        11.9469   -5.0253   -3.0198 H         1 <0>         0.1221
     51 H17        11.8513   -7.4778   -3.1635 H         1 <0>         0.1246
     52 H18         9.6864   -8.6395   -3.1275 H         1 <0>         0.1398
     53 H19         3.7418   -6.3897   -4.1737 H         1 <0>         0.4023
@<TRIPOS>BOND
     1    1    2 1
     2    1   35 1
     3    1   36 1
     4    1   37 1
     5    2    3 1
     6    2   38 1
     7    2   39 1
     8    3    4 1
     9    4   12 1
    10    4    5 2
    11    5    6 1
    12    6   11 ar
    13    6    7 ar
    14    7    8 ar
    15    7   40 1
    16    8    9 ar
    17    8   41 1
    18    9   10 ar
    19    9   42 1
    20   10   11 ar
    21   10   32 1
    22   11   12 1
    23   12   13 1
    24   13   14 1
    25   13   43 1
    26   13   44 1
    27   14   19 ar
    28   14   15 ar
    29   15   16 ar
    30   15   45 1
    31   16   17 ar
    32   16   46 1
    33   17   18 ar
    34   17   20 1
    35   18   19 ar
    36   18   47 1
    37   19   48 1
    38   20   25 ar
    39   20   21 ar
    40   21   22 ar
    41   21   49 1
    42   22   23 ar
    43   22   50 1
    44   23   24 ar
    45   23   51 1
    46   24   25 ar
    47   24   52 1
    48   25   26 1
    49   26   31 1
    50   26   27 2
    51   27   28 1
    52   28   29 1
    53   29   30 1
    54   29   31 2
    55   32   33 2
    56   32   34 1
    57   34   53 1
@<TRIPOS>MOLECULE
ZINC13760709
   54    58     0     0     0
SMALL
USER_CHARGES

@<TRIPOS>ATOM
      1 C1         -2.8875    1.3802    2.8039 C.3       1 <0>        -0.1540
      2 C2         -2.6404    0.0002    2.1912 C.3       1 <0>         0.0767
      3 O1         -1.6805   -0.7061    2.9797 O.3       1 <0>        -0.2966
      4 C3         -1.3478   -1.9522    2.5715 C.2       1 <0>         0.4739
      5 N1         -1.8315   -2.5504    1.5145 N.2       1 <0>        -0.5278
      6 C4         -1.2815   -3.7889    1.4021 C.ar      1 <0>         0.0647
      7 C5         -1.4376   -4.8280    0.4823 C.ar      1 <0>        -0.0406
      8 C6         -0.7254   -5.9995    0.6336 C.ar      1 <0>        -0.1320
      9 C7          0.1488   -6.1625    1.6918 C.ar      1 <0>        -0.0502
     10 C8          0.3222   -5.1393    2.6248 C.ar      1 <0>        -0.1019
     11 C9         -0.3960   -3.9446    2.4803 C.ar      1 <0>         0.0993
     12 N2         -0.4527   -2.7697    3.1985 N.pl3     1 <0>        -0.4674
     13 C10         0.3049   -2.4575    4.4129 C.3       1 <0>         0.1322
     14 C11        -0.2159   -3.2882    5.5574 C.ar      1 <0>        -0.0968
     15 C12        -1.5004   -3.0837    6.0284 C.ar      1 <0>        -0.1050
     16 C13        -1.9826   -3.8410    7.0764 C.ar      1 <0>        -0.0912
     17 C14        -1.1725   -4.8140    7.6604 C.ar      1 <0>        -0.0679
     18 C15         0.1211   -5.0158    7.1811 C.ar      1 <0>        -0.0411
     19 C16         0.5905   -4.2559    6.1291 C.ar      1 <0>        -0.1296
     20 C17        -1.6844   -5.6303    8.7866 C.ar      1 <0>         0.0129
     21 C18        -2.2866   -5.0146    9.8805 C.ar      1 <0>        -0.1072
     22 C19        -2.7615   -5.7785   10.9275 C.ar      1 <0>        -0.0812
     23 C20        -2.6437   -7.1580   10.8984 C.ar      1 <0>        -0.1175
     24 C21        -2.0502   -7.7853    9.8222 C.ar      1 <0>        -0.0783
     25 C22        -1.5699   -7.0301    8.7539 C.ar      1 <0>        -0.0545
     26 C23        -0.9378   -7.6980    7.5954 C.2       1 <0>         0.3436
     27 N3         -0.4451   -7.1001    6.5496 N.2       1 <0>        -0.2716
     28 O2          0.0615   -8.0975    5.6797 O.3       1 <0>        -0.1204
     29 C24        -0.1585   -9.2875    6.2642 C.2       1 <0>         0.6043
     30 O3          0.1422  -10.3752    5.8110 O.2       1 <0>        -0.4822
     31 N4         -0.7665   -9.0597    7.4449 N.am      1 <0>        -0.6659
     32 C25         1.2541   -5.3135    3.7534 C.2       1 <0>         0.5285
     33 O4          2.0490   -4.4358    4.0260 O.2       1 <0>        -0.5151
     34 O5          1.2246   -6.4462    4.4829 O.3       1 <0>        -0.4646
     35 H1         -1.9528    1.9405    2.8263 H         1 <0>         0.0678
     36 H2         -3.6197    1.9190    2.2025 H         1 <0>         0.0868
     37 H3         -3.2661    1.2644    3.8195 H         1 <0>         0.0670
     38 H4         -3.5752   -0.5600    2.1689 H         1 <0>         0.0731
     39 H5         -2.2619    0.1161    1.1757 H         1 <0>         0.0739
     40 H6         -2.1176   -4.7142   -0.3490 H         1 <0>         0.1372
     41 H7         -0.8525   -6.7982   -0.0822 H         1 <0>         0.1404
     42 H8          0.6996   -7.0856    1.7972 H         1 <0>         0.1421
     43 H9          1.3592   -2.6821    4.2512 H         1 <0>         0.1291
     44 H10         0.1911   -1.3998    4.6503 H         1 <0>         0.1069
     45 H11        -2.1269   -2.3298    5.5753 H         1 <0>         0.1202
     46 H12        -2.9853   -3.6801    7.4438 H         1 <0>         0.1246
     47 H13         0.7530   -5.7680    7.6295 H         1 <0>         0.1202
     48 H14         1.5910   -4.4141    5.7543 H         1 <0>         0.1508
     49 H15        -2.3819   -3.9392    9.9101 H         1 <0>         0.1382
     50 H16        -3.2275   -5.2974   11.7747 H         1 <0>         0.1366
     51 H17        -3.0183   -7.7463   11.7230 H         1 <0>         0.1376
     52 H18        -1.9615   -8.8616    9.8059 H         1 <0>         0.1308
     53 H19         1.8721   -6.4686    5.2007 H         1 <0>         0.4005
     54 H20        -1.0399   -9.7387    8.0814 H         1 <0>         0.4408
@<TRIPOS>BOND
     1    1    2 1
     2    1   35 1
     3    1   36 1
     4    1   37 1
     5    2    3 1
     6    2   38 1
     7    2   39 1
     8    3    4 1
     9    4   12 1
    10    4    5 2
    11    5    6 1
    12    6   11 ar
    13    6    7 ar
    14    7    8 ar
    15    7   40 1
    16    8    9 ar
    17    8   41 1
    18    9   10 ar
    19    9   42 1
    20   10   11 ar
    21   10   32 1
    22   11   12 1
    23   12   13 1
    24   13   14 1
    25   13   43 1
    26   13   44 1
    27   14   19 ar
    28   14   15 ar
    29   15   16 ar
    30   15   45 1
    31   16   17 ar
    32   16   46 1
    33   17   18 ar
    34   17   20 1
    35   18   19 ar
    36   18   47 1
    37   19   48 1
    38   20   25 ar
    39   20   21 ar
    40   21   22 ar
    41   21   49 1
    42   22   23 ar
    43   22   50 1
    44   23   24 ar
    45   23   51 1
    46   24   25 ar
    47   24   52 1
    48   25   26 1
    49   26   31 1
    50   26   27 2
    51   27   28 1
    52   28   29 1
    53   29   30 2
    54   29   31 am
    55   31   54 1
    56   32   33 2
    57   32   34 1
    58   34   53 1
@<TRIPOS>MOLECULE
ZINC01551889
   52    55     0     0     0
SMALL
USER_CHARGES
2-[4-[(2-butylbenzoimidazol-1-yl)methyl]phenyl]benzoic acid
@<TRIPOS>ATOM
      1 C1         -1.9165   -0.3515    2.9624 C.3       1 <0>        -0.1521
      2 C2         -1.9356   -0.0073    1.4717 C.3       1 <0>        -0.1241
      3 C3         -1.7948    1.5060    1.2959 C.3       1 <0>        -0.1121
      4 C4         -1.8138    1.8501   -0.1948 C.3       1 <0>        -0.0468
      5 C5         -1.5539    3.3237   -0.3735 C.2       1 <0>         0.2895
      6 N1         -0.3751    3.8728   -0.4162 N.2       1 <0>        -0.4964
      7 C6         -0.5022    5.2140   -0.5861 C.ar      1 <0>         0.0464
      8 C7          0.4149    6.2626   -0.6967 C.ar      1 <0>        -0.0679
      9 C8         -0.0317    7.5424   -0.8659 C.ar      1 <0>        -0.1300
     10 C9         -1.3909    7.8153   -0.9292 C.ar      1 <0>        -0.1054
     11 C10        -2.3138    6.7975   -0.8172 C.ar      1 <0>        -0.1027
     12 C11        -1.8784    5.4897   -0.6505 C.ar      1 <0>         0.0566
     13 N2         -2.5175    4.2738   -0.5130 N.pl3     1 <0>        -0.4771
     14 C12        -3.9650    4.0483   -0.5170 C.3       1 <0>         0.1575
     15 C13        -4.4357    3.8309   -1.9320 C.ar      1 <0>        -0.1280
     16 C14        -4.8704    4.9060   -2.6863 C.ar      1 <0>        -0.1065
     17 C15        -5.2972    4.7139   -3.9844 C.ar      1 <0>        -0.0268
     18 C16        -5.3004    3.4314   -4.5318 C.ar      1 <0>         0.0010
     19 C17        -4.8663    2.3509   -3.7646 C.ar      1 <0>        -0.1130
     20 C18        -4.4365    2.5562   -2.4695 C.ar      1 <0>        -0.1148
     21 C19        -5.7627    3.2177   -5.9233 C.ar      1 <0>        -0.0336
     22 C20        -6.8282    2.3605   -6.1834 C.ar      1 <0>        -0.1234
     23 C21        -7.2554    2.1638   -7.4811 C.ar      1 <0>        -0.1260
     24 C22        -6.6311    2.8155   -8.5321 C.ar      1 <0>        -0.1359
     25 C23        -5.5741    3.6690   -8.2951 C.ar      1 <0>        -0.0799
     26 C24        -5.1312    3.8842   -6.9891 C.ar      1 <0>        -0.1005
     27 C25        -4.0052    4.8006   -6.7286 C.2       1 <0>         0.4831
     28 O1         -3.5495    4.8996   -5.6067 O.co2     1 <0>        -0.6080
     29 H1         -0.9744   -0.0209    3.3996 H         1 <0>         0.0541
     30 H2         -2.7449    0.1510    3.4619 H         1 <0>         0.0526
     31 H3         -2.0168   -1.4296    3.0877 H         1 <0>         0.0537
     32 H4         -2.8777   -0.3379    1.0345 H         1 <0>         0.0634
     33 H5         -1.1072   -0.5098    0.9723 H         1 <0>         0.0657
     34 H6         -0.8527    1.8365    1.7331 H         1 <0>         0.0720
     35 H7         -2.6232    2.0084    1.7953 H         1 <0>         0.0613
     36 H8         -2.7888    1.5998   -0.6131 H         1 <0>         0.0848
     37 H9         -1.0405    1.2797   -0.7093 H         1 <0>         0.0990
     38 H10         1.4749    6.0614   -0.6488 H         1 <0>         0.1245
     39 H11         0.6802    8.3501   -0.9510 H         1 <0>         0.1254
     40 H12        -1.7280    8.8327   -1.0626 H         1 <0>         0.1268
     41 H13        -3.3705    7.0158   -0.8630 H         1 <0>         0.1185
     42 H14        -4.1973    3.1681    0.0825 H         1 <0>         0.0966
     43 H15        -4.4694    4.9180   -0.0959 H         1 <0>         0.0933
     44 H16        -4.8720    5.8981   -2.2597 H         1 <0>         0.1119
     45 H17        -5.6322    5.5546   -4.5739 H         1 <0>         0.1149
     46 H18        -4.8663    1.3554   -4.1834 H         1 <0>         0.1164
     47 H19        -4.0998    1.7201   -1.8745 H         1 <0>         0.1136
     48 H20        -7.3205    1.8489   -5.3695 H         1 <0>         0.1177
     49 H21        -8.0823    1.4976   -7.6784 H         1 <0>         0.1161
     50 H22        -6.9744    2.6544   -9.5433 H         1 <0>         0.1167
     51 H23        -5.0917    4.1735   -9.1192 H         1 <0>         0.1314
     52 O2         -3.4818    5.5279   -7.7350 O.co2     1 <0>        -0.7534
@<TRIPOS>BOND
     1    1    2 1
     2    1   29 1
     3    1   30 1
     4    1   31 1
     5    2    3 1
     6    2   32 1
     7    2   33 1
     8    3    4 1
     9    3   34 1
    10    3   35 1
    11    4    5 1
    12    4   36 1
    13    4   37 1
    14    5   13 1
    15    5    6 2
    16    6    7 1
    17    7   12 ar
    18    7    8 ar
    19    8    9 ar
    20    8   38 1
    21    9   10 ar
    22    9   39 1
    23   10   11 ar
    24   10   40 1
    25   11   12 ar
    26   11   41 1
    27   12   13 1
    28   13   14 1
    29   14   15 1
    30   14   42 1
    31   14   43 1
    32   15   20 ar
    33   15   16 ar
    34   16   17 ar
    35   16   44 1
    36   17   18 ar
    37   17   45 1
    38   18   19 ar
    39   18   21 1
    40   19   20 ar
    41   19   46 1
    42   20   47 1
    43   21   26 ar
    44   21   22 ar
    45   22   23 ar
    46   22   48 1
    47   23   24 ar
    48   23   49 1
    49   24   25 ar
    50   24   50 1
    51   25   26 ar
    52   25   51 1
    53   26   27 1
    54   27   28 2
    55   27   52 1
@<TRIPOS>MOLECULE
ZINC01551889
   53    56     0     0     0
SMALL
USER_CHARGES
2-[4-[(2-butylbenzoimidazol-1-yl)methyl]phenyl]benzoic acid
@<TRIPOS>ATOM
      1 C1         -1.9165   -0.3515    2.9624 C.3       1 <0>        -0.1565
      2 C2         -1.9356   -0.0073    1.4717 C.3       1 <0>        -0.1251
      3 C3         -1.7948    1.5060    1.2959 C.3       1 <0>        -0.1197
      4 C4         -1.8138    1.8501   -0.1948 C.3       1 <0>        -0.0879
      5 C5         -1.5539    3.3237   -0.3735 C.cat     1 <0>         0.3911
      6 C6         -0.5022    5.2140   -0.5861 C.ar      1 <0>         0.0476
      7 C7          0.4149    6.2626   -0.6967 C.ar      1 <0>        -0.0811
      8 C8         -0.0317    7.5424   -0.8659 C.ar      1 <0>        -0.0820
      9 C9         -1.3909    7.8153   -0.9292 C.ar      1 <0>        -0.0702
     10 C10        -2.3138    6.7975   -0.8172 C.ar      1 <0>        -0.0816
     11 C11        -1.8784    5.4897   -0.6505 C.ar      1 <0>         0.0861
     12 N1         -2.5175    4.2738   -0.5130 N.pl3     1 <0>        -0.4148
     13 C12        -3.9650    4.0483   -0.5170 C.3       1 <0>         0.1476
     14 C13        -4.4357    3.8309   -1.9320 C.ar      1 <0>        -0.1582
     15 C14        -4.8704    4.9060   -2.6863 C.ar      1 <0>        -0.1007
     16 C15        -5.2972    4.7139   -3.9844 C.ar      1 <0>        -0.0243
     17 C16        -5.3004    3.4314   -4.5318 C.ar      1 <0>         0.0279
     18 C17        -4.8663    2.3509   -3.7646 C.ar      1 <0>        -0.1141
     19 C18        -4.4365    2.5562   -2.4695 C.ar      1 <0>        -0.1106
     20 C19        -5.7627    3.2177   -5.9233 C.ar      1 <0>        -0.0494
     21 C20        -6.8282    2.3605   -6.1834 C.ar      1 <0>        -0.1200
     22 C21        -7.2554    2.1638   -7.4811 C.ar      1 <0>        -0.1224
     23 C22        -6.6311    2.8155   -8.5321 C.ar      1 <0>        -0.1280
     24 C23        -5.5741    3.6690   -8.2951 C.ar      1 <0>        -0.0784
     25 C24        -5.1312    3.8842   -6.9891 C.ar      1 <0>        -0.1002
     26 C25        -4.0052    4.8006   -6.7286 C.2       1 <0>         0.4873
     27 O1         -3.5495    4.8996   -5.6067 O.co2     1 <0>        -0.6228
     28 H1         -0.9744   -0.0209    3.3996 H         1 <0>         0.0559
     29 H2         -2.7449    0.1510    3.4619 H         1 <0>         0.0571
     30 H3         -2.0168   -1.4296    3.0877 H         1 <0>         0.0627
     31 H4         -2.8777   -0.3379    1.0345 H         1 <0>         0.0727
     32 H5         -1.1072   -0.5098    0.9723 H         1 <0>         0.0711
     33 H6         -0.8527    1.8365    1.7331 H         1 <0>         0.0744
     34 H7         -2.6232    2.0084    1.7953 H         1 <0>         0.0777
     35 H8         -2.7888    1.5998   -0.6131 H         1 <0>         0.1237
     36 H9         -1.0405    1.2797   -0.7093 H         1 <0>         0.1257
     37 H10         1.4749    6.0614   -0.6488 H         1 <0>         0.1479
     38 H11         0.6802    8.3501   -0.9510 H         1 <0>         0.1524
     39 H12        -1.7280    8.8327   -1.0626 H         1 <0>         0.1536
     40 H13        -3.3705    7.0158   -0.8630 H         1 <0>         0.1481
     41 H14        -4.1973    3.1681    0.0825 H         1 <0>         0.1188
     42 H15        -4.4694    4.9180   -0.0959 H         1 <0>         0.1216
     43 H16        -4.8720    5.8981   -2.2597 H         1 <0>         0.1157
     44 H17        -5.6322    5.5546   -4.5739 H         1 <0>         0.1220
     45 H18        -4.8663    1.3554   -4.1834 H         1 <0>         0.1232
     46 H19        -4.0998    1.7201   -1.8745 H         1 <0>         0.1142
     47 H20        -7.3205    1.8489   -5.3695 H         1 <0>         0.1190
     48 H21        -8.0823    1.4976   -7.6784 H         1 <0>         0.1202
     49 H22        -6.9744    2.6544   -9.5433 H         1 <0>         0.1211
     50 H23        -5.0917    4.1735   -9.1192 H         1 <0>         0.1342
     51 O2         -3.4818    5.5279   -7.7350 O.co2     1 <0>        -0.7437
     52 N2         -0.3742    3.8723   -0.4161 N.pl3     1 <0>        -0.5007
     53 H24         0.5165    3.3682   -0.3339 H         1 <0>         0.4716
@<TRIPOS>BOND
     1    1    2 1
     2    1   28 1
     3    1   29 1
     4    1   30 1
     5    2    3 1
     6    2   31 1
     7    2   32 1
     8    3    4 1
     9    3   33 1
    10    3   34 1
    11    4    5 1
    12    4   35 1
    13    4   36 1
    14    5   12 1
    15    5   52 2
    16    6   11 ar
    17    6    7 ar
    18    6   52 1
    19    7    8 ar
    20    7   37 1
    21    8    9 ar
    22    8   38 1
    23    9   10 ar
    24    9   39 1
    25   10   11 ar
    26   10   40 1
    27   11   12 1
    28   12   13 1
    29   13   14 1
    30   13   41 1
    31   13   42 1
    32   14   19 ar
    33   14   15 ar
    34   15   16 ar
    35   15   43 1
    36   16   17 ar
    37   16   44 1
    38   17   18 ar
    39   17   20 1
    40   18   19 ar
    41   18   45 1
    42   19   46 1
    43   20   25 ar
    44   20   21 ar
    45   21   22 ar
    46   21   47 1
    47   22   23 ar
    48   22   48 1
    49   23   24 ar
    50   23   49 1
    51   24   25 ar
    52   24   50 1
    53   25   26 1
    54   26   27 2
    55   26   51 1
    56   52   53 1
@<TRIPOS>MOLECULE
ZINC13451137
   54    58     0     0     0
SMALL
USER_CHARGES
2-butyl-1-[[4-[2-(1H-tetrazol-5-yl)phenyl]phenyl]methyl]benzimidazole
@<TRIPOS>ATOM
      1 C1         -0.6455   -0.2582    3.2377 C.3       1 <0>        -0.1527
      2 C2         -0.7829    0.1470    1.7688 C.3       1 <0>        -0.1236
      3 C3         -0.9702    1.6625    1.6732 C.3       1 <0>        -0.1134
      4 C4         -1.1076    2.0678    0.2043 C.3       1 <0>        -0.0461
      5 C5         -1.1931    3.5690    0.1032 C.2       1 <0>         0.2905
      6 N1         -0.1706    4.3722    0.0550 N.2       1 <0>        -0.4988
      7 C6         -0.6028    5.6564   -0.0326 C.ar      1 <0>         0.0454
      8 C7          0.0499    6.8896   -0.1113 C.ar      1 <0>        -0.0701
      9 C8         -0.6795    8.0418   -0.1917 C.ar      1 <0>        -0.1303
     10 C9         -2.0667    8.0026   -0.1957 C.ar      1 <0>        -0.1079
     11 C10        -2.7318    6.7979   -0.1136 C.ar      1 <0>        -0.1036
     12 C11        -2.0072    5.6162   -0.0371 C.ar      1 <0>         0.0540
     13 N2         -2.3505    4.2818    0.0499 N.pl3     1 <0>        -0.4753
     14 C12        -3.7092    3.7349    0.0789 C.3       1 <0>         0.1539
     15 C13        -4.1969    3.5260   -1.3316 C.ar      1 <0>        -0.1139
     16 C14        -4.7777    4.5745   -2.0222 C.ar      1 <0>        -0.1082
     17 C15        -5.2209    4.3907   -3.3161 C.ar      1 <0>         0.0161
     18 C16        -5.0923    3.1423   -3.9233 C.ar      1 <0>        -0.0382
     19 C17        -4.5113    2.0878   -3.2203 C.ar      1 <0>        -0.1025
     20 C18        -4.0670    2.2849   -1.9288 C.ar      1 <0>        -0.1289
     21 C19        -5.5719    2.9368   -5.3106 C.ar      1 <0>        -0.0362
     22 C20        -4.7400    2.3483   -6.2591 C.ar      1 <0>        -0.1100
     23 C21        -5.1922    2.1544   -7.5487 C.ar      1 <0>        -0.1313
     24 C22        -6.4684    2.5517   -7.9111 C.ar      1 <0>        -0.1217
     25 C23        -7.3050    3.1415   -6.9860 C.ar      1 <0>        -0.1002
     26 C24        -6.8669    3.3402   -5.6777 C.ar      1 <0>         0.0479
     27 C25        -7.7591    3.9721   -4.6825 C.2       1 <0>         0.1224
     28 N3         -9.4516    4.9249   -3.6604 N.2       1 <0>        -0.2059
     29 N4         -8.4726    4.7758   -2.8354 N.2       1 <0>        -0.1569
     30 N5         -7.4744    4.2189   -3.4206 N.2       1 <0>        -0.3856
     31 H1         -1.5453    0.0316    3.7803 H         1 <0>         0.0534
     32 H2         -0.5121   -1.3379    3.3058 H         1 <0>         0.0540
     33 H3          0.2188    0.2428    3.6736 H         1 <0>         0.0538
     34 H4         -1.6473   -0.3541    1.3330 H         1 <0>         0.0641
     35 H5          0.1169   -0.1428    1.2262 H         1 <0>         0.0652
     36 H6         -0.1059    2.1636    2.1090 H         1 <0>         0.0714
     37 H7         -1.8700    1.9524    2.2158 H         1 <0>         0.0622
     38 H8         -2.0117    1.6235   -0.2121 H         1 <0>         0.0860
     39 H9         -0.2396    1.7149   -0.3527 H         1 <0>         0.0985
     40 H10         1.1291    6.9316   -0.1089 H         1 <0>         0.1240
     41 H11        -0.1714    8.9929   -0.2523 H         1 <0>         0.1250
     42 H12        -2.6290    8.9225   -0.2590 H         1 <0>         0.1272
     43 H13        -3.8116    6.7733   -0.1130 H         1 <0>         0.1222
     44 H14        -3.7059    2.7814    0.6071 H         1 <0>         0.0978
     45 H15        -4.3708    4.4325    0.5925 H         1 <0>         0.0962
     46 H16        -4.8804    5.5400   -1.5493 H         1 <0>         0.1103
     47 H17        -5.6700    5.2113   -3.8559 H         1 <0>         0.1154
     48 H18        -4.4094    1.1184   -3.6855 H         1 <0>         0.1152
     49 H19        -3.6167    1.4688   -1.3833 H         1 <0>         0.1119
     50 H20        -3.7420    2.0396   -5.9847 H         1 <0>         0.1209
     51 H21        -4.5452    1.6940   -8.2807 H         1 <0>         0.1182
     52 H22        -6.8106    2.3994   -8.9241 H         1 <0>         0.1197
     53 H23        -8.2989    3.4493   -7.2754 H         1 <0>         0.1296
     54 N6         -9.0097    4.4138   -4.8740 N.2       1 <0>        -0.4107
@<TRIPOS>BOND
     1    1    2 1
     2    1   31 1
     3    1   32 1
     4    1   33 1
     5    2    3 1
     6    2   34 1
     7    2   35 1
     8    3    4 1
     9    3   36 1
    10    3   37 1
    11    4    5 1
    12    4   38 1
    13    4   39 1
    14    5   13 1
    15    5    6 2
    16    6    7 1
    17    7   12 ar
    18    7    8 ar
    19    8    9 ar
    20    8   40 1
    21    9   10 ar
    22    9   41 1
    23   10   11 ar
    24   10   42 1
    25   11   12 ar
    26   11   43 1
    27   12   13 1
    28   13   14 1
    29   14   15 1
    30   14   44 1
    31   14   45 1
    32   15   20 ar
    33   15   16 ar
    34   16   17 ar
    35   16   46 1
    36   17   18 ar
    37   17   47 1
    38   18   19 ar
    39   18   21 1
    40   19   20 ar
    41   19   48 1
    42   20   49 1
    43   21   26 ar
    44   21   22 ar
    45   22   23 ar
    46   22   50 1
    47   23   24 ar
    48   23   51 1
    49   24   25 ar
    50   24   52 1
    51   25   26 ar
    52   25   53 1
    53   26   27 1
    54   27   30 2
    55   27   54 1
    56   28   29 2
    57   28   54 1
    58   29   30 1
@<TRIPOS>MOLECULE
ZINC14952767
   50    53     0     0     0
SMALL
USER_CHARGES
2-butyl-5-chloro-3-[[4-[2-(1H-tetrazol-5-yl)phenyl]phenyl]methyl]imidazole-4-carboxylic acid
@<TRIPOS>ATOM
      1 C1         -3.0849   -2.4707   -2.9197 C.3       1 <0>        -0.1509
      2 C2         -2.7736   -2.0679   -1.4768 C.3       1 <0>        -0.1258
      3 C3         -1.4760   -1.2579   -1.4421 C.3       1 <0>        -0.1125
      4 C4         -1.1647   -0.8552    0.0007 C.3       1 <0>        -0.0373
      5 C5          0.0452    0.0430    0.0216 C.2       1 <0>         0.2055
      6 N1          1.2884   -0.3644    0.0372 N.2       1 <0>        -0.4965
      7 C6          2.1083    0.6875    0.0538 C.2       1 <0>         0.0672
      8 C7          1.3268    1.8242    0.0482 C.2       1 <0>        -0.0159
      9 N2          0.0142    1.3870    0.0277 N.pl3     1 <0>        -0.4055
     10 C8         -1.1839    2.2300    0.0202 C.3       1 <0>         0.1384
     11 C9         -1.6857    2.4022    1.4308 C.ar      1 <0>        -0.0955
     12 C10        -2.7003    1.5902    1.9050 C.ar      1 <0>        -0.1212
     13 C11        -3.1600    1.7394    3.1976 C.ar      1 <0>         0.0028
     14 C12        -2.6073    2.7182    4.0224 C.ar      1 <0>        -0.0555
     15 C13        -1.5889    3.5374    3.5370 C.ar      1 <0>        -0.1075
     16 C14        -1.1338    3.3754    2.2444 C.ar      1 <0>        -0.1097
     17 C15        -3.1008    2.8876    5.4097 C.ar      1 <0>        -0.0206
     18 C16        -2.2021    2.9334    6.4719 C.ar      1 <0>        -0.1124
     19 C17        -2.6655    3.0961    7.7618 C.ar      1 <0>        -0.1320
     20 C18        -4.0237    3.2039    8.0102 C.ar      1 <0>        -0.1303
     21 C19        -4.9295    3.1554    6.9706 C.ar      1 <0>        -0.1019
     22 C20        -4.4790    2.9969    5.6611 C.ar      1 <0>         0.0415
     23 C21        -5.4453    2.9438    4.5435 C.2       1 <0>         0.1209
     24 N3         -6.7957    3.0304    4.6399 N.2       1 <0>        -0.4142
     25 N4         -7.2666    2.9324    3.3188 N.2       1 <0>        -0.2211
     26 N5         -6.2324    2.7928    2.5624 N.2       1 <0>        -0.1519
     27 N6         -5.1585    2.7977    3.2665 N.2       1 <0>        -0.3713
     28 C22         1.7922    3.2123    0.0619 C.2       1 <0>         0.5226
     29 O1          2.9841    3.4541    0.0798 O.co2     1 <0>        -0.6057
     30 O2          0.8990    4.2232    0.0546 O.co2     1 <0>        -0.7432
     31 Cl1         3.8433    0.6355    0.0788 Cl        1 <0>        -0.0173
     32 H1         -4.0178   -3.0530   -2.9447 H         1 <0>         0.0505
     33 H2         -2.2605   -3.0818   -3.3158 H         1 <0>         0.0513
     34 H3         -3.2002   -1.5668   -3.5359 H         1 <0>         0.0535
     35 H4         -3.5980   -1.4568   -1.0807 H         1 <0>         0.0658
     36 H5         -2.6583   -2.9717   -0.8605 H         1 <0>         0.0621
     37 H6         -0.6516   -1.8690   -1.8383 H         1 <0>         0.0677
     38 H7         -1.5914   -0.3540   -2.0583 H         1 <0>         0.0611
     39 H8         -2.0263   -0.3197    0.4259 H         1 <0>         0.0864
     40 H9         -0.9624   -1.7568    0.5975 H         1 <0>         0.0885
     41 H10        -0.9369    3.2144   -0.4039 H         1 <0>         0.1344
     42 H11        -1.9642    1.7528   -0.5909 H         1 <0>         0.0836
     43 H12        -3.1304    0.8350    1.2639 H         1 <0>         0.1087
     44 H13        -3.9489    1.1017    3.5683 H         1 <0>         0.1092
     45 H14        -1.1573    4.2976    4.1713 H         1 <0>         0.1097
     46 H15        -0.3450    4.0094    1.8673 H         1 <0>         0.1455
     47 H16        -1.1418    2.8459    6.2861 H         1 <0>         0.1219
     48 H17        -1.9650    3.1350    8.5829 H         1 <0>         0.1151
     49 H18        -4.3759    3.3264    9.0238 H         1 <0>         0.1152
     50 H19        -5.9873    3.2397    7.1715 H         1 <0>         0.1262
@<TRIPOS>BOND
     1    1    2 1
     2    1   32 1
     3    1   33 1
     4    1   34 1
     5    2    3 1
     6    2   35 1
     7    2   36 1
     8    3    4 1
     9    3   37 1
    10    3   38 1
    11    4    5 1
    12    4   39 1
    13    4   40 1
    14    5    9 1
    15    5    6 2
    16    6    7 1
    17    7    8 2
    18    7   31 1
    19    8    9 1
    20    8   28 1
    21    9   10 1
    22   10   11 1
    23   10   41 1
    24   10   42 1
    25   11   16 ar
    26   11   12 ar
    27   12   13 ar
    28   12   43 1
    29   13   14 ar
    30   13   44 1
    31   14   15 ar
    32   14   17 1
    33   15   16 ar
    34   15   45 1
    35   16   46 1
    36   17   22 ar
    37   17   18 ar
    38   18   19 ar
    39   18   47 1
    40   19   20 ar
    41   19   48 1
    42   20   21 ar
    43   20   49 1
    44   21   22 ar
    45   21   50 1
    46   22   23 1
    47   23   27 2
    48   23   24 1
    49   24   25 1
    50   25   26 2
    51   26   27 1
    52   28   29 2
    53   28   30 1
