@<TRIPOS>MOLECULE
ZINC13298436
   59    63     0     0     0
SMALL
USER_CHARGES

@<TRIPOS>ATOM
      1 C1         -0.0187    1.5258    0.0104 C.3       1 <0>        -0.1515
      2 C2          0.0021   -0.0041    0.0020 C.3       1 <0>        -0.1259
      3 C3          0.7182   -0.4975   -1.2568 C.3       1 <0>        -0.1042
      4 C4          0.7390   -2.0273   -1.2652 C.3       1 <0>        -0.0650
      5 C5          1.4443   -2.5133   -2.5051 C.2       1 <0>         0.3553
      6 N1          1.9446   -1.7244   -3.3941 N.2       1 <0>        -0.5026
      7 C6          2.5387   -2.5645   -4.4341 C.3       1 <0>         0.0372
      8 C7          1.8838   -2.3055   -5.7977 C.3       1 <0>        -0.0921
      9 C8          2.8711   -1.3460   -6.5115 C.3       1 <0>        -0.1154
     10 C9          4.2550   -1.8748   -6.0570 C.3       1 <0>        -0.1201
     11 C10         4.0372   -2.2917   -4.5855 C.3       1 <0>        -0.0895
     12 C11         2.2851   -3.9781   -3.9734 C.2       1 <0>         0.5093
     13 O1          2.6050   -5.0082   -4.5272 O.2       1 <0>        -0.4735
     14 N2          1.6252   -3.8381   -2.8007 N.am      1 <0>        -0.5752
     15 C12         1.1649   -4.9497   -1.9648 C.3       1 <0>         0.1579
     16 C13        -0.2301   -5.3438   -2.3767 C.ar      1 <0>        -0.1153
     17 C14        -1.3216   -4.7387   -1.7799 C.ar      1 <0>        -0.1319
     18 C15        -2.6014   -5.0955   -2.1530 C.ar      1 <0>        -0.1050
     19 C16        -2.7931   -6.0679   -3.1335 C.ar      1 <0>        -0.0388
     20 C17        -1.6892   -6.6744   -3.7314 C.ar      1 <0>         0.0104
     21 C18        -0.4142   -6.3053   -3.3541 C.ar      1 <0>        -0.1071
     22 C19        -4.1651   -6.4559   -3.5382 C.ar      1 <0>        -0.0425
     23 C20        -5.1143   -6.7811   -2.5730 C.ar      1 <0>        -0.1084
     24 C21        -6.3909   -7.1419   -2.9542 C.ar      1 <0>        -0.1368
     25 C22        -6.7368   -7.1832   -4.2946 C.ar      1 <0>        -0.1204
     26 C23        -5.8093   -6.8642   -5.2650 C.ar      1 <0>        -0.1049
     27 C24        -4.5171   -6.4920   -4.8980 C.ar      1 <0>         0.0552
     28 C25        -3.5210   -6.1438   -5.9336 C.2       1 <0>         0.0680
     29 N3         -2.2520   -5.7828   -5.7320 N.2       1 <0>        -0.3506
     30 N4         -1.7232   -5.5650   -6.8873 N.2       1 <0>        -0.1875
     31 N5         -2.6028   -5.7729   -7.8034 N.2       1 <0>        -0.1914
     32 N6         -3.7120   -6.1340   -7.2544 N.2       1 <0>        -0.3651
     33 H1          1.0039    1.9031    0.0027 H         1 <0>         0.0533
     34 H2         -0.5459    1.8868   -0.8726 H         1 <0>         0.0548
     35 H3         -0.5289    1.8773    0.9072 H         1 <0>         0.0516
     36 H4          0.5293   -0.3651    0.8851 H         1 <0>         0.0605
     37 H5         -1.0205   -0.3814    0.0098 H         1 <0>         0.0625
     38 H6          0.1910   -0.1364   -2.1398 H         1 <0>         0.0733
     39 H7          1.7408   -0.1202   -1.2645 H         1 <0>         0.0716
     40 H8          1.2661   -2.3884   -0.3821 H         1 <0>         0.0910
     41 H9         -0.2836   -2.4046   -1.2575 H         1 <0>         0.0973
     42 H10         1.7838   -3.2360   -6.3566 H         1 <0>         0.0828
     43 H11         0.9120   -1.8286   -5.6706 H         1 <0>         0.0768
     44 H12         2.7663   -1.4197   -7.5940 H         1 <0>         0.0710
     45 H13         2.7214   -0.3194   -6.1772 H         1 <0>         0.0713
     46 H14         4.5506   -2.7352   -6.6575 H         1 <0>         0.0696
     47 H15         5.0050   -1.0867   -6.1232 H         1 <0>         0.0690
     48 H16         4.3401   -1.4844   -3.9188 H         1 <0>         0.0802
     49 H17         4.6064   -3.1945   -4.3639 H         1 <0>         0.0673
     50 H18         1.8348   -5.8003   -2.0903 H         1 <0>         0.0927
     51 H19         1.1615   -4.6410   -0.9194 H         1 <0>         0.0916
     52 H20        -1.1718   -3.9857   -1.0203 H         1 <0>         0.1126
     53 H21        -3.4527   -4.6226   -1.6862 H         1 <0>         0.1142
     54 H22        -1.8317   -7.4283   -4.4914 H         1 <0>         0.1145
     55 H23         0.4417   -6.7712   -3.8197 H         1 <0>         0.1139
     56 H24        -4.8516   -6.7514   -1.5259 H         1 <0>         0.1200
     57 H25        -7.1244   -7.3938   -2.2027 H         1 <0>         0.1168
     58 H26        -7.7384   -7.4672   -4.5820 H         1 <0>         0.1182
     59 H27        -6.0856   -6.8988   -6.3085 H         1 <0>         0.1288
@<TRIPOS>BOND
     1    1    2 1
     2    1   33 1
     3    1   34 1
     4    1   35 1
     5    2    3 1
     6    2   36 1
     7    2   37 1
     8    3    4 1
     9    3   38 1
    10    3   39 1
    11    4    5 1
    12    4   40 1
    13    4   41 1
    14    5   14 1
    15    5    6 2
    16    6    7 1
    17    7   11 1
    18    7    8 1
    19    7   12 1
    20    8    9 1
    21    8   42 1
    22    8   43 1
    23    9   10 1
    24    9   44 1
    25    9   45 1
    26   10   11 1
    27   10   46 1
    28   10   47 1
    29   11   48 1
    30   11   49 1
    31   12   13 2
    32   12   14 am
    33   14   15 1
    34   15   16 1
    35   15   50 1
    36   15   51 1
    37   16   21 ar
    38   16   17 ar
    39   17   18 ar
    40   17   52 1
    41   18   19 ar
    42   18   53 1
    43   19   20 ar
    44   19   22 1
    45   20   21 ar
    46   20   54 1
    47   21   55 1
    48   22   27 ar
    49   22   23 ar
    50   23   24 ar
    51   23   56 1
    52   24   25 ar
    53   24   57 1
    54   25   26 ar
    55   25   58 1
    56   26   27 ar
    57   26   59 1
    58   27   28 1
    59   28   32 2
    60   28   29 1
    61   29   30 1
    62   30   31 2
    63   31   32 1
@<TRIPOS>MOLECULE
ZINC03783066
   69    73     0     0     0
SMALL
USER_CHARGES

@<TRIPOS>ATOM
      1 C1         -0.2101    1.4175   -4.4385 C.3       1 <0>        -0.1032
      2 C2         -0.1304    0.0033   -3.9241 C.ar      1 <0>        -0.0980
      3 C3          0.5410   -0.9602   -4.6513 C.ar      1 <0>        -0.0941
      4 C4          0.6141   -2.2580   -4.1803 C.ar      1 <0>        -0.1139
      5 C5          0.0161   -2.5962   -2.9800 C.ar      1 <0>        -0.0938
      6 C6         -0.6564   -1.6379   -2.2477 C.ar      1 <0>        -0.1193
      7 C7         -0.7273   -0.3316   -2.7155 C.ar      1 <0>         0.1758
      8 N1         -1.4021    0.6415   -1.9748 N.pl3     1 <0>        -0.6867
      9 C8         -0.6798    1.4341   -0.9767 C.3       1 <0>         0.1172
     10 C9         -2.8323    0.8694   -2.1960 C.3       1 <0>         0.1183
     11 C10         1.3467   -3.3067   -4.9770 C.3       1 <0>         0.1474
     12 N2          2.7527   -3.3381   -4.5665 N.pl3     1 <0>        -0.4464
     13 C11         3.7775   -2.6802   -5.1560 C.2       1 <0>         0.1635
     14 N3          4.8801   -2.9513   -4.5073 N.2       1 <0>        -0.4772
     15 C12         4.6007   -3.7784   -3.4977 C.2       1 <0>        -0.0264
     16 C13         3.2742   -4.0305   -3.5158 C.2       1 <0>         0.0117
     17 C14         2.5550   -4.9247   -2.5403 C.3       1 <0>        -0.0457
     18 C15         3.4421   -5.1232   -1.3045 C.3       1 <0>         0.0858
     19 H1          3.4285   -4.2183   -0.6970 H         1 <0>         0.0631
     20 N4          4.8186   -5.4024   -1.7400 N.am      1 <0>        -0.5941
     21 C16         5.5502   -4.3574   -2.4758 C.3       1 <0>         0.2048
     22 C17         5.3982   -6.5903   -1.4767 C.2       1 <0>         0.5028
     23 O1          4.7536   -7.4784   -0.9603 O.2       1 <0>        -0.4450
     24 C18         6.8474   -6.8150   -1.8238 C.3       1 <0>        -0.0317
     25 C19         7.7019   -5.8204   -1.0811 C.ar      1 <0>        -0.0647
     26 C20         7.4999   -5.6083    0.2698 C.ar      1 <0>        -0.1008
     27 C21         8.2837   -4.6959    0.9510 C.ar      1 <0>        -0.1149
     28 C22         9.2698   -3.9959    0.2814 C.ar      1 <0>        -0.1231
     29 C23         9.4724   -4.2086   -1.0694 C.ar      1 <0>        -0.1197
     30 C24         8.6914   -5.1241   -1.7497 C.ar      1 <0>        -0.1111
     31 C25         7.2472   -8.2136   -1.4299 C.ar      1 <0>        -0.0567
     32 C26         7.0645   -8.6443   -0.1292 C.ar      1 <0>        -0.0721
     33 C27         7.4312   -9.9272    0.2321 C.ar      1 <0>        -0.1224
     34 C28         7.9803  -10.7796   -0.7075 C.ar      1 <0>        -0.1225
     35 C29         8.1623  -10.3492   -2.0085 C.ar      1 <0>        -0.1287
     36 C30         7.7915   -9.0677   -2.3708 C.ar      1 <0>        -0.1114
     37 C31         2.9237   -6.2825   -0.4931 C.2       1 <0>         0.5181
     38 O2          2.6297   -7.3294   -1.0445 O.co2     1 <0>        -0.6612
     39 O3          2.7984   -6.1736    0.7148 O.co2     1 <0>        -0.7014
     40 H2          0.6424    1.9872   -4.0687 H         1 <0>         0.0652
     41 H3         -0.1962    1.4091   -5.5284 H         1 <0>         0.0606
     42 H4         -1.1341    1.8792   -4.0905 H         1 <0>         0.0670
     43 H5          1.0091   -0.6994   -5.5890 H         1 <0>         0.1214
     44 H6          0.0747   -3.6110   -2.6151 H         1 <0>         0.1287
     45 H7         -1.1235   -1.9027   -1.3107 H         1 <0>         0.1252
     46 H8          0.1251    1.9849   -1.4633 H         1 <0>         0.0392
     47 H9         -1.3666    2.1364   -0.5041 H         1 <0>         0.0644
     48 H10        -0.2607    0.7709   -0.2200 H         1 <0>         0.0421
     49 H11        -3.4097    0.2251   -1.5331 H         1 <0>         0.0336
     50 H12        -3.0705    1.9124   -1.9872 H         1 <0>         0.0561
     51 H13        -3.0807    0.6404   -3.2324 H         1 <0>         0.0530
     52 H14         0.8939   -4.2818   -4.7972 H         1 <0>         0.0997
     53 H15         1.2833   -3.0669   -6.0383 H         1 <0>         0.1013
     54 H16         3.6980   -2.0372   -6.0201 H         1 <0>         0.1997
     55 H17         1.6144   -4.4603   -2.2440 H         1 <0>         0.0714
     56 H18         2.3571   -5.8898   -3.0068 H         1 <0>         0.0908
     57 H19         6.4188   -4.7847   -2.9768 H         1 <0>         0.0877
     58 H20         5.8670   -3.5795   -1.7811 H         1 <0>         0.0703
     59 H21         6.9883   -6.6854   -2.8968 H         1 <0>         0.1021
     60 H22         6.7295   -6.1552    0.7930 H         1 <0>         0.1248
     61 H23         8.1254   -4.5297    2.0064 H         1 <0>         0.1210
     62 H24         9.8817   -3.2825    0.8134 H         1 <0>         0.1180
     63 H25        10.2426   -3.6614   -1.5927 H         1 <0>         0.1200
     64 H26         8.8522   -5.2930   -2.8042 H         1 <0>         0.1217
     65 H27         6.6355   -7.9784    0.6049 H         1 <0>         0.1227
     66 H28         7.2891  -10.2635    1.2485 H         1 <0>         0.1191
     67 H29         8.2675  -11.7817   -0.4251 H         1 <0>         0.1162
     68 H30         8.5916  -11.0150   -2.7425 H         1 <0>         0.1172
     69 H31         7.9302   -8.7327   -3.3881 H         1 <0>         0.1174
@<TRIPOS>BOND
     1    1    2 1
     2    1   40 1
     3    1   41 1
     4    1   42 1
     5    2    7 ar
     6    2    3 ar
     7    3    4 ar
     8    3   43 1
     9    4    5 ar
    10    4   11 1
    11    5    6 ar
    12    5   44 1
    13    6    7 ar
    14    6   45 1
    15    7    8 1
    16    8    9 1
    17    8   10 1
    18    9   46 1
    19    9   47 1
    20    9   48 1
    21   10   49 1
    22   10   50 1
    23   10   51 1
    24   11   12 1
    25   11   52 1
    26   11   53 1
    27   12   16 1
    28   12   13 1
    29   13   14 2
    30   13   54 1
    31   14   15 1
    32   15   21 1
    33   15   16 2
    34   16   17 1
    35   17   18 1
    36   17   55 1
    37   17   56 1
    38   18   19 1
    39   18   20 1
    40   18   37 1
    41   20   21 1
    42   20   22 am
    43   21   57 1
    44   21   58 1
    45   22   23 2
    46   22   24 1
    47   24   25 1
    48   24   31 1
    49   24   59 1
    50   25   30 ar
    51   25   26 ar
    52   26   27 ar
    53   26   60 1
    54   27   28 ar
    55   27   61 1
    56   28   29 ar
    57   28   62 1
    58   29   30 ar
    59   29   63 1
    60   30   64 1
    61   31   36 ar
    62   31   32 ar
    63   32   33 ar
    64   32   65 1
    65   33   34 ar
    66   33   66 1
    67   34   35 ar
    68   34   67 1
    69   35   36 ar
    70   35   68 1
    71   36   69 1
    72   37   38 2
    73   37   39 1
@<TRIPOS>MOLECULE
ZINC13298439
   52    55     0     0     0
SMALL
USER_CHARGES

@<TRIPOS>ATOM
      1 C1         -0.0187    1.5258    0.0104 C.3       1 <0>        -0.1520
      2 C2          0.0021   -0.0041    0.0020 C.3       1 <0>        -0.1243
      3 C3         -1.4333   -0.5336    0.0129 C.3       1 <0>        -0.1132
      4 C4         -1.4126   -2.0635    0.0045 C.3       1 <0>        -0.0387
      5 C5         -2.8264   -2.5851    0.0152 C.2       1 <0>         0.2364
      6 N1         -3.5317   -2.8487    1.0813 N.2       1 <0>        -0.4833
      7 C6         -4.7425   -3.2933    0.7126 C.2       1 <0>         0.0724
      8 C7         -4.7893   -3.3058   -0.6341 C.2       1 <0>         0.0070
      9 N2         -3.5749   -2.8515   -1.0765 N.pl3     1 <0>        -0.4283
     10 C8         -3.1642   -2.6880   -2.4732 C.3       1 <0>         0.1504
     11 C9         -2.5320   -3.9650   -2.9637 C.ar      1 <0>        -0.1207
     12 C10        -1.1697   -4.1584   -2.8210 C.ar      1 <0>        -0.1279
     13 C11        -0.5852   -5.3258   -3.2683 C.ar      1 <0>        -0.1070
     14 C12        -1.3705   -6.3112   -3.8649 C.ar      1 <0>        -0.0343
     15 C13        -2.7429   -6.1106   -4.0060 C.ar      1 <0>         0.0104
     16 C14        -3.3171   -4.9416   -3.5498 C.ar      1 <0>        -0.0911
     17 C15        -0.7486   -7.5670   -4.3478 C.ar      1 <0>        -0.0450
     18 C16         0.3817   -7.5216   -5.1593 C.ar      1 <0>        -0.1084
     19 C17         0.9577   -8.6934   -5.6068 C.ar      1 <0>        -0.1383
     20 C18         0.4183   -9.9190   -5.2536 C.ar      1 <0>        -0.1199
     21 C19        -0.7015   -9.9834   -4.4501 C.ar      1 <0>        -0.1062
     22 C20        -1.2929   -8.8103   -3.9843 C.ar      1 <0>         0.0581
     23 C21        -2.4897   -8.8737   -3.1184 C.2       1 <0>         0.0616
     24 N3         -3.1640   -7.8399   -2.6109 N.2       1 <0>        -0.3452
     25 N4         -4.1379   -8.3174   -1.9140 N.2       1 <0>        -0.1738
     26 N5         -4.1044   -9.6030   -1.9618 N.2       1 <0>        -0.1968
     27 N6         -3.1117   -9.9760   -2.6951 N.2       1 <0>        -0.3674
     28 C22        -5.9547   -3.7328   -1.4888 C.3       1 <0>         0.1509
     29 O1         -5.8570   -5.1318   -1.7630 O.3       1 <0>        -0.5319
     30 Cl1        -6.0238   -3.7700    1.7825 Cl        1 <0>        -0.0161
     31 H1          1.0039    1.9031    0.0027 H         1 <0>         0.0535
     32 H2         -0.5459    1.8868   -0.8726 H         1 <0>         0.0526
     33 H3         -0.5289    1.8773    0.9072 H         1 <0>         0.0538
     34 H4          0.5123   -0.3556   -0.8948 H         1 <0>         0.0633
     35 H5          0.5293   -0.3651    0.8851 H         1 <0>         0.0653
     36 H6         -1.9435   -0.1821    0.9097 H         1 <0>         0.0707
     37 H7         -1.9605   -0.1726   -0.8702 H         1 <0>         0.0600
     38 H8         -0.9024   -2.4150   -0.8923 H         1 <0>         0.0847
     39 H9         -0.8854   -2.4246    0.8875 H         1 <0>         0.0966
     40 H10        -4.0369   -2.4567   -3.0839 H         1 <0>         0.0952
     41 H11        -2.4431   -1.8739   -2.5470 H         1 <0>         0.0983
     42 H12        -0.5623   -3.3942   -2.3590 H         1 <0>         0.1109
     43 H13         0.4786   -5.4755   -3.1566 H         1 <0>         0.1139
     44 H14        -3.3562   -6.8705   -4.4674 H         1 <0>         0.1153
     45 H15        -4.3808   -4.7869   -3.6546 H         1 <0>         0.1143
     46 H16         0.8076   -6.5694   -5.4391 H         1 <0>         0.1193
     47 H17         1.8342   -8.6542   -6.2365 H         1 <0>         0.1164
     48 H18         0.8767  -10.8298   -5.6096 H         1 <0>         0.1178
     49 H19        -1.1173  -10.9425   -4.1788 H         1 <0>         0.1287
     50 H20        -6.8863   -3.5303   -0.9604 H         1 <0>         0.0664
     51 H21        -5.9406   -3.1769   -2.4263 H         1 <0>         0.0471
     52 H22        -6.5760   -5.4766   -2.3100 H         1 <0>         0.3784
@<TRIPOS>BOND
     1    1    2 1
     2    1   31 1
     3    1   32 1
     4    1   33 1
     5    2    3 1
     6    2   34 1
     7    2   35 1
     8    3    4 1
     9    3   36 1
    10    3   37 1
    11    4    5 1
    12    4   38 1
    13    4   39 1
    14    5    9 1
    15    5    6 2
    16    6    7 1
    17    7    8 2
    18    7   30 1
    19    8    9 1
    20    8   28 1
    21    9   10 1
    22   10   11 1
    23   10   40 1
    24   10   41 1
    25   11   16 ar
    26   11   12 ar
    27   12   13 ar
    28   12   42 1
    29   13   14 ar
    30   13   43 1
    31   14   15 ar
    32   14   17 1
    33   15   16 ar
    34   15   44 1
    35   16   45 1
    36   17   22 ar
    37   17   18 ar
    38   18   19 ar
    39   18   46 1
    40   19   20 ar
    41   19   47 1
    42   20   21 ar
    43   20   48 1
    44   21   22 ar
    45   21   49 1
    46   22   23 1
    47   23   27 2
    48   23   24 1
    49   24   25 1
    50   25   26 2
    51   26   27 1
    52   28   29 1
    53   28   50 1
    54   28   51 1
    55   29   52 1
@<TRIPOS>MOLECULE
ZINC01889710
   59    61     0     0     0
SMALL
USER_CHARGES
2-[[4-[[2-butyl-4-chloro-5-(methoxycarbonylmethyl)imidazol-1-yl]methyl]phenyl]carbamoyl]benzoic acid
@<TRIPOS>ATOM
      1 C1          7.1340   -6.5597    1.5735 C.3       1 <0>        -0.1513
      2 C2          6.2150   -5.3956    1.9492 C.3       1 <0>        -0.1272
      3 C3          7.0535   -4.1356    2.1732 C.3       1 <0>        -0.1108
      4 C4          6.1345   -2.9715    2.5488 C.3       1 <0>        -0.0451
      5 C5          6.9445   -1.7048    2.6512 C.2       1 <0>         0.2510
      6 N1          7.6082   -1.3094    3.7033 N.2       1 <0>        -0.4781
      7 C6          8.2045   -0.1377    3.4362 C.2       1 <0>         0.0774
      8 C7          7.9028    0.2036    2.1680 C.2       1 <0>        -0.0002
      9 N2          7.1058   -0.7926    1.6689 N.pl3     1 <0>        -0.4305
     10 C8          6.5307   -0.8537    0.3229 C.3       1 <0>         0.1480
     11 C9          5.1767   -0.1922    0.3247 C.ar      1 <0>        -0.1488
     12 C10         5.0574    1.1364   -0.0398 C.ar      1 <0>        -0.0714
     13 C11         3.8180    1.7457   -0.0388 C.ar      1 <0>        -0.1530
     14 C12         2.6906    1.0225    0.3288 C.ar      1 <0>         0.1831
     15 C13         2.8146   -0.3104    0.6994 C.ar      1 <0>        -0.1149
     16 C14         4.0562   -0.9151    0.6912 C.ar      1 <0>        -0.0779
     17 N3          1.4343    1.6365    0.3314 N.am      1 <0>        -0.6785
     18 C15         0.3323    0.9175    0.0398 C.2       1 <0>         0.5771
     19 O1          0.4381   -0.2408   -0.3131 O.2       1 <0>        -0.4715
     20 C16        -1.0056    1.5398    0.1435 C.ar      1 <0>        -0.1060
     21 C17        -1.2957    2.6995   -0.5700 C.ar      1 <0>        -0.1105
     22 C18        -2.5490    3.2745   -0.4742 C.ar      1 <0>        -0.1295
     23 C19        -3.5182    2.7106    0.3365 C.ar      1 <0>        -0.1178
     24 C20        -3.2466    1.5627    1.0567 C.ar      1 <0>        -0.0828
     25 C21        -1.9912    0.9663    0.9685 C.ar      1 <0>        -0.0678
     26 C22        -1.6954   -0.2612    1.7372 C.2       1 <0>         0.4822
     27 O2         -0.5715   -0.7215    1.7375 O.co2     1 <0>        -0.6024
     28 C23         8.3547    1.4429    1.4393 C.3       1 <0>        -0.0359
     29 C24         7.3527    2.5472    1.6571 C.2       1 <0>         0.4505
     30 O3          6.3722    2.3484    2.3346 O.2       1 <0>        -0.4698
     31 O4          7.5494    3.7518    1.0985 O.3       1 <0>        -0.3623
     32 C25         6.5433    4.7678    1.3509 C.3       1 <0>         0.0364
     33 Cl1         9.1910    0.7783    4.5323 Cl        1 <0>        -0.0170
     34 H1          7.8457   -6.7356    2.3801 H         1 <0>         0.0534
     35 H2          6.5366   -7.4573    1.4139 H         1 <0>         0.0547
     36 H3          7.6744   -6.3155    0.6589 H         1 <0>         0.0519
     37 H4          5.6746   -5.6398    2.8637 H         1 <0>         0.0673
     38 H5          5.5032   -5.2197    1.1426 H         1 <0>         0.0651
     39 H6          7.5939   -3.8914    1.2586 H         1 <0>         0.0600
     40 H7          7.7653   -4.3115    2.9798 H         1 <0>         0.0719
     41 H8          5.6602   -3.1780    3.5083 H         1 <0>         0.1012
     42 H9          5.3682   -2.8518    1.7830 H         1 <0>         0.0869
     43 H10         6.4258   -1.8954    0.0195 H         1 <0>         0.1070
     44 H11         7.1871   -0.3359   -0.3765 H         1 <0>         0.0981
     45 H12         5.9344    1.6981   -0.3258 H         1 <0>         0.1086
     46 H13         3.7255    2.7833   -0.3238 H         1 <0>         0.1206
     47 H14         1.9405   -0.8743    0.9900 H         1 <0>         0.1584
     48 H15         4.1527   -1.9526    0.9752 H         1 <0>         0.1236
     49 H16         1.3560    2.5799    0.5429 H         1 <0>         0.4057
     50 H17        -0.5427    3.1477   -1.2013 H         1 <0>         0.1206
     51 H18        -2.7718    4.1718   -1.0324 H         1 <0>         0.1214
     52 H19        -4.4928    3.1705    0.4072 H         1 <0>         0.1219
     53 H20        -4.0077    1.1285    1.6881 H         1 <0>         0.1377
     54 H21         9.3272    1.7543    1.8205 H         1 <0>         0.1283
     55 H22         8.4338    1.2291    0.3734 H         1 <0>         0.1140
     56 H23         6.4723    4.9503    2.4232 H         1 <0>         0.0633
     57 H24         6.8234    5.6907    0.8431 H         1 <0>         0.1007
     58 H25         5.5788    4.4251    0.9761 H         1 <0>         0.0641
     59 O5         -2.6725   -0.8694    2.4372 O.co2     1 <0>        -0.7507
@<TRIPOS>BOND
     1    1    2 1
     2    1   34 1
     3    1   35 1
     4    1   36 1
     5    2    3 1
     6    2   37 1
     7    2   38 1
     8    3    4 1
     9    3   39 1
    10    3   40 1
    11    4    5 1
    12    4   41 1
    13    4   42 1
    14    5    9 1
    15    5    6 2
    16    6    7 1
    17    7    8 2
    18    7   33 1
    19    8    9 1
    20    8   28 1
    21    9   10 1
    22   10   11 1
    23   10   43 1
    24   10   44 1
    25   11   16 ar
    26   11   12 ar
    27   12   13 ar
    28   12   45 1
    29   13   14 ar
    30   13   46 1
    31   14   15 ar
    32   14   17 1
    33   15   16 ar
    34   15   47 1
    35   16   48 1
    36   17   18 am
    37   17   49 1
    38   18   19 2
    39   18   20 1
    40   20   25 ar
    41   20   21 ar
    42   21   22 ar
    43   21   50 1
    44   22   23 ar
    45   22   51 1
    46   23   24 ar
    47   23   52 1
    48   24   25 ar
    49   24   53 1
    50   25   26 1
    51   26   27 2
    52   26   59 1
    53   28   29 1
    54   28   54 1
    55   28   55 1
    56   29   30 2
    57   29   31 1
    58   31   32 1
    59   32   56 1
    60   32   57 1
    61   32   58 1
@<TRIPOS>MOLECULE
ZINC36222118
   50    54     0     0     0
SMALL
USER_CHARGES

@<TRIPOS>ATOM
      1 C1         -0.0187    1.5258    0.0104 C.3       1 <0>        -0.1459
      2 C2          0.0021   -0.0041    0.0020 C.3       1 <0>        -0.0524
      3 C3          0.7074   -0.4901   -1.2379 C.2       1 <0>         0.3040
      4 N1          0.1288   -0.7348   -2.3772 N.2       1 <0>        -0.4865
      5 C4          1.0556   -1.1543   -3.2748 C.ar      1 <0>        -0.0026
      6 C5          0.9983   -1.5447   -4.6164 C.ar      1 <0>         0.0108
      7 C6          2.1739   -1.9222   -5.2364 C.ar      1 <0>        -0.1913
      8 C7          3.3609   -1.9035   -4.5208 C.ar      1 <0>         0.1608
      9 N2          3.3938   -1.5328   -3.2576 N.ar      1 <0>        -0.4808
     10 C8          2.2977   -1.1613   -2.6156 C.ar      1 <0>         0.2555
     11 N3          2.0438   -0.7314   -1.3309 N.pl3     1 <0>        -0.4673
     12 C9          3.0309   -0.5668   -0.2610 C.3       1 <0>         0.2090
     13 C10         3.1547   -1.8553    0.5108 C.2       1 <0>        -0.2572
     14 C11         3.9928   -2.9024    0.2956 C.2       1 <0>        -0.1256
     15 C12         3.9348   -3.9919    1.1354 C.2       1 <0>        -0.1712
     16 C13         3.0294   -3.9828    2.1644 C.2       1 <0>        -0.0995
     17 S1          2.2430   -2.3946    1.9478 S.3       1 <0>         0.2475
     18 C14         2.7744   -5.0148    3.1878 C.ar      1 <0>        -0.0073
     19 C15         2.5794   -6.3439    2.8114 C.ar      1 <0>        -0.0973
     20 C16         2.3414   -7.3045    3.7721 C.ar      1 <0>        -0.1346
     21 C17         2.2942   -6.9595    5.1132 C.ar      1 <0>        -0.1147
     22 C18         2.4841   -5.6505    5.5055 C.ar      1 <0>        -0.1033
     23 C19         2.7322   -4.6658    4.5508 C.ar      1 <0>         0.0574
     24 C20         2.9433   -3.2635    4.9663 C.2       1 <0>         0.0688
     25 N4          2.9313   -2.7894    6.2142 N.2       1 <0>        -0.3608
     26 N5          3.1560   -1.5216    6.1488 N.2       1 <0>        -0.1881
     27 N6          3.3081   -1.1797    4.9175 N.2       1 <0>        -0.1838
     28 N7          3.1895   -2.2220    4.1682 N.2       1 <0>        -0.3548
     29 C21         4.6401   -2.3163   -5.2022 C.3       1 <0>        -0.0988
     30 C22        -0.3096   -1.5540   -5.3650 C.3       1 <0>        -0.1089
     31 H1          1.0039    1.9031    0.0027 H         1 <0>         0.0560
     32 H2         -0.5459    1.8868   -0.8726 H         1 <0>         0.0635
     33 H3         -0.5289    1.8773    0.9072 H         1 <0>         0.0728
     34 H4          0.5293   -0.3651    0.8851 H         1 <0>         0.0876
     35 H5         -1.0205   -0.3814    0.0098 H         1 <0>         0.1042
     36 H6          2.1680   -2.2302   -6.2715 H         1 <0>         0.1386
     37 H7          3.9971   -0.3088   -0.6946 H         1 <0>         0.1079
     38 H8          2.7097    0.2295    0.4104 H         1 <0>         0.1044
     39 H9          4.6955   -2.8807   -0.5242 H         1 <0>         0.1185
     40 H10         4.5898   -4.8376    0.9859 H         1 <0>         0.1206
     41 H11         2.6143   -6.6205    1.7681 H         1 <0>         0.1220
     42 H12         2.1905   -8.3324    3.4770 H         1 <0>         0.1204
     43 H13         2.1070   -7.7204    5.8564 H         1 <0>         0.1213
     44 H14         2.4451   -5.3897    6.5528 H         1 <0>         0.1320
     45 H15         5.1080   -1.4429   -5.6565 H         1 <0>         0.0770
     46 H16         5.3186   -2.7515   -4.4685 H         1 <0>         0.0766
     47 H17         4.4190   -3.0530   -5.9745 H         1 <0>         0.0757
     48 H18        -0.4659   -0.5833   -5.8355 H         1 <0>         0.0749
     49 H19        -0.2843   -2.3292   -6.1309 H         1 <0>         0.0690
     50 H20        -1.1246   -1.7564   -4.6700 H         1 <0>         0.0759
@<TRIPOS>BOND
     1    1    2 1
     2    1   31 1
     3    1   32 1
     4    1   33 1
     5    2    3 1
     6    2   34 1
     7    2   35 1
     8    3   11 1
     9    3    4 2
    10    4    5 1
    11    5   10 ar
    12    5    6 ar
    13    6    7 ar
    14    6   30 1
    15    7    8 ar
    16    7   36 1
    17    8    9 ar
    18    8   29 1
    19    9   10 ar
    20   10   11 1
    21   11   12 1
    22   12   13 1
    23   12   37 1
    24   12   38 1
    25   13   17 1
    26   13   14 2
    27   14   15 1
    28   14   39 1
    29   15   16 2
    30   15   40 1
    31   16   17 1
    32   16   18 1
    33   18   23 ar
    34   18   19 ar
    35   19   20 ar
    36   19   41 1
    37   20   21 ar
    38   20   42 1
    39   21   22 ar
    40   21   43 1
    41   22   23 ar
    42   22   44 1
    43   23   24 1
    44   24   25 1
    45   24   28 2
    46   25   26 1
    47   26   27 2
    48   27   28 1
    49   29   45 1
    50   29   46 1
    51   29   47 1
    52   30   48 1
    53   30   49 1
    54   30   50 1
@<TRIPOS>MOLECULE
ZINC03918293
   77    80     0     0     0
SMALL
USER_CHARGES

@<TRIPOS>ATOM
      1 C1          0.0376    1.5380    0.0199 C.3       1 <0>        -0.1497
      2 C2          0.0530    0.0081    0.0098 C.3       1 <0>        -0.1205
      3 C3          0.7884   -0.5027    1.2504 C.3       1 <0>        -0.1237
      4 C4          0.8038   -2.0326    1.2403 C.3       1 <0>         0.0815
      5 O1          1.4906   -2.5097    2.3990 O.3       1 <0>        -0.3327
      6 C5          1.5937   -3.8485    2.5427 C.2       1 <0>         0.6373
      7 O2          2.2306   -4.3653    3.6154 O.3       1 <0>        -0.6932
      8 N1          1.0803   -4.6388    1.6495 N.2       1 <0>        -1.1080
      9 S1          1.2067   -6.2805    1.8258 S.o2      1 <0>         2.7087
     10 O3          2.5873   -6.5963    1.7100 O.2       1 <0>        -0.9885
     11 O4          0.4395   -6.6262    2.9708 O.2       1 <0>        -0.9872
     12 C6          0.4038   -7.0165    0.4407 C.2       1 <0>        -0.6890
     13 C7          0.2415   -8.3408    0.1438 C.2       1 <0>         0.0305
     14 C8         -0.4373   -8.6812   -1.0224 C.2       1 <0>        -0.1670
     15 C9         -0.9106   -7.6955   -1.8177 C.2       1 <0>        -0.1348
     16 S2         -0.4151   -6.2260   -0.9343 S.3       1 <0>         0.1799
     17 C10        -1.6679   -7.8088   -3.1156 C.3       1 <0>        -0.0331
     18 C11        -3.1697   -7.8580   -2.8273 C.3       1 <0>        -0.0941
     19 C12        -3.9431   -7.8472   -4.1473 C.3       1 <0>        -0.1458
     20 C13        -3.4988   -9.1363   -2.0537 C.3       1 <0>        -0.1523
     21 C14         0.7772   -9.3914    1.0440 C.ar      1 <0>        -0.0478
     22 C15         2.0986   -9.3296    1.4824 C.ar      1 <0>        -0.1177
     23 C16         2.5915  -10.3094    2.3201 C.ar      1 <0>        -0.0800
     24 C17         1.7767  -11.3516    2.7243 C.ar      1 <0>        -0.1200
     25 C18         0.4645  -11.4182    2.2919 C.ar      1 <0>        -0.1053
     26 C19        -0.0408  -10.4405    1.4590 C.ar      1 <0>        -0.0979
     27 C20         2.3209  -12.4187    3.6387 C.3       1 <0>         0.1576
     28 N2          2.2092  -11.9732    5.0299 N.pl3     1 <0>        -0.4722
     29 C21         1.1989  -12.2708    5.8922 C.2       1 <0>         0.2922
     30 N3          1.4171  -11.7116    7.0465 N.2       1 <0>        -0.4801
     31 C22         2.5823  -11.0181    7.0006 C.ar      1 <0>        -0.0043
     32 C23         3.1108  -11.1808    5.7073 C.ar      1 <0>         0.2563
     33 N4          4.2585  -10.6110    5.3770 N.ar      1 <0>        -0.4849
     34 C24         4.9398   -9.8829    6.2375 C.ar      1 <0>         0.1713
     35 C25         4.4844   -9.6804    7.5305 C.ar      1 <0>        -0.1873
     36 C26         3.2873  -10.2454    7.9281 C.ar      1 <0>         0.0136
     37 C27         2.7646  -10.0473    9.3276 C.3       1 <0>        -0.1091
     38 C28         6.2417   -9.2576    5.8072 C.3       1 <0>        -0.1030
     39 C29         0.0017  -13.1230    5.5583 C.3       1 <0>        -0.0475
     40 C30         0.2654  -14.5659    5.9936 C.3       1 <0>        -0.1454
     41 H1          1.0615    1.9117    0.0149 H         1 <0>         0.0535
     42 H2         -0.4863    1.9019   -0.8640 H         1 <0>         0.0520
     43 H3         -0.4734    1.8903    0.9159 H         1 <0>         0.0535
     44 H4         -0.9710   -0.3656    0.0148 H         1 <0>         0.0638
     45 H5          0.5639   -0.3442   -0.8863 H         1 <0>         0.0639
     46 H6          1.8123   -0.1290    1.2454 H         1 <0>         0.0682
     47 H7          0.2774   -0.1504    2.1464 H         1 <0>         0.0681
     48 H8         -0.2202   -2.4063    1.2453 H         1 <0>         0.0610
     49 H9          1.3147   -2.3849    0.3442 H         1 <0>         0.0614
     50 H10        -0.5837   -9.7177   -1.2884 H         1 <0>         0.1365
     51 H11        -1.4464   -6.9448   -3.7421 H         1 <0>         0.0823
     52 H12        -1.3673   -8.7196   -3.6334 H         1 <0>         0.0868
     53 H13        -3.4541   -6.9900   -2.2325 H         1 <0>         0.0756
     54 H14        -3.6587   -8.7152   -4.7421 H         1 <0>         0.0553
     55 H15        -5.0130   -7.8823   -3.9419 H         1 <0>         0.0571
     56 H16        -3.7086   -6.9365   -4.6984 H         1 <0>         0.0561
     57 H17        -4.5687   -9.1714   -1.8483 H         1 <0>         0.0547
     58 H18        -3.2144  -10.0043   -2.6485 H         1 <0>         0.0543
     59 H19        -2.9478   -9.1440   -1.1133 H         1 <0>         0.0607
     60 H20         2.7358   -8.5168    1.1668 H         1 <0>         0.1599
     61 H21         3.6154  -10.2625    2.6604 H         1 <0>         0.1343
     62 H22        -0.1672  -12.2343    2.6104 H         1 <0>         0.1247
     63 H23        -1.0669  -10.4909    1.1259 H         1 <0>         0.1270
     64 H24         1.7503  -13.3377    3.5046 H         1 <0>         0.1017
     65 H25         3.3681  -12.6030    3.3992 H         1 <0>         0.1024
     66 H26         5.0580   -9.0799    8.2211 H         1 <0>         0.1419
     67 H27         3.1490  -10.8363    9.9741 H         1 <0>         0.0744
     68 H28         3.0913   -9.0779    9.7037 H         1 <0>         0.0717
     69 H29         1.6752  -10.0847    9.3173 H         1 <0>         0.0760
     70 H30         6.0500   -8.2675    5.3936 H         1 <0>         0.0860
     71 H31         6.9045   -9.1697    6.6680 H         1 <0>         0.0766
     72 H32         6.7121   -9.8834    5.0488 H         1 <0>         0.0759
     73 H33        -0.8743  -12.7399    6.0817 H         1 <0>         0.1027
     74 H34        -0.1761  -13.0945    4.4833 H         1 <0>         0.0845
     75 H35         1.0861  -14.9782    5.4067 H         1 <0>         0.0543
     76 H36         0.5299  -14.5838    7.0509 H         1 <0>         0.0651
     77 H37        -0.6320  -15.1635    5.8334 H         1 <0>         0.0691
@<TRIPOS>BOND
     1    1    2 1
     2    1   41 1
     3    1   42 1
     4    1   43 1
     5    2    3 1
     6    2   44 1
     7    2   45 1
     8    3    4 1
     9    3   46 1
    10    3   47 1
    11    4    5 1
    12    4   48 1
    13    4   49 1
    14    5    6 1
    15    6    7 1
    16    6    8 2
    17    8    9 1
    18    9   10 2
    19    9   11 2
    20    9   12 1
    21   12   16 1
    22   12   13 2
    23   13   14 1
    24   13   21 1
    25   14   15 2
    26   14   50 1
    27   15   16 1
    28   15   17 1
    29   17   18 1
    30   17   51 1
    31   17   52 1
    32   18   19 1
    33   18   20 1
    34   18   53 1
    35   19   54 1
    36   19   55 1
    37   19   56 1
    38   20   57 1
    39   20   58 1
    40   20   59 1
    41   21   26 ar
    42   21   22 ar
    43   22   23 ar
    44   22   60 1
    45   23   24 ar
    46   23   61 1
    47   24   25 ar
    48   24   27 1
    49   25   26 ar
    50   25   62 1
    51   26   63 1
    52   27   28 1
    53   27   64 1
    54   27   65 1
    55   28   32 1
    56   28   29 1
    57   29   30 2
    58   29   39 1
    59   30   31 1
    60   31   36 ar
    61   31   32 ar
    62   32   33 ar
    63   33   34 ar
    64   34   35 ar
    65   34   38 1
    66   35   36 ar
    67   35   66 1
    68   36   37 1
    69   37   67 1
    70   37   68 1
    71   37   69 1
    72   38   70 1
    73   38   71 1
    74   38   72 1
    75   39   40 1
    76   39   73 1
    77   39   74 1
    78   40   75 1
    79   40   76 1
    80   40   77 1
@<TRIPOS>MOLECULE
ZINC03778636
   63    67     0     0     0
SMALL
USER_CHARGES

@<TRIPOS>ATOM
      1 C1          3.7523    3.1341    2.3277 C.3       1 <0>        -0.1021
      2 C2          3.2298    1.8248    1.7951 C.ar      1 <0>        -0.1711
      3 C3          3.6181    1.3823    0.5457 C.ar      1 <0>        -0.0505
      4 C4          3.1388    0.1814    0.0560 C.ar      1 <0>        -0.1687
      5 C5          2.2696   -0.5810    0.8151 C.ar      1 <0>        -0.0503
      6 C6          1.8776   -0.1447    2.0652 C.ar      1 <0>        -0.1916
      7 C7          2.3615    1.0589    2.5624 C.ar      1 <0>         0.2249
      8 N1          1.9712    1.5007    3.8287 N.pl3     1 <0>        -0.8771
      9 C8          3.5640   -0.2978   -1.3081 C.3       1 <0>         0.1536
     10 N2          4.7753   -1.1124   -1.1839 N.pl3     1 <0>        -0.4445
     11 C9          6.0507   -0.6838   -1.3256 C.2       1 <0>         0.1625
     12 N3          6.8577   -1.6960   -1.1403 N.2       1 <0>        -0.4782
     13 C10         6.1359   -2.7877   -0.8781 C.2       1 <0>        -0.0247
     14 C11         4.8304   -2.4431   -0.8980 C.2       1 <0>         0.0125
     15 C12         3.6863   -3.3915   -0.6531 C.3       1 <0>        -0.0442
     16 C13         4.2248   -4.6454    0.0479 C.3       1 <0>         0.0850
     17 H1          4.4388   -4.4158    1.0917 H         1 <0>         0.0635
     18 N4          5.4592   -5.0793   -0.6232 N.am      1 <0>        -0.5956
     19 C14         6.6295   -4.1860   -0.5914 C.3       1 <0>         0.1978
     20 C15         5.5188   -6.2665   -1.2584 C.2       1 <0>         0.5078
     21 O1          4.5206   -6.9468   -1.3671 O.2       1 <0>        -0.4476
     22 C16         6.8256   -6.7486   -1.8335 C.3       1 <0>        -0.0311
     23 C17         6.8764   -8.2535   -1.7725 C.ar      1 <0>        -0.0667
     24 C18         5.8836   -9.0036   -2.3748 C.ar      1 <0>        -0.0749
     25 C19         5.9303  -10.3840   -2.3189 C.ar      1 <0>        -0.1250
     26 C20         6.9699  -11.0144   -1.6612 C.ar      1 <0>        -0.1220
     27 C21         7.9632  -10.2644   -1.0597 C.ar      1 <0>        -0.1303
     28 C22         7.9189   -8.8840   -1.1193 C.ar      1 <0>        -0.1116
     29 C23         6.9394   -6.2998   -3.2676 C.ar      1 <0>        -0.0631
     30 C24         8.0855   -5.6614   -3.7031 C.ar      1 <0>        -0.1093
     31 C25         8.1899   -5.2497   -5.0186 C.ar      1 <0>        -0.1216
     32 C26         7.1483   -5.4768   -5.8986 C.ar      1 <0>        -0.1240
     33 C27         6.0025   -6.1160   -5.4633 C.ar      1 <0>        -0.1184
     34 C28         5.8999   -6.5315   -4.1489 C.ar      1 <0>        -0.1002
     35 C29         3.1965   -5.7446   -0.0256 C.2       1 <0>         0.5189
     36 O2          2.6363   -5.9857   -1.0813 O.co2     1 <0>        -0.6624
     37 O3          2.9247   -6.3927    0.9707 O.co2     1 <0>        -0.7010
     38 H2          4.6794    2.9601    2.8739 H         1 <0>         0.0640
     39 H3          3.9419    3.8144    1.4975 H         1 <0>         0.0655
     40 H4          3.0135    3.5749    2.9971 H         1 <0>         0.0569
     41 H5          4.2967    1.9751   -0.0497 H         1 <0>         0.1196
     42 H6          1.8968   -1.5184    0.4295 H         1 <0>         0.1271
     43 H7          1.1986   -0.7403    2.6573 H         1 <0>         0.1241
     44 H8          2.3066    2.3432    4.1731 H         1 <0>         0.3964
     45 H9          1.3648    0.9650    4.3636 H         1 <0>         0.3986
     46 H10         2.7666   -0.8970   -1.7475 H         1 <0>         0.0960
     47 H11         3.7677    0.5611   -1.9476 H         1 <0>         0.0977
     48 H12         6.3527    0.3276   -1.5544 H         1 <0>         0.1985
     49 H13         2.9419   -2.9098   -0.0191 H         1 <0>         0.0712
     50 H14         3.2333   -3.6708   -1.6043 H         1 <0>         0.0900
     51 H15         7.3552   -4.4855   -1.3476 H         1 <0>         0.0893
     52 H16         7.0865   -4.2225    0.3975 H         1 <0>         0.0709
     53 H17         7.6518   -6.3335   -1.2562 H         1 <0>         0.0980
     54 H18         5.0714   -8.5111   -2.8886 H         1 <0>         0.1351
     55 H19         5.1542  -10.9700   -2.7888 H         1 <0>         0.1193
     56 H20         7.0060  -12.0929   -1.6169 H         1 <0>         0.1161
     57 H21         8.7753  -10.7569   -0.5456 H         1 <0>         0.1176
     58 H22         8.6969   -8.2981   -0.6526 H         1 <0>         0.1185
     59 H23         8.8993   -5.4840   -3.0156 H         1 <0>         0.1210
     60 H24         9.0851   -4.7504   -5.3588 H         1 <0>         0.1191
     61 H25         7.2296   -5.1545   -6.9262 H         1 <0>         0.1169
     62 H26         5.1886   -6.2931   -6.1507 H         1 <0>         0.1200
     63 H27         5.0062   -7.0342   -3.8096 H         1 <0>         0.1339
@<TRIPOS>BOND
     1    1    2 1
     2    1   38 1
     3    1   39 1
     4    1   40 1
     5    2    7 ar
     6    2    3 ar
     7    3    4 ar
     8    3   41 1
     9    4    5 ar
    10    4    9 1
    11    5    6 ar
    12    5   42 1
    13    6    7 ar
    14    6   43 1
    15    7    8 1
    16    8   44 1
    17    8   45 1
    18    9   10 1
    19    9   46 1
    20    9   47 1
    21   10   14 1
    22   10   11 1
    23   11   12 2
    24   11   48 1
    25   12   13 1
    26   13   19 1
    27   13   14 2
    28   14   15 1
    29   15   16 1
    30   15   49 1
    31   15   50 1
    32   16   17 1
    33   16   18 1
    34   16   35 1
    35   18   19 1
    36   18   20 am
    37   19   51 1
    38   19   52 1
    39   20   21 2
    40   20   22 1
    41   22   23 1
    42   22   29 1
    43   22   53 1
    44   23   28 ar
    45   23   24 ar
    46   24   25 ar
    47   24   54 1
    48   25   26 ar
    49   25   55 1
    50   26   27 ar
    51   26   56 1
    52   27   28 ar
    53   27   57 1
    54   28   58 1
    55   29   34 ar
    56   29   30 ar
    57   30   31 ar
    58   30   59 1
    59   31   32 ar
    60   31   60 1
    61   32   33 ar
    62   32   61 1
    63   33   34 ar
    64   33   62 1
    65   34   63 1
    66   35   36 2
    67   35   37 1
@<TRIPOS>MOLECULE
ZINC09061791
   64    68     0     0     0
SMALL
USER_CHARGES
N,N-diphenyl-N',N'-dipiperazin-5-yl-piperazine-1,4-dicarboxamide
@<TRIPOS>ATOM
      1 C1          0.4875   -0.1965    1.3221 C.ar      1 <0>        -0.1174
      2 C2          1.2911   -0.0226    2.4340 C.ar      1 <0>        -0.0942
      3 C3          1.4737    1.2391    2.9653 C.ar      1 <0>        -0.1283
      4 C4          0.8405    2.3321    2.3885 C.ar      1 <0>         0.1406
      5 C5          0.0299    2.1534    1.2752 C.ar      1 <0>        -0.1377
      6 C6         -0.1440    0.8900    0.7451 C.ar      1 <0>        -0.0968
      7 N1          1.0185    3.6117    2.9286 N.am      1 <0>        -0.5250
      8 C7         -0.0850    4.3308    3.4040 C.ar      1 <0>         0.1670
      9 C8         -1.3255    3.7150    3.5055 C.ar      1 <0>        -0.1532
     10 C9         -2.4107    4.4253    3.9801 C.ar      1 <0>        -0.0943
     11 C10        -2.2654    5.7516    4.3437 C.ar      1 <0>        -0.1428
     12 C11        -1.0328    6.3695    4.2380 C.ar      1 <0>        -0.0946
     13 C12         0.0576    5.6629    3.7695 C.ar      1 <0>        -0.1463
     14 C13         2.2520    4.1512    2.9910 C.2       1 <0>         0.7144
     15 O1          2.4745    5.0733    3.7515 O.2       1 <0>        -0.5533
     16 N2          3.2389    3.6685    2.2103 N.am      1 <0>        -0.6136
     17 C14         2.9423    2.7091    1.1372 C.3       1 <0>         0.0569
     18 C15         3.4890    3.2748   -0.1845 C.3       1 <0>         0.1190
     19 N3          4.8818    3.6937    0.0259 N.am      1 <0>        -0.6233
     20 C16         5.1793    4.6487    1.1026 C.3       1 <0>         0.0685
     21 C17         4.6318    4.0873    2.4207 C.3       1 <0>         0.1146
     22 C18         5.8687    3.2109   -0.7548 C.2       1 <0>         0.7197
     23 O2          5.7317    2.1411   -1.3160 O.2       1 <0>        -0.5493
     24 N4          7.0076    3.9141   -0.9133 N.am      1 <0>        -0.5225
     25 C19         8.1376    3.3007   -1.4680 C.ar      1 <0>         0.1644
     26 C20         9.3055    4.0294   -1.6509 C.ar      1 <0>        -0.1531
     27 C21        10.4202    3.4201   -2.1929 C.ar      1 <0>        -0.0959
     28 C22        10.3707    2.0888   -2.5635 C.ar      1 <0>        -0.1440
     29 C23         9.2073    1.3621   -2.3884 C.ar      1 <0>        -0.0964
     30 C24         8.0910    1.9641   -1.8417 C.ar      1 <0>        -0.1602
     31 C25         7.0607    5.2579   -0.5234 C.ar      1 <0>         0.1195
     32 C26         6.4951    6.2387   -1.3275 C.ar      1 <0>        -0.1060
     33 C27         6.5441    7.5626   -0.9373 C.ar      1 <0>        -0.1052
     34 C28         7.1653    7.9132    0.2474 C.ar      1 <0>        -0.1054
     35 C29         7.7349    6.9396    1.0474 C.ar      1 <0>        -0.1079
     36 C30         7.6842    5.6133    0.6655 C.ar      1 <0>        -0.1196
     37 H1          0.3494   -1.1836    0.9062 H         1 <0>         0.1313
     38 H2          1.7795   -0.8737    2.8850 H         1 <0>         0.1322
     39 H3          2.1044    1.3748    3.8315 H         1 <0>         0.1260
     40 H4         -0.4642    3.0014    0.8245 H         1 <0>         0.1328
     41 H5         -0.7743    0.7503   -0.1207 H         1 <0>         0.1342
     42 H6         -1.4406    2.6804    3.2178 H         1 <0>         0.1252
     43 H7         -3.3747    3.9457    4.0635 H         1 <0>         0.1261
     44 H8         -3.1164    6.3061    4.7107 H         1 <0>         0.1228
     45 H9         -0.9225    7.4055    4.5224 H         1 <0>         0.1260
     46 H10         1.0200    6.1461    3.6871 H         1 <0>         0.1577
     47 H11         3.4221    1.7553    1.3562 H         1 <0>         0.0784
     48 H12         1.8641    2.5696    1.0590 H         1 <0>         0.1303
     49 H13         2.8916    4.1328   -0.4929 H         1 <0>         0.0704
     50 H14         3.4511    2.5039   -0.9542 H         1 <0>         0.1043
     51 H15         4.7022    5.6045    0.8859 H         1 <0>         0.0734
     52 H16         6.2577    4.7852    1.1830 H         1 <0>         0.1237
     53 H17         4.6697    4.8582    3.1904 H         1 <0>         0.1083
     54 H18         5.2292    3.2293    2.7291 H         1 <0>         0.0722
     55 H19         9.3435    5.0703   -1.3654 H         1 <0>         0.1230
     56 H20        11.3301    3.9851   -2.3312 H         1 <0>         0.1249
     57 H21        11.2423    1.6156   -2.9910 H         1 <0>         0.1216
     58 H22         9.1716    0.3226   -2.6792 H         1 <0>         0.1251
     59 H23         7.1827    1.3960   -1.7052 H         1 <0>         0.1761
     60 H24         6.0134    5.9659   -2.2549 H         1 <0>         0.1260
     61 H25         6.1005    8.3253   -1.5600 H         1 <0>         0.1315
     62 H26         7.2059    8.9496    0.5484 H         1 <0>         0.1311
     63 H27         8.2196    7.2166    1.9719 H         1 <0>         0.1344
     64 H28         8.1292    4.8534    1.2907 H         1 <0>         0.1328
@<TRIPOS>BOND
     1    1    6 ar
     2    1    2 ar
     3    1   37 1
     4    2    3 ar
     5    2   38 1
     6    3    4 ar
     7    3   39 1
     8    4    5 ar
     9    4    7 1
    10    5    6 ar
    11    5   40 1
    12    6   41 1
    13    7    8 1
    14    7   14 am
    15    8   13 ar
    16    8    9 ar
    17    9   10 ar
    18    9   42 1
    19   10   11 ar
    20   10   43 1
    21   11   12 ar
    22   11   44 1
    23   12   13 ar
    24   12   45 1
    25   13   46 1
    26   14   15 2
    27   14   16 am
    28   16   21 1
    29   16   17 1
    30   17   18 1
    31   17   47 1
    32   17   48 1
    33   18   19 1
    34   18   49 1
    35   18   50 1
    36   19   20 1
    37   19   22 am
    38   20   21 1
    39   20   51 1
    40   20   52 1
    41   21   53 1
    42   21   54 1
    43   22   23 2
    44   22   24 am
    45   24   25 1
    46   24   31 1
    47   25   30 ar
    48   25   26 ar
    49   26   27 ar
    50   26   55 1
    51   27   28 ar
    52   27   56 1
    53   28   29 ar
    54   28   57 1
    55   29   30 ar
    56   29   58 1
    57   30   59 1
    58   31   36 ar
    59   31   32 ar
    60   32   33 ar
    61   32   60 1
    62   33   34 ar
    63   33   61 1
    64   34   35 ar
    65   34   62 1
    66   35   36 ar
    67   35   63 1
    68   36   64 1
@<TRIPOS>MOLECULE
ZINC01552042
   50    53     0     0     0
SMALL
USER_CHARGES
2-butyl-5-chloro-3-[[4-[2-(1H-tetrazol-5-yl)phenyl]phenyl]methyl]imidazole-4-carbaldehyde
@<TRIPOS>ATOM
      1 C1         10.4776    5.7894    3.9674 C.3       1 <0>        -0.1520
      2 C2          8.9549    5.6411    3.9537 C.3       1 <0>        -0.1252
      3 C3          8.3538    6.6433    2.9663 C.3       1 <0>        -0.1127
      4 C4          6.8310    6.4951    2.9525 C.3       1 <0>        -0.0509
      5 C5          6.2307    7.5590    2.0702 C.2       1 <0>         0.2715
      6 N1          5.9547    8.7828    2.4441 N.2       1 <0>        -0.4863
      7 C6          5.4296    9.4603    1.4239 C.2       1 <0>         0.1352
      8 C7          5.3789    8.6041    0.3377 C.2       1 <0>        -0.1242
      9 N2          5.8997    7.3982    0.7776 N.pl3     1 <0>        -0.3999
     10 C8          6.0546    6.1760   -0.0151 C.3       1 <0>         0.1399
     11 C9          4.8471    5.2953    0.1784 C.ar      1 <0>        -0.1159
     12 C10         3.7081    5.5124   -0.5761 C.ar      1 <0>        -0.1186
     13 C11         2.5995    4.7089   -0.4037 C.ar      1 <0>        -0.1055
     14 C12         2.6289    3.6768    0.5332 C.ar      1 <0>        -0.0334
     15 C13         3.7777    3.4665    1.2947 C.ar      1 <0>         0.0118
     16 C14         4.8822    4.2728    1.1094 C.ar      1 <0>        -0.1138
     17 C15         1.4415    2.8103    0.7230 C.ar      1 <0>        -0.0371
     18 C16         0.1846    3.3773    0.9150 C.ar      1 <0>        -0.1096
     19 C17        -0.9186    2.5668    1.0920 C.ar      1 <0>        -0.1314
     20 C18        -0.7857    1.1884    1.0743 C.ar      1 <0>        -0.1213
     21 C19         0.4529    0.6088    0.8911 C.ar      1 <0>        -0.1003
     22 C20         1.5779    1.4119    0.7108 C.ar      1 <0>         0.0486
     23 C21         2.9064    0.7960    0.5075 C.2       1 <0>         0.1220
     24 N3          4.5703   -0.6133    0.2578 N.2       1 <0>        -0.2061
     25 N4          5.0091    0.5963    0.1820 N.2       1 <0>        -0.1567
     26 N5          4.0452    1.4323    0.3265 N.2       1 <0>        -0.3853
     27 C22         4.8946    8.8996   -0.9559 C.2       1 <0>         0.4060
     28 O1          4.9099    8.0460   -1.8197 O.2       1 <0>        -0.4618
     29 Cl1         4.9045   11.1148    1.4521 Cl        1 <0>         0.0029
     30 H1         10.8705    5.5962    2.9692 H         1 <0>         0.0537
     31 H2         10.7413    6.8022    4.2719 H         1 <0>         0.0530
     32 H3         10.9059    5.0754    4.6709 H         1 <0>         0.0549
     33 H4          8.5620    5.8343    4.9519 H         1 <0>         0.0657
     34 H5          8.6912    4.6283    3.6492 H         1 <0>         0.0671
     35 H6          8.7467    6.4502    1.9680 H         1 <0>         0.0626
     36 H7          8.6175    7.6562    3.2708 H         1 <0>         0.0715
     37 H8          6.4462    6.6042    3.9665 H         1 <0>         0.1026
     38 H9          6.5653    5.5108    2.5670 H         1 <0>         0.0937
     39 H10         6.9485    5.6433    0.3094 H         1 <0>         0.1025
     40 H11         6.1494    6.4362   -1.0693 H         1 <0>         0.1186
     41 H12         3.6866    6.3120   -1.3018 H         1 <0>         0.1220
     42 H13         1.7109    4.8791   -0.9935 H         1 <0>         0.1146
     43 H14         3.8045    2.6715    2.0253 H         1 <0>         0.1167
     44 H15         5.7743    4.1078    1.6954 H         1 <0>         0.1136
     45 H16         0.0726    4.4514    0.9252 H         1 <0>         0.1207
     46 H17        -1.8921    3.0102    1.2403 H         1 <0>         0.1183
     47 H18        -1.6561    0.5634    1.2092 H         1 <0>         0.1197
     48 H19         0.5501   -0.4668    0.8829 H         1 <0>         0.1298
     49 H20         4.5108    9.8846   -1.1768 H         1 <0>         0.1196
     50 N6          3.2023   -0.5106    0.4747 N.2       1 <0>        -0.4105
@<TRIPOS>BOND
     1    1    2 1
     2    1   30 1
     3    1   31 1
     4    1   32 1
     5    2    3 1
     6    2   33 1
     7    2   34 1
     8    3    4 1
     9    3   35 1
    10    3   36 1
    11    4    5 1
    12    4   37 1
    13    4   38 1
    14    5    9 1
    15    5    6 2
    16    6    7 1
    17    7    8 2
    18    7   29 1
    19    8    9 1
    20    8   27 1
    21    9   10 1
    22   10   11 1
    23   10   39 1
    24   10   40 1
    25   11   16 ar
    26   11   12 ar
    27   12   13 ar
    28   12   41 1
    29   13   14 ar
    30   13   42 1
    31   14   15 ar
    32   14   17 1
    33   15   16 ar
    34   15   43 1
    35   16   44 1
    36   17   22 ar
    37   17   18 ar
    38   18   19 ar
    39   18   45 1
    40   19   20 ar
    41   19   46 1
    42   20   21 ar
    43   20   47 1
    44   21   22 ar
    45   21   48 1
    46   22   23 1
    47   23   26 2
    48   23   50 1
    49   24   25 2
    50   24   50 1
    51   25   26 1
    52   27   28 2
    53   27   49 1
@<TRIPOS>MOLECULE
ZINC13900167
   58    61     0     0     0
SMALL
USER_CHARGES
5-[(3,5-dibutyl-1,2,4-triazol-1-yl)methyl]-2-[2-(1H-tetrazol-5-yl)phenyl]pyridine
@<TRIPOS>ATOM
      1 C1         -2.0026   -9.9230   -6.2073 C.3       1 <0>        -0.1536
      2 C2         -2.1000   -8.3990   -6.3007 C.3       1 <0>        -0.1171
      3 C3         -2.6366   -7.8404   -4.9813 C.3       1 <0>        -0.1146
      4 C4         -2.7340   -6.3164   -5.0747 C.3       1 <0>        -0.0201
      5 C5         -3.2626   -5.7662   -3.7751 C.2       1 <0>         0.2253
      6 N1         -4.5478   -5.5709   -3.4827 N.2       1 <0>        -0.5390
      7 C6         -4.6589   -5.0866   -2.2725 C.2       1 <0>         0.2804
      8 N2         -3.4227   -4.9527   -1.7616 N.pl3     1 <0>        -0.3690
      9 N3         -2.5346   -5.4024   -2.7523 N.2       1 <0>        -0.3054
     10 C7         -3.0720   -4.4446   -0.4330 C.3       1 <0>         0.1813
     11 C8         -2.8613   -5.6026    0.5081 C.ar      1 <0>        -0.1814
     12 C9         -1.6371   -6.2552    0.5528 C.ar      1 <0>        -0.0407
     13 C10        -1.4846   -7.3142    1.4305 C.ar      1 <0>        -0.1037
     14 C11        -2.5602   -7.6871    2.2352 C.ar      1 <0>         0.2102
     15 N4         -3.7162   -7.0398    2.1581 N.ar      1 <0>        -0.4746
     16 C12        -3.8859   -6.0253    1.3348 C.ar      1 <0>         0.1107
     17 C13        -2.4135   -8.8192    3.1799 C.ar      1 <0>        -0.0452
     18 C14        -2.7719   -8.6667    4.5167 C.ar      1 <0>        -0.0848
     19 C15        -2.6291   -9.7225    5.3944 C.ar      1 <0>        -0.1399
     20 C16        -2.1343  -10.9385    4.9535 C.ar      1 <0>        -0.1100
     21 C17        -1.7780  -11.1093    3.6315 C.ar      1 <0>        -0.1069
     22 C18        -1.9159  -10.0544    2.7310 C.ar      1 <0>         0.0723
     23 C19        -1.5352  -10.2320    1.3135 C.2       1 <0>         0.0634
     24 N5         -0.5700  -10.9141   -0.4545 N.2       1 <0>        -0.1803
     25 N6         -1.4452  -10.0301   -0.7837 N.2       1 <0>        -0.1982
     26 N7         -2.0452   -9.6002    0.2722 N.2       1 <0>        -0.3480
     27 C20        -5.9477   -4.7365   -1.5743 C.3       1 <0>        -0.0428
     28 C21        -6.3856   -3.3298   -1.9871 C.3       1 <0>        -0.1114
     29 C22        -7.6292   -2.9286   -1.1913 C.3       1 <0>        -0.1243
     30 C23        -8.0671   -1.5220   -1.6041 C.3       1 <0>        -0.1523
     31 H1         -1.3272  -10.1949   -5.3962 H         1 <0>         0.0603
     32 H2         -2.9910  -10.3389   -6.0120 H         1 <0>         0.0527
     33 H3         -1.6203  -10.3210   -7.1473 H         1 <0>         0.0497
     34 H4         -2.7754   -8.1271   -7.1119 H         1 <0>         0.0582
     35 H5         -1.1116   -7.9831   -6.4961 H         1 <0>         0.0600
     36 H6         -1.9612   -8.1123   -4.1702 H         1 <0>         0.0735
     37 H7         -3.6251   -8.2563   -4.7860 H         1 <0>         0.0655
     38 H8         -3.4094   -6.0445   -5.8859 H         1 <0>         0.0849
     39 H9         -1.7456   -5.9004   -5.2701 H         1 <0>         0.0815
     40 H10        -3.8799   -3.8154   -0.0597 H         1 <0>         0.1046
     41 H11        -2.1554   -3.8583   -0.4985 H         1 <0>         0.1017
     42 H12        -0.8219   -5.9436   -0.0834 H         1 <0>         0.1277
     43 H13        -0.5455   -7.8441    1.4914 H         1 <0>         0.1232
     44 H14        -4.8395   -5.5193    1.3026 H         1 <0>         0.1467
     45 H15        -3.1578   -7.7211    4.8678 H         1 <0>         0.1221
     46 H16        -2.9046   -9.5993    6.4313 H         1 <0>         0.1199
     47 H17        -2.0263  -11.7578    5.6488 H         1 <0>         0.1208
     48 H18        -1.3922  -12.0601    3.2946 H         1 <0>         0.1286
     49 H19        -6.7191   -5.4539   -1.8542 H         1 <0>         0.1003
     50 H20        -5.7966   -4.7679   -0.4952 H         1 <0>         0.0841
     51 H21        -5.5804   -2.6241   -1.7830 H         1 <0>         0.0613
     52 H22        -6.6167   -3.3192   -3.0523 H         1 <0>         0.0729
     53 H23        -8.4345   -3.6344   -1.3954 H         1 <0>         0.0662
     54 H24        -7.3981   -2.9393   -0.1261 H         1 <0>         0.0642
     55 H25        -8.9531   -1.2362   -1.0372 H         1 <0>         0.0542
     56 H26        -7.2619   -0.8162   -1.4001 H         1 <0>         0.0528
     57 H27        -8.2983   -1.5114   -2.6693 H         1 <0>         0.0541
     58 N8         -0.5988  -11.0613    0.8178 N.2       1 <0>        -0.3720
@<TRIPOS>BOND
     1    1    2 1
     2    1   31 1
     3    1   32 1
     4    1   33 1
     5    2    3 1
     6    2   34 1
     7    2   35 1
     8    3    4 1
     9    3   36 1
    10    3   37 1
    11    4    5 1
    12    4   38 1
    13    4   39 1
    14    5    9 2
    15    5    6 1
    16    6    7 2
    17    7    8 1
    18    7   27 1
    19    8    9 1
    20    8   10 1
    21   10   11 1
    22   10   40 1
    23   10   41 1
    24   11   16 ar
    25   11   12 ar
    26   12   13 ar
    27   12   42 1
    28   13   14 ar
    29   13   43 1
    30   14   15 ar
    31   14   17 1
    32   15   16 ar
    33   16   44 1
    34   17   22 ar
    35   17   18 ar
    36   18   19 ar
    37   18   45 1
    38   19   20 ar
    39   19   46 1
    40   20   21 ar
    41   20   47 1
    42   21   22 ar
    43   21   48 1
    44   22   23 1
    45   23   26 2
    46   23   58 1
    47   24   25 2
    48   24   58 1
    49   25   26 1
    50   27   28 1
    51   27   49 1
    52   27   50 1
    53   28   29 1
    54   28   51 1
    55   28   52 1
    56   29   30 1
    57   29   53 1
    58   29   54 1
    59   30   55 1
    60   30   56 1
    61   30   57 1
@<TRIPOS>MOLECULE
ZINC01552601
   50    52     0     0     0
SMALL
USER_CHARGES
4-[[5-[(E)-3-hydroxy-3-oxo-2-(2-thienylmethyl)prop-1-enyl]-2-propyl-imidazol-1-yl]methyl]benzoic acid
@<TRIPOS>ATOM
      1 C1          1.1492    4.5173   -2.2422 C.3       1 <0>        -0.1572
      2 C2          0.1391    4.1686   -1.1472 C.3       1 <0>        -0.1244
      3 C3          0.8827    3.8699    0.1562 C.3       1 <0>        -0.0759
      4 C4         -0.1122    3.5265    1.2348 C.cat     1 <0>         0.2833
      5 N1         -0.6684    4.3847    2.0508 N.pl3     1 <0>        -0.4777
      6 C5         -1.5002    3.7491    2.8761 C.2       1 <0>        -0.0410
      7 C6         -1.4538    2.4051    2.5613 C.2       1 <0>         0.1296
      8 N2         -0.5621    2.2880    1.5120 N.pl3     1 <0>        -0.3929
      9 C7         -0.1791    1.0497    0.8293 C.3       1 <0>         0.1394
     10 C8          0.9884    0.4215    1.5457 C.ar      1 <0>        -0.1528
     11 C9          2.2804    0.7168    1.1478 C.ar      1 <0>        -0.1170
     12 C10         3.3538    0.1491    1.8023 C.ar      1 <0>        -0.0818
     13 C11         3.1340   -0.7336    2.8616 C.ar      1 <0>        -0.0840
     14 C12         1.8276   -1.0313    3.2544 C.ar      1 <0>        -0.0835
     15 C13         0.7635   -0.4524    2.5946 C.ar      1 <0>        -0.1010
     16 C14         4.2785   -1.3494    3.5639 C.2       1 <0>         0.4831
     17 O1          4.0852   -2.1879    4.4212 O.co2     1 <0>        -0.6196
     18 O2          5.5365   -0.9811    3.2535 O.co2     1 <0>        -0.7497
     19 C15        -2.1750    1.3581    3.1874 C.2       1 <0>        -0.1398
     20 C16        -2.9022    1.6090    4.3048 C.2       1 <0>        -0.0307
     21 C17        -2.7779    2.9394    5.0017 C.3       1 <0>        -0.0321
     22 C18        -3.7884    3.9014    4.4319 C.2       1 <0>        -0.1385
     23 C19        -4.7623    4.5942    5.0712 C.2       1 <0>        -0.1279
     24 C20        -5.5808    5.4322    4.3373 C.2       1 <0>        -0.1485
     25 C21        -5.3922    5.5281    2.9984 C.2       1 <0>        -0.1870
     26 S1         -4.0183    4.4181    2.7386 S.3       1 <0>         0.0063
     27 C22        -3.7764    0.6229    4.8152 C.2       1 <0>         0.4703
     28 O3         -3.8768   -0.4515    4.2524 O.co2     1 <0>        -0.6147
     29 O4         -4.5000    0.8726    5.9271 O.co2     1 <0>        -0.7334
     30 H1          0.6146    4.7320   -3.1793 H         1 <0>         0.0658
     31 H2          1.8314    3.6682   -2.3956 H         1 <0>         0.0645
     32 H3          1.7277    5.4024   -1.9390 H         1 <0>         0.0620
     33 H4         -0.5431    5.0177   -0.9938 H         1 <0>         0.0733
     34 H5         -0.4395    3.2835   -1.4504 H         1 <0>         0.0739
     35 H6          1.5649    3.0207    0.0028 H         1 <0>         0.1180
     36 H7          1.4613    4.7549    0.4594 H         1 <0>         0.1166
     37 H8         -2.0984    4.2022    3.6528 H         1 <0>         0.2399
     38 H9         -1.0293    0.3517    0.8316 H         1 <0>         0.1272
     39 H10         0.1064    1.2764   -0.2085 H         1 <0>         0.1195
     40 H11         2.4488    1.3966    0.3257 H         1 <0>         0.1156
     41 H12         4.3617    0.3839    1.4937 H         1 <0>         0.1362
     42 H13         1.6506   -1.7130    4.0732 H         1 <0>         0.1361
     43 H14        -0.2475   -0.6815    2.8976 H         1 <0>         0.1268
     44 H15        -2.1451    0.3419    2.7673 H         1 <0>         0.1574
     45 H16        -2.9629    2.8082    6.0781 H         1 <0>         0.1269
     46 H17        -1.7646    3.3396    4.8500 H         1 <0>         0.0935
     47 H18        -4.8950    4.4953    6.1384 H         1 <0>         0.1425
     48 H19        -6.3619    5.9985    4.8227 H         1 <0>         0.1344
     49 H20        -5.9329    6.1217    2.2762 H         1 <0>         0.1815
     50 H21        -0.4162    5.4531    1.9809 H         1 <0>         0.4873
@<TRIPOS>BOND
     1    1    2 1
     2    1   30 1
     3    1   31 1
     4    1   32 1
     5    2    3 1
     6    2   33 1
     7    2   34 1
     8    3    4 1
     9    3   35 1
    10    3   36 1
    11    4    8 1
    12    4    5 2
    13    5    6 1
    14    5   50 1
    15    6    7 2
    16    6   37 1
    17    7    8 1
    18    7   19 1
    19    8    9 1
    20    9   10 1
    21    9   38 1
    22    9   39 1
    23   10   15 ar
    24   10   11 ar
    25   11   12 ar
    26   11   40 1
    27   12   13 ar
    28   12   41 1
    29   13   14 ar
    30   13   16 1
    31   14   15 ar
    32   14   42 1
    33   15   43 1
    34   16   17 2
    35   16   18 1
    36   19   20 2
    37   19   44 1
    38   20   21 1
    39   20   27 1
    40   21   22 1
    41   21   45 1
    42   21   46 1
    43   22   26 1
    44   22   23 2
    45   23   24 1
    46   23   47 1
    47   24   25 2
    48   24   48 1
    49   25   26 1
    50   25   49 1
    51   27   28 2
    52   27   29 1
@<TRIPOS>MOLECULE
ZINC01552601
   50    52     0     0     0
SMALL
USER_CHARGES
4-[[5-[2-carboxy-3-(2-thienyl)prop-1-enyl]-2-propyl-imidazol-1-yl]methyl]benzoic acid
@<TRIPOS>ATOM
      1 C1          1.1492    4.5173   -2.2422 C.3       1 <0>        -0.1553
      2 C2          0.1391    4.1686   -1.1472 C.3       1 <0>        -0.1237
      3 C3          0.8827    3.8699    0.1562 C.3       1 <0>        -0.0743
      4 C4         -0.1122    3.5265    1.2348 C.cat     1 <0>         0.2937
      5 C5         -1.5002    3.7491    2.8761 C.2       1 <0>        -0.0516
      6 C6         -1.4538    2.4051    2.5613 C.2       1 <0>         0.1317
      7 N1         -0.5621    2.2880    1.5120 N.pl3     1 <0>        -0.3918
      8 C7         -0.1791    1.0497    0.8293 C.3       1 <0>         0.1426
      9 C8          0.9884    0.4215    1.5457 C.ar      1 <0>        -0.1542
     10 C9          2.2804    0.7168    1.1478 C.ar      1 <0>        -0.1166
     11 C10         3.3538    0.1491    1.8023 C.ar      1 <0>        -0.0818
     12 C11         3.1340   -0.7336    2.8616 C.ar      1 <0>        -0.0834
     13 C12         1.8276   -1.0313    3.2544 C.ar      1 <0>        -0.0836
     14 C13         0.7635   -0.4524    2.5946 C.ar      1 <0>        -0.1006
     15 C14         4.2785   -1.3494    3.5639 C.2       1 <0>         0.4831
     16 O1          4.0852   -2.1879    4.4212 O.co2     1 <0>        -0.6195
     17 C15        -2.1750    1.3581    3.1874 C.2       1 <0>        -0.1384
     18 C16        -2.9022    1.6090    4.3048 C.2       1 <0>        -0.0285
     19 C17        -2.7779    2.9394    5.0017 C.3       1 <0>        -0.0301
     20 C18        -3.7884    3.9014    4.4319 C.2       1 <0>        -0.1399
     21 C19        -4.7623    4.5942    5.0712 C.2       1 <0>        -0.1267
     22 C20        -5.5808    5.4322    4.3373 C.2       1 <0>        -0.1486
     23 C21        -5.3922    5.5281    2.9984 C.2       1 <0>        -0.1858
     24 S1         -4.0183    4.4181    2.7386 S.3       1 <0>         0.0051
     25 C22        -3.7764    0.6229    4.8152 C.2       1 <0>         0.4699
     26 O2         -3.8768   -0.4515    4.2524 O.co2     1 <0>        -0.6140
     27 H1          1.7224    5.3943   -1.9418 H         1 <0>         0.0616
     28 H2          1.8252    3.6759   -2.3942 H         1 <0>         0.0642
     29 H3          0.6194    4.7300   -3.1707 H         1 <0>         0.0656
     30 H4         -0.4342    3.2915   -1.4476 H         1 <0>         0.0739
     31 H5         -0.5369    5.0100   -0.9952 H         1 <0>         0.0729
     32 H6          1.5588    3.0285    0.0042 H         1 <0>         0.1176
     33 H7          1.4560    4.7470    0.4566 H         1 <0>         0.1159
     34 H8         -2.0984    4.2022    3.6528 H         1 <0>         0.2411
     35 H9         -1.0216    0.3581    0.8315 H         1 <0>         0.1265
     36 H10         0.1038    1.2744   -0.1991 H         1 <0>         0.1190
     37 H11         2.4488    1.3966    0.3257 H         1 <0>         0.1159
     38 H12         4.3617    0.3839    1.4937 H         1 <0>         0.1364
     39 H13         1.6506   -1.7130    4.0732 H         1 <0>         0.1363
     40 H14        -0.2475   -0.6815    2.8976 H         1 <0>         0.1270
     41 H15        -2.1456    0.3604    2.7750 H         1 <0>         0.1543
     42 H16        -2.9613    2.8094    6.0683 H         1 <0>         0.1258
     43 H17        -1.7738    3.3359    4.8514 H         1 <0>         0.0930
     44 H18        -4.8950    4.4953    6.1384 H         1 <0>         0.1429
     45 H19        -6.3619    5.9985    4.8227 H         1 <0>         0.1347
     46 H20        -5.9329    6.1217    2.2762 H         1 <0>         0.1818
     47 O3          5.5365   -0.9811    3.2535 O.co2     1 <0>        -0.7495
     48 O4         -4.5000    0.8726    5.9271 O.co2     1 <0>        -0.7326
     49 N2         -0.6680    4.3867    2.0508 N.pl3     1 <0>        -0.4712
     50 H21        -0.4905    5.3980    2.0549 H         1 <0>         0.4691
@<TRIPOS>BOND
     1    1    2 1
     2    1   27 1
     3    1   28 1
     4    1   29 1
     5    2    3 1
     6    2   30 1
     7    2   31 1
     8    3    4 1
     9    3   32 1
    10    3   33 1
    11    4    7 1
    12    4   49 2
    13    5    6 2
    14    5   34 1
    15    5   49 1
    16    6    7 1
    17    6   17 1
    18    7    8 1
    19    8    9 1
    20    8   35 1
    21    8   36 1
    22    9   14 ar
    23    9   10 ar
    24   10   11 ar
    25   10   37 1
    26   11   12 ar
    27   11   38 1
    28   12   13 ar
    29   12   15 1
    30   13   14 ar
    31   13   39 1
    32   14   40 1
    33   15   16 2
    34   15   47 1
    35   17   18 2
    36   17   41 1
    37   18   19 1
    38   18   25 1
    39   19   20 1
    40   19   42 1
    41   19   43 1
    42   20   24 1
    43   20   21 2
    44   21   22 1
    45   21   44 1
    46   22   23 2
    47   22   45 1
    48   23   24 1
    49   23   46 1
    50   25   26 2
    51   25   48 1
    52   49   50 1
@<TRIPOS>MOLECULE
ZINC13831927
   42    43     0     0     0
SMALL
USER_CHARGES
4-[[2-butyl-5-[(E)-3-hydroxy-3-oxo-prop-1-enyl]imidazol-1-yl]methyl]benzoic acid
@<TRIPOS>ATOM
      1 C1         -0.9007    1.7316   -3.6838 C.3       1 <0>        -0.1509
      2 C2         -0.1399    1.2093   -2.4634 C.3       1 <0>        -0.1248
      3 C3         -0.8809    1.6159   -1.1881 C.3       1 <0>        -0.1133
      4 C4         -0.1201    1.0937    0.0323 C.3       1 <0>        -0.0374
      5 C5         -0.7816    1.5964    1.2896 C.2       1 <0>         0.2020
      6 N1         -1.6712    0.9403    1.9896 N.2       1 <0>        -0.4932
      7 C6         -2.0486    1.6710    3.0386 C.2       1 <0>        -0.0151
      8 C7         -1.3493    2.8611    2.9910 C.2       1 <0>         0.0238
      9 N2         -0.5444    2.7879    1.8700 N.pl3     1 <0>        -0.4372
     10 C8          0.3887    3.8148    1.3998 C.3       1 <0>         0.1490
     11 C9          1.7623    3.5370    1.9540 C.ar      1 <0>        -0.1251
     12 C10         2.0914    3.9681    3.2270 C.ar      1 <0>        -0.1084
     13 C11         3.3453    3.7130    3.7423 C.ar      1 <0>        -0.0754
     14 C12         4.2868    3.0273    2.9721 C.ar      1 <0>        -0.1046
     15 C13         3.9497    2.5998    1.6863 C.ar      1 <0>        -0.0922
     16 C14         2.6904    2.8571    1.1854 C.ar      1 <0>        -0.1214
     17 C15         5.6333    2.7550    3.5154 C.2       1 <0>         0.4899
     18 O1          6.4501    2.1580    2.8431 O.co2     1 <0>        -0.6362
     19 C16        -1.4356    3.9372    3.9091 C.2       1 <0>        -0.0821
     20 C17        -2.1955    3.8164    5.0265 C.2       1 <0>        -0.1379
     21 C18        -2.1978    4.8462    5.9942 C.2       1 <0>         0.4734
     22 O2         -1.5181    5.8415    5.8253 O.co2     1 <0>        -0.6377
     23 H1         -0.3728    1.4419   -4.5924 H         1 <0>         0.0512
     24 H2         -1.9044    1.3065   -3.6955 H         1 <0>         0.0524
     25 H3         -0.9671    2.8183   -3.6329 H         1 <0>         0.0527
     26 H4          0.8637    1.6344   -2.4517 H         1 <0>         0.0634
     27 H5         -0.0736    0.1225   -2.5143 H         1 <0>         0.0635
     28 H6         -1.8846    1.1908   -1.1998 H         1 <0>         0.0679
     29 H7         -0.9472    2.7027   -1.1372 H         1 <0>         0.0594
     30 H8         -0.1298    0.0037    0.0275 H         1 <0>         0.0906
     31 H9          0.9101    1.4480   -0.0029 H         1 <0>         0.0812
     32 H10        -2.7702    1.3845    3.7894 H         1 <0>         0.1715
     33 H11         0.4265    3.8001    0.3106 H         1 <0>         0.0949
     34 H12         0.0516    4.7945    1.7385 H         1 <0>         0.1000
     35 H13         1.3636    4.5019    3.8200 H         1 <0>         0.1243
     36 H14         3.5995    4.0460    4.7377 H         1 <0>         0.1333
     37 H15         4.6731    2.0687    1.0855 H         1 <0>         0.1261
     38 H16         2.4282    2.5267    0.1912 H         1 <0>         0.1146
     39 H17        -0.8964    4.8535    3.7193 H         1 <0>         0.1228
     40 H18        -2.7987    2.9332    5.1763 H         1 <0>         0.1067
     41 O3          5.9553    3.1688    4.7562 O.co2     1 <0>        -0.7517
     42 O4         -2.9540    4.7260    7.1060 O.co2     1 <0>        -0.7702
@<TRIPOS>BOND
     1    1    2 1
     2    1   23 1
     3    1   24 1
     4    1   25 1
     5    2    3 1
     6    2   26 1
     7    2   27 1
     8    3    4 1
     9    3   28 1
    10    3   29 1
    11    4    5 1
    12    4   30 1
    13    4   31 1
    14    5    9 1
    15    5    6 2
    16    6    7 1
    17    7    8 2
    18    7   32 1
    19    8    9 1
    20    8   19 1
    21    9   10 1
    22   10   11 1
    23   10   33 1
    24   10   34 1
    25   11   16 ar
    26   11   12 ar
    27   12   13 ar
    28   12   35 1
    29   13   14 ar
    30   13   36 1
    31   14   15 ar
    32   14   17 1
    33   15   16 ar
    34   15   37 1
    35   16   38 1
    36   17   18 2
    37   17   41 1
    38   19   20 2
    39   19   39 1
    40   20   21 1
    41   20   40 1
    42   21   22 2
    43   21   42 1
@<TRIPOS>MOLECULE
ZINC13831927
   43    44     0     0     0
SMALL
USER_CHARGES
4-[[2-butyl-5-[(E)-3-hydroxy-3-oxo-prop-1-enyl]imidazol-1-yl]methyl]benzoic acid
@<TRIPOS>ATOM
      1 C1         -0.9007    1.7316   -3.6838 C.3       1 <0>        -0.1553
      2 C2         -0.1399    1.2093   -2.4634 C.3       1 <0>        -0.1256
      3 C3         -0.8809    1.6159   -1.1881 C.3       1 <0>        -0.1205
      4 C4         -0.1201    1.0937    0.0323 C.3       1 <0>        -0.0755
      5 C5         -0.7816    1.5964    1.2896 C.cat     1 <0>         0.2917
      6 C6         -2.0486    1.6710    3.0386 C.2       1 <0>        -0.0265
      7 C7         -1.3493    2.8611    2.9910 C.2       1 <0>         0.1345
      8 N1         -0.5444    2.7879    1.8700 N.pl3     1 <0>        -0.3935
      9 C8          0.3887    3.8148    1.3998 C.3       1 <0>         0.1428
     10 C9          1.7623    3.5370    1.9540 C.ar      1 <0>        -0.1555
     11 C10         2.0914    3.9681    3.2270 C.ar      1 <0>        -0.1018
     12 C11         3.3453    3.7130    3.7423 C.ar      1 <0>        -0.0743
     13 C12         4.2868    3.0273    2.9721 C.ar      1 <0>        -0.0835
     14 C13         3.9497    2.5998    1.6863 C.ar      1 <0>        -0.0910
     15 C14         2.6904    2.8571    1.1854 C.ar      1 <0>        -0.1170
     16 C15         5.6333    2.7550    3.5154 C.2       1 <0>         0.4827
     17 O1          6.4501    2.1580    2.8431 O.co2     1 <0>        -0.6271
     18 C16        -1.4356    3.9372    3.9091 C.2       1 <0>        -0.1504
     19 C17        -2.1955    3.8164    5.0265 C.2       1 <0>        -0.0504
     20 C18        -2.1978    4.8462    5.9942 C.2       1 <0>         0.4564
     21 O2         -1.5181    5.8415    5.8253 O.co2     1 <0>        -0.6152
     22 H1         -0.3728    1.4419   -4.5924 H         1 <0>         0.0600
     23 H2         -1.9044    1.3065   -3.6955 H         1 <0>         0.0547
     24 H3         -0.9671    2.8183   -3.6329 H         1 <0>         0.0567
     25 H4          0.8637    1.6344   -2.4517 H         1 <0>         0.0716
     26 H5         -0.0736    0.1225   -2.5143 H         1 <0>         0.0692
     27 H6         -1.8846    1.1908   -1.1998 H         1 <0>         0.0740
     28 H7         -0.9472    2.7027   -1.1372 H         1 <0>         0.0733
     29 H8         -0.1298    0.0037    0.0275 H         1 <0>         0.1144
     30 H9          0.9101    1.4480   -0.0029 H         1 <0>         0.1196
     31 H10        -2.7702    1.3845    3.7894 H         1 <0>         0.2208
     32 H11         0.4265    3.8001    0.3106 H         1 <0>         0.1179
     33 H12         0.0516    4.7945    1.7385 H         1 <0>         0.1279
     34 H13         1.3636    4.5019    3.8200 H         1 <0>         0.1283
     35 H14         3.5995    4.0460    4.7377 H         1 <0>         0.1403
     36 H15         4.6731    2.0687    1.0855 H         1 <0>         0.1331
     37 H16         2.4282    2.5267    0.1912 H         1 <0>         0.1169
     38 H17        -0.8964    4.8535    3.7193 H         1 <0>         0.1492
     39 H18        -2.7987    2.9332    5.1763 H         1 <0>         0.1157
     40 O3          5.9553    3.1688    4.7562 O.co2     1 <0>        -0.7412
     41 O4         -2.9540    4.7260    7.1060 O.co2     1 <0>        -0.7424
     42 N2         -1.6719    0.9384    1.9891 N.pl3     1 <0>        -0.4746
     43 H19        -2.0261    0.0013    1.7642 H         1 <0>         0.4694
@<TRIPOS>BOND
     1    1    2 1
     2    1   22 1
     3    1   23 1
     4    1   24 1
     5    2    3 1
     6    2   25 1
     7    2   26 1
     8    3    4 1
     9    3   27 1
    10    3   28 1
    11    4    5 1
    12    4   29 1
    13    4   30 1
    14    5    8 1
    15    5   42 2
    16    6    7 2
    17    6   31 1
    18    6   42 1
    19    7    8 1
    20    7   18 1
    21    8    9 1
    22    9   10 1
    23    9   32 1
    24    9   33 1
    25   10   15 ar
    26   10   11 ar
    27   11   12 ar
    28   11   34 1
    29   12   13 ar
    30   12   35 1
    31   13   14 ar
    32   13   16 1
    33   14   15 ar
    34   14   36 1
    35   15   37 1
    36   16   17 2
    37   16   40 1
    38   18   19 2
    39   18   38 1
    40   19   20 1
    41   19   39 1
    42   20   21 2
    43   20   41 1
    44   42   43 1
@<TRIPOS>MOLECULE
ZINC29319828
   53    55     0     0     0
SMALL
USER_CHARGES

@<TRIPOS>ATOM
      1 C1          1.9590    1.1917   -0.6016 C.3       1 <0>        -0.1585
      2 C2          1.3921   -0.2274   -0.5264 C.3       1 <0>        -0.1190
      3 C3          2.0028   -1.0802   -1.6402 C.3       1 <0>        -0.1362
      4 C4          1.4359   -2.4993   -1.5650 C.3       1 <0>        -0.0674
      5 C5          2.0375   -3.3394   -2.6620 C.cat     1 <0>         0.2948
      6 N1          3.1795   -3.9743   -2.5876 N.pl3     1 <0>        -0.4645
      7 C6          3.4127   -4.6198   -3.7296 C.2       1 <0>        -0.0489
      8 C7          2.3463   -4.3722   -4.5736 C.2       1 <0>         0.1371
      9 N2          1.4807   -3.5574   -3.8677 N.pl3     1 <0>        -0.3907
     10 C8          0.2001   -3.0284   -4.3437 C.3       1 <0>         0.1421
     11 C9          0.4390   -1.7627   -5.1259 C.ar      1 <0>        -0.1590
     12 C10         0.3256   -0.5342   -4.4991 C.ar      1 <0>        -0.1160
     13 C11         0.5424    0.6284   -5.2088 C.ar      1 <0>        -0.0900
     14 C12         0.8777    0.5636   -6.5636 C.ar      1 <0>        -0.1022
     15 C13         0.9908   -0.6804   -7.1896 C.ar      1 <0>        -0.0821
     16 C14         0.7763   -1.8348   -6.4661 C.ar      1 <0>        -0.1022
     17 C15         1.1106    1.8028   -7.3296 C.2       1 <0>         0.5143
     18 O1          0.9199    2.8909   -6.8051 O.co2     1 <0>        -0.6830
     19 O2          1.4945    1.7419   -8.4892 O.co2     1 <0>        -0.6756
     20 C16         2.1733   -4.8582   -5.8917 C.2       1 <0>        -0.1298
     21 C17         3.1938   -5.5017   -6.5182 C.2       1 <0>        -0.0088
     22 C18         4.5691   -5.5123   -5.9021 C.3       1 <0>        -0.0316
     23 C19         4.7677   -6.7962   -5.1385 C.2       1 <0>        -0.1366
     24 C20         5.3874   -7.9359   -5.5313 C.2       1 <0>        -0.1210
     25 C21         5.4515   -9.0011   -4.6528 C.2       1 <0>        -0.1442
     26 C22         4.8927   -8.8745   -3.4244 C.2       1 <0>        -0.1815
     27 S1          4.2545   -7.2081   -3.4789 S.3       1 <0>        -0.0199
     28 C23         2.9657   -6.1586   -7.7430 C.2       1 <0>         0.4426
     29 O3          1.7498   -6.1493   -8.2876 O.co2     1 <0>        -0.6774
     30 O4          3.9660   -6.7893   -8.3571 O.co2     1 <0>        -0.6757
     31 H1          3.0417    1.1574   -0.4806 H         1 <0>         0.0548
     32 H2          1.7152    1.6295   -1.5696 H         1 <0>         0.0634
     33 H3          1.5239    1.7993    0.1919 H         1 <0>         0.0588
     34 H4          1.6359   -0.6652    0.4416 H         1 <0>         0.0649
     35 H5          0.3094   -0.1930   -0.6473 H         1 <0>         0.0689
     36 H6          1.7591   -0.6424   -2.6082 H         1 <0>         0.0906
     37 H7          3.0856   -1.1146   -1.5192 H         1 <0>         0.0732
     38 H8          1.6797   -2.9371   -0.5970 H         1 <0>         0.1142
     39 H9          0.3532   -2.4650   -1.6859 H         1 <0>         0.1145
     40 H10         4.2776   -5.2259   -3.9550 H         1 <0>         0.2325
     41 H11        -0.2820   -3.7663   -4.9849 H         1 <0>         0.1270
     42 H12        -0.4433   -2.8125   -3.4908 H         1 <0>         0.1195
     43 H13         0.0664   -0.4856   -3.4518 H         1 <0>         0.1174
     44 H14         0.4529    1.5865   -4.7185 H         1 <0>         0.1315
     45 H15         1.2497   -0.7379   -8.2366 H         1 <0>         0.1358
     46 H16         0.8677   -2.7972   -6.9476 H         1 <0>         0.1262
     47 H17         1.2307   -4.7178   -6.3996 H         1 <0>         0.1596
     48 H18         5.3201   -5.4374   -6.6886 H         1 <0>         0.1243
     49 H19         4.6693   -4.6661   -5.2224 H         1 <0>         0.0927
     50 H20         5.8243   -8.0107   -6.5162 H         1 <0>         0.1487
     51 H21         5.9392   -9.9206   -4.9409 H         1 <0>         0.1355
     52 H22         4.8486   -9.5937   -2.6199 H         1 <0>         0.1824
     53 H23         3.7682   -3.9746   -1.8166 H         1 <0>         0.4545
@<TRIPOS>BOND
     1    1    2 1
     2    1   31 1
     3    1   32 1
     4    1   33 1
     5    2    3 1
     6    2   34 1
     7    2   35 1
     8    3    4 1
     9    3   36 1
    10    3   37 1
    11    4    5 1
    12    4   38 1
    13    4   39 1
    14    5    9 1
    15    5    6 2
    16    6    7 1
    17    6   53 1
    18    7    8 2
    19    7   40 1
    20    8    9 1
    21    8   20 1
    22    9   10 1
    23   10   11 1
    24   10   41 1
    25   10   42 1
    26   11   16 ar
    27   11   12 ar
    28   12   13 ar
    29   12   43 1
    30   13   14 ar
    31   13   44 1
    32   14   15 ar
    33   14   17 1
    34   15   16 ar
    35   15   45 1
    36   16   46 1
    37   17   18 2
    38   17   19 1
    39   20   21 2
    40   20   47 1
    41   21   22 1
    42   21   28 1
    43   22   23 1
    44   22   48 1
    45   22   49 1
    46   23   27 1
    47   23   24 2
    48   24   25 1
    49   24   50 1
    50   25   26 2
    51   25   51 1
    52   26   27 1
    53   26   52 1
    54   28   29 2
    55   28   30 1
@<TRIPOS>MOLECULE
ZINC29319828
   52    54     0     0     0
SMALL
USER_CHARGES

@<TRIPOS>ATOM
      1 C1          0.4744    2.4124   -0.4417 C.3       1 <0>        -0.1511
      2 C2          0.1486    0.9211   -0.5461 C.3       1 <0>        -0.1239
      3 C3          0.9581    0.3008   -1.6866 C.3       1 <0>        -0.1138
      4 C4          0.6323   -1.1904   -1.7910 C.3       1 <0>        -0.0353
      5 C5          1.4296   -1.8014   -2.9144 C.2       1 <0>         0.2051
      6 N1          1.0395   -1.8818   -4.1611 N.2       1 <0>        -0.4842
      7 C6          1.9816   -2.4768   -4.8916 C.2       1 <0>        -0.0269
      8 C7          3.0297   -2.7890   -4.0461 C.2       1 <0>         0.0257
      9 N2          2.6553   -2.3435   -2.7919 N.pl3     1 <0>        -0.4349
     10 C8          3.4431   -2.4453   -1.5610 C.3       1 <0>         0.1490
     11 C9          3.2317   -3.8021   -0.9401 C.ar      1 <0>        -0.1303
     12 C10         2.1470   -4.0172   -0.1081 C.ar      1 <0>        -0.1193
     13 C11         1.9474   -5.2561    0.4640 C.ar      1 <0>        -0.0913
     14 C12         2.8434   -6.2955    0.2015 C.ar      1 <0>        -0.1228
     15 C13         3.9361   -6.0712   -0.6398 C.ar      1 <0>        -0.0836
     16 C14         4.1201   -4.8285   -1.2091 C.ar      1 <0>        -0.1078
     17 C15         2.6370   -7.6236    0.8101 C.2       1 <0>         0.5204
     18 O1          1.7349   -7.7922    1.6184 O.co2     1 <0>        -0.6920
     19 O2          3.3679   -8.5557    0.5064 O.co2     1 <0>        -0.6844
     20 C16         4.2423   -3.4304   -4.3945 C.2       1 <0>        -0.0600
     21 C17         4.3910   -3.9782   -5.6297 C.2       1 <0>        -0.0970
     22 C18         3.2032   -4.0956   -6.5498 C.3       1 <0>        -0.0190
     23 C19         3.2026   -2.9416   -7.5190 C.2       1 <0>        -0.1090
     24 C20         3.6636   -2.8964   -8.7928 C.2       1 <0>        -0.1550
     25 C21         3.5568   -1.7152   -9.5028 C.2       1 <0>        -0.1467
     26 C22         2.9943   -0.6370   -8.9043 C.2       1 <0>        -0.2280
     27 S1          2.5872   -1.2814   -7.2899 S.3       1 <0>         0.0486
     28 C23         5.6550   -4.4360   -6.0496 C.2       1 <0>         0.4609
     29 O3          6.7052   -4.3321   -5.2361 O.co2     1 <0>        -0.7052
     30 O4          5.8007   -4.9729   -7.2603 O.co2     1 <0>        -0.7023
     31 H1          1.5386    2.5387   -0.2425 H         1 <0>         0.0526
     32 H2          0.2191    2.9066   -1.3791 H         1 <0>         0.0529
     33 H3         -0.1022    2.8543    0.3708 H         1 <0>         0.0508
     34 H4          0.4040    0.4270    0.3913 H         1 <0>         0.0624
     35 H5         -0.9156    0.7948   -0.7452 H         1 <0>         0.0634
     36 H6          0.7027    0.7950   -2.6240 H         1 <0>         0.0700
     37 H7          2.0223    0.4272   -1.4874 H         1 <0>         0.0598
     38 H8          0.8876   -1.6846   -0.8536 H         1 <0>         0.0782
     39 H9         -0.4319   -1.3167   -1.9901 H         1 <0>         0.0920
     40 H10         1.9348   -2.6788   -5.9515 H         1 <0>         0.1881
     41 H11         4.4997   -2.3130   -1.7938 H         1 <0>         0.0979
     42 H12         3.1256   -1.6721   -0.8614 H         1 <0>         0.0971
     43 H13         1.4552   -3.2128    0.0939 H         1 <0>         0.1111
     44 H14         1.1008   -5.4223    1.1137 H         1 <0>         0.1250
     45 H15         4.6327   -6.8701   -0.8472 H         1 <0>         0.1290
     46 H16         4.9618   -4.6548   -1.8631 H         1 <0>         0.1219
     47 H17         5.0495   -3.4846   -3.6790 H         1 <0>         0.1321
     48 H18         3.2626   -5.0336   -7.1019 H         1 <0>         0.1021
     49 H19         2.2853   -4.0772   -5.9623 H         1 <0>         0.0976
     50 H20         4.1079   -3.7701   -9.2462 H         1 <0>         0.1383
     51 H21         3.9166   -1.6523  -10.5192 H         1 <0>         0.1207
     52 H22         2.8311    0.3537   -9.3021 H         1 <0>         0.1712
@<TRIPOS>BOND
     1    1    2 1
     2    1   31 1
     3    1   32 1
     4    1   33 1
     5    2    3 1
     6    2   34 1
     7    2   35 1
     8    3    4 1
     9    3   36 1
    10    3   37 1
    11    4    5 1
    12    4   38 1
    13    4   39 1
    14    5    9 1
    15    5    6 2
    16    6    7 1
    17    7    8 2
    18    7   40 1
    19    8    9 1
    20    8   20 1
    21    9   10 1
    22   10   11 1
    23   10   41 1
    24   10   42 1
    25   11   16 ar
    26   11   12 ar
    27   12   13 ar
    28   12   43 1
    29   13   14 ar
    30   13   44 1
    31   14   15 ar
    32   14   17 1
    33   15   16 ar
    34   15   45 1
    35   16   46 1
    36   17   18 2
    37   17   19 1
    38   20   21 2
    39   20   47 1
    40   21   22 1
    41   21   28 1
    42   22   23 1
    43   22   48 1
    44   22   49 1
    45   23   27 1
    46   23   24 2
    47   24   25 1
    48   24   50 1
    49   25   26 2
    50   25   51 1
    51   26   27 1
    52   26   52 1
    53   28   29 2
    54   28   30 1
@<TRIPOS>MOLECULE
ZINC14952767
   50    53     0     0     0
SMALL
USER_CHARGES
2-butyl-5-chloro-3-[[4-[2-(1H-tetrazol-5-yl)phenyl]phenyl]methyl]imidazole-4-carboxylic acid
@<TRIPOS>ATOM
      1 C1         -3.0849   -2.4707   -2.9197 C.3       1 <0>        -0.1509
      2 C2         -2.7736   -2.0679   -1.4768 C.3       1 <0>        -0.1258
      3 C3         -1.4760   -1.2579   -1.4421 C.3       1 <0>        -0.1125
      4 C4         -1.1647   -0.8552    0.0007 C.3       1 <0>        -0.0373
      5 C5          0.0452    0.0430    0.0216 C.2       1 <0>         0.2055
      6 N1          1.2884   -0.3644    0.0372 N.2       1 <0>        -0.4965
      7 C6          2.1083    0.6875    0.0538 C.2       1 <0>         0.0672
      8 C7          1.3268    1.8242    0.0482 C.2       1 <0>        -0.0159
      9 N2          0.0142    1.3870    0.0277 N.pl3     1 <0>        -0.4055
     10 C8         -1.1839    2.2300    0.0202 C.3       1 <0>         0.1384
     11 C9         -1.6857    2.4022    1.4308 C.ar      1 <0>        -0.0955
     12 C10        -2.7003    1.5902    1.9050 C.ar      1 <0>        -0.1212
     13 C11        -3.1600    1.7394    3.1976 C.ar      1 <0>         0.0028
     14 C12        -2.6073    2.7182    4.0224 C.ar      1 <0>        -0.0555
     15 C13        -1.5889    3.5374    3.5370 C.ar      1 <0>        -0.1075
     16 C14        -1.1338    3.3754    2.2444 C.ar      1 <0>        -0.1097
     17 C15        -3.1008    2.8876    5.4097 C.ar      1 <0>        -0.0206
     18 C16        -2.2021    2.9334    6.4719 C.ar      1 <0>        -0.1124
     19 C17        -2.6655    3.0961    7.7618 C.ar      1 <0>        -0.1320
     20 C18        -4.0237    3.2039    8.0102 C.ar      1 <0>        -0.1303
     21 C19        -4.9295    3.1554    6.9706 C.ar      1 <0>        -0.1019
     22 C20        -4.4790    2.9969    5.6611 C.ar      1 <0>         0.0415
     23 C21        -5.4453    2.9438    4.5435 C.2       1 <0>         0.1209
     24 N3         -6.7957    3.0304    4.6399 N.2       1 <0>        -0.4142
     25 N4         -7.2666    2.9324    3.3188 N.2       1 <0>        -0.2211
     26 N5         -6.2324    2.7928    2.5624 N.2       1 <0>        -0.1519
     27 N6         -5.1585    2.7977    3.2665 N.2       1 <0>        -0.3713
     28 C22         1.7922    3.2123    0.0619 C.2       1 <0>         0.5226
     29 O1          2.9841    3.4541    0.0798 O.co2     1 <0>        -0.6057
     30 O2          0.8990    4.2232    0.0546 O.co2     1 <0>        -0.7432
     31 Cl1         3.8433    0.6355    0.0788 Cl        1 <0>        -0.0173
     32 H1         -4.0178   -3.0530   -2.9447 H         1 <0>         0.0505
     33 H2         -2.2605   -3.0818   -3.3158 H         1 <0>         0.0513
     34 H3         -3.2002   -1.5668   -3.5359 H         1 <0>         0.0535
     35 H4         -3.5980   -1.4568   -1.0807 H         1 <0>         0.0658
     36 H5         -2.6583   -2.9717   -0.8605 H         1 <0>         0.0621
     37 H6         -0.6516   -1.8690   -1.8383 H         1 <0>         0.0677
     38 H7         -1.5914   -0.3540   -2.0583 H         1 <0>         0.0611
     39 H8         -2.0263   -0.3197    0.4259 H         1 <0>         0.0864
     40 H9         -0.9624   -1.7568    0.5975 H         1 <0>         0.0885
     41 H10        -0.9369    3.2144   -0.4039 H         1 <0>         0.1344
     42 H11        -1.9642    1.7528   -0.5909 H         1 <0>         0.0836
     43 H12        -3.1304    0.8350    1.2639 H         1 <0>         0.1087
     44 H13        -3.9489    1.1017    3.5683 H         1 <0>         0.1092
     45 H14        -1.1573    4.2976    4.1713 H         1 <0>         0.1097
     46 H15        -0.3450    4.0094    1.8673 H         1 <0>         0.1455
     47 H16        -1.1418    2.8459    6.2861 H         1 <0>         0.1219
     48 H17        -1.9650    3.1350    8.5829 H         1 <0>         0.1151
     49 H18        -4.3759    3.3264    9.0238 H         1 <0>         0.1152
     50 H19        -5.9873    3.2397    7.1715 H         1 <0>         0.1262
@<TRIPOS>BOND
     1    1    2 1
     2    1   32 1
     3    1   33 1
     4    1   34 1
     5    2    3 1
     6    2   35 1
     7    2   36 1
     8    3    4 1
     9    3   37 1
    10    3   38 1
    11    4    5 1
    12    4   39 1
    13    4   40 1
    14    5    9 1
    15    5    6 2
    16    6    7 1
    17    7    8 2
    18    7   31 1
    19    8    9 1
    20    8   28 1
    21    9   10 1
    22   10   11 1
    23   10   41 1
    24   10   42 1
    25   11   16 ar
    26   11   12 ar
    27   12   13 ar
    28   12   43 1
    29   13   14 ar
    30   13   44 1
    31   14   15 ar
    32   14   17 1
    33   15   16 ar
    34   15   45 1
    35   16   46 1
    36   17   22 ar
    37   17   18 ar
    38   18   19 ar
    39   18   47 1
    40   19   20 ar
    41   19   48 1
    42   20   21 ar
    43   20   49 1
    44   21   22 ar
    45   21   50 1
    46   22   23 1
    47   23   27 2
    48   23   24 1
    49   24   25 1
    50   25   26 2
    51   26   27 1
    52   28   29 2
    53   28   30 1
@<TRIPOS>MOLECULE
ZINC26718411
   73    77     0     0     0
SMALL
USER_CHARGES

@<TRIPOS>ATOM
      1 C1          3.1577    0.6935    0.4148 C.3       1 <0>        -0.1520
      2 C2          2.6559   -0.7505    0.3538 C.3       1 <0>        -0.1248
      3 C3          1.1300   -0.7559    0.2426 C.3       1 <0>        -0.1104
      4 C4          0.6281   -2.2000    0.1816 C.3       1 <0>        -0.0487
      5 C5         -0.8749   -2.2053    0.0721 C.2       1 <0>         0.2967
      6 N1         -1.6307   -1.1553    0.0292 N.2       1 <0>        -0.2718
      7 N2         -2.9625   -1.5805   -0.0727 N.am      1 <0>        -0.4270
      8 C6         -2.9530   -2.9298   -0.0876 C.2       1 <0>         0.6593
      9 O1         -3.9269   -3.6569   -0.1673 O.2       1 <0>        -0.5256
     10 N3         -1.6667   -3.3249   -0.0045 N.am      1 <0>        -0.5439
     11 C7         -1.1945   -4.7116    0.0064 C.3       1 <0>         0.1715
     12 C8         -1.2637   -5.2548    1.4104 C.ar      1 <0>        -0.1208
     13 C9         -0.2174   -5.0326    2.2875 C.ar      1 <0>        -0.1105
     14 C10        -0.2754   -5.5277    3.5745 C.ar      1 <0>        -0.0911
     15 C11        -1.3906   -6.2525    3.9897 C.ar      1 <0>        -0.0626
     16 C12        -2.4417   -6.4733    3.1020 C.ar      1 <0>        -0.0909
     17 C13        -2.3756   -5.9688    1.8191 C.ar      1 <0>        -0.0805
     18 C14        -1.4585   -6.7878    5.3721 C.ar      1 <0>         0.0566
     19 C15        -1.3785   -5.9226    6.4617 C.ar      1 <0>        -0.1329
     20 C16        -1.4426   -6.4257    7.7450 C.ar      1 <0>        -0.0789
     21 C17        -1.5860   -7.7862    7.9511 C.ar      1 <0>        -0.1450
     22 C18        -1.6654   -8.6494    6.8734 C.ar      1 <0>        -0.0277
     23 C19        -1.6082   -8.1564    5.5853 C.ar      1 <0>        -0.6258
     24 S1         -1.7169   -9.2567    4.2134 S.o2      1 <0>         2.6516
     25 O2         -0.7025   -8.8662    3.2982 O.2       1 <0>        -0.9898
     26 O3         -1.7935  -10.5698    4.7511 O.2       1 <0>        -1.0044
     27 N4         -3.1659   -8.9659    3.4662 N.2       1 <0>        -1.0592
     28 C20        -3.5468   -9.7144    2.4682 C.2       1 <0>         0.5664
     29 O4         -2.8046  -10.7859    2.1042 O.3       1 <0>        -0.6887
     30 C21        -4.7822   -9.3941    1.7390 C.2       1 <0>        -0.1426
     31 C22        -5.4057  -10.1019    0.7263 C.2       1 <0>        -0.0866
     32 C23        -6.5642   -9.5454    0.2330 C.2       1 <0>        -0.1730
     33 C24        -7.0062   -8.3763    0.7544 C.2       1 <0>        -0.2680
     34 S2         -5.8718   -7.9967    1.9339 S.3       1 <0>         0.2053
     35 C25        -4.8514  -11.3994    0.1967 C.3       1 <0>        -0.0987
     36 C26        -4.0932   -0.7576   -0.1455 C.ar      1 <0>         0.2367
     37 C27        -4.9729   -0.8765   -1.2139 C.ar      1 <0>        -0.1102
     38 C28        -6.0872   -0.0639   -1.2825 C.ar      1 <0>        -0.0717
     39 C29        -6.3279    0.8677   -0.2889 C.ar      1 <0>        -0.1201
     40 C30        -5.4539    0.9889    0.7756 C.ar      1 <0>        -0.0629
     41 C31        -4.3405    0.1751    0.8531 C.ar      1 <0>        -0.1794
     42 C32        -3.3918    0.3035    2.0169 C.3       1 <0>         0.5095
     43 F1         -3.9115    1.2133    2.9440 F         1 <0>        -0.1809
     44 F2         -3.2315   -0.9447    2.6279 F         1 <0>        -0.1731
     45 F3         -2.1515    0.7613    1.5592 F         1 <0>        -0.1591
     46 H1          4.2448    0.6974    0.4940 H         1 <0>         0.0533
     47 H2          2.8575    1.2210   -0.4906 H         1 <0>         0.0538
     48 H3          2.7283    1.1910    1.2844 H         1 <0>         0.0547
     49 H4          3.0853   -1.2480   -0.5158 H         1 <0>         0.0634
     50 H5          2.9561   -1.2780    1.2592 H         1 <0>         0.0645
     51 H6          0.7005   -0.2585    1.1122 H         1 <0>         0.0745
     52 H7          0.8298   -0.2284   -0.6628 H         1 <0>         0.0730
     53 H8          1.0576   -2.6974   -0.6880 H         1 <0>         0.1005
     54 H9          0.9283   -2.7275    1.0870 H         1 <0>         0.1019
     55 H10        -1.8238   -5.3149   -0.6479 H         1 <0>         0.1047
     56 H11        -0.1639   -4.7473   -0.3466 H         1 <0>         0.1055
     57 H12         0.6467   -4.4710    1.9645 H         1 <0>         0.1177
     58 H13         0.5422   -5.3540    4.2584 H         1 <0>         0.1197
     59 H14        -3.3083   -7.0348    3.4186 H         1 <0>         0.1764
     60 H15        -3.1918   -6.1353    1.1317 H         1 <0>         0.1259
     61 H16        -1.2661   -4.8604    6.3020 H         1 <0>         0.1275
     62 H17        -1.3803   -5.7562    8.5902 H         1 <0>         0.1259
     63 H18        -1.6357   -8.1757    8.9571 H         1 <0>         0.1272
     64 H19        -1.7767   -9.7107    7.0399 H         1 <0>         0.1405
     65 H20        -7.1125  -10.0339   -0.5588 H         1 <0>         0.1230
     66 H21        -7.8883   -7.8178    0.4780 H         1 <0>         0.1756
     67 H22        -5.2641  -12.2309    0.7680 H         1 <0>         0.0625
     68 H23        -5.1236  -11.5092   -0.8530 H         1 <0>         0.0495
     69 H24        -3.7656  -11.3965    0.2922 H         1 <0>         0.0980
     70 H25        -4.7854   -1.6035   -1.9902 H         1 <0>         0.1390
     71 H26        -6.7714   -0.1556   -2.1131 H         1 <0>         0.1414
     72 H27        -7.2001    1.5021   -0.3449 H         1 <0>         0.1406
     73 H28        -5.6444    1.7175    1.5497 H         1 <0>         0.1452
@<TRIPOS>BOND
     1    1    2 1
     2    1   46 1
     3    1   47 1
     4    1   48 1
     5    2    3 1
     6    2   49 1
     7    2   50 1
     8    3    4 1
     9    3   51 1
    10    3   52 1
    11    4    5 1
    12    4   53 1
    13    4   54 1
    14    5   10 1
    15    5    6 2
    16    6    7 1
    17    7    8 am
    18    7   36 1
    19    8    9 2
    20    8   10 am
    21   10   11 1
    22   11   12 1
    23   11   55 1
    24   11   56 1
    25   12   17 ar
    26   12   13 ar
    27   13   14 ar
    28   13   57 1
    29   14   15 ar
    30   14   58 1
    31   15   16 ar
    32   15   18 1
    33   16   17 ar
    34   16   59 1
    35   17   60 1
    36   18   23 ar
    37   18   19 ar
    38   19   20 ar
    39   19   61 1
    40   20   21 ar
    41   20   62 1
    42   21   22 ar
    43   21   63 1
    44   22   23 ar
    45   22   64 1
    46   23   24 1
    47   24   25 2
    48   24   26 2
    49   24   27 1
    50   27   28 2
    51   28   29 1
    52   28   30 1
    53   30   34 1
    54   30   31 2
    55   31   32 1
    56   31   35 1
    57   32   33 2
    58   32   65 1
    59   33   34 1
    60   33   66 1
    61   35   67 1
    62   35   68 1
    63   35   69 1
    64   36   41 ar
    65   36   37 ar
    66   37   38 ar
    67   37   70 1
    68   38   39 ar
    69   38   71 1
    70   39   40 ar
    71   39   72 1
    72   40   41 ar
    73   40   73 1
    74   41   42 1
    75   42   43 1
    76   42   44 1
    77   42   45 1
