@<TRIPOS>MOLECULE
ZINC01530886
   68    73     0     0     0
SMALL
USER_CHARGES

@<TRIPOS>ATOM
      1 C1          0.5194    0.5989   -0.6499 C.3       1 <0>        -0.1519
      2 C2          0.5553   -0.9228   -0.4944 C.3       1 <0>        -0.1180
      3 C3         -0.8744   -1.4676   -0.4781 C.3       1 <0>        -0.0509
      4 C4         -0.8390   -2.9664   -0.3250 C.2       1 <0>         0.2998
      5 N1         -0.7870   -3.8153   -1.3104 N.2       1 <0>        -0.4956
      6 C5         -0.7679   -5.0811   -0.8228 C.ar      1 <0>         0.0676
      7 C6         -0.7166   -6.3432   -1.4255 C.ar      1 <0>        -0.0329
      8 C7         -0.7106   -7.4677   -0.6561 C.ar      1 <0>        -0.1279
      9 C8         -0.7553   -7.3741    0.7409 C.ar      1 <0>        -0.0241
     10 C9         -0.8066   -6.1262    1.3568 C.ar      1 <0>        -0.0473
     11 C10        -0.8125   -4.9799    0.5794 C.ar      1 <0>         0.0513
     12 N2         -0.8510   -3.6282    0.8627 N.pl3     1 <0>        -0.4696
     13 C11        -0.8997   -3.0209    2.1950 C.3       1 <0>         0.1532
     14 C12        -2.3363   -2.8503    2.6171 C.ar      1 <0>        -0.1289
     15 C13        -3.0114   -1.6833    2.3071 C.ar      1 <0>        -0.1160
     16 C14        -4.3269   -1.5212    2.6909 C.ar      1 <0>        -0.1152
     17 C15        -4.9758   -2.5369    3.3923 C.ar      1 <0>         0.0068
     18 C16        -4.2901   -3.7111    3.7015 C.ar      1 <0>        -0.0185
     19 C17        -2.9763   -3.8635    3.3081 C.ar      1 <0>        -0.1063
     20 C18        -6.3880   -2.3689    3.8077 C.ar      1 <0>        -0.0330
     21 C19        -7.3736   -2.1235    2.8559 C.ar      1 <0>        -0.1240
     22 C20        -8.6883   -1.9680    3.2469 C.ar      1 <0>        -0.1295
     23 C21        -9.0381   -2.0543    4.5848 C.ar      1 <0>        -0.1359
     24 C22        -8.0772   -2.2963    5.5435 C.ar      1 <0>        -0.0877
     25 C23        -6.7424   -2.4622    5.1668 C.ar      1 <0>        -0.1204
     26 C24        -5.7120   -2.7270    6.1853 C.2       1 <0>         0.5154
     27 O1         -6.0382   -2.9345    7.3459 O.co2     1 <0>        -0.6857
     28 O2         -4.5299   -2.7394    5.8706 O.co2     1 <0>        -0.6646
     29 C25        -0.7486   -8.6023    1.5628 C.2       1 <0>         0.3358
     30 N3         -0.4281   -8.6582    2.8328 N.2       1 <0>        -0.4807
     31 C26        -0.5296   -9.9362    3.2723 C.ar      1 <0>         0.0523
     32 C27        -0.3102  -10.5463    4.5117 C.ar      1 <0>        -0.0617
     33 C28        -0.5006  -11.8916    4.6514 C.ar      1 <0>        -0.1297
     34 C29        -0.9109  -12.6642    3.5740 C.ar      1 <0>        -0.1036
     35 C30        -1.1335  -12.0847    2.3426 C.ar      1 <0>        -0.1118
     36 C31        -0.9454  -10.7191    2.1808 C.ar      1 <0>         0.0484
     37 N4         -1.0820   -9.8522    1.1139 N.pl3     1 <0>        -0.4885
     38 C32        -1.5019  -10.2047   -0.2446 C.3       1 <0>         0.0713
     39 C33        -0.6687   -6.4586   -2.9273 C.3       1 <0>        -0.1058
     40 H1          1.5379    0.9870   -0.6615 H         1 <0>         0.0575
     41 H2          0.0215    0.8570   -1.5845 H         1 <0>         0.0578
     42 H3         -0.0268    1.0367    0.1857 H         1 <0>         0.0577
     43 H4          1.1014   -1.3606   -1.3299 H         1 <0>         0.0708
     44 H5          1.0531   -1.1809    0.4403 H         1 <0>         0.0625
     45 H6         -1.4205   -1.0298    0.3574 H         1 <0>         0.0902
     46 H7         -1.3722   -1.2095   -1.4128 H         1 <0>         0.1007
     47 H8         -0.6713   -8.4388   -1.1270 H         1 <0>         0.1329
     48 H9         -0.8418   -6.0527    2.4337 H         1 <0>         0.1368
     49 H10        -0.3859   -3.6663    2.9074 H         1 <0>         0.0990
     50 H11        -0.4106   -2.0472    2.1685 H         1 <0>         0.1003
     51 H12        -2.5078   -0.8974    1.7638 H         1 <0>         0.1128
     52 H13        -4.8527   -0.6094    2.4489 H         1 <0>         0.1151
     53 H14        -4.7874   -4.5011    4.2447 H         1 <0>         0.1134
     54 H15        -2.4453   -4.7740    3.5437 H         1 <0>         0.1119
     55 H16        -7.1095   -2.0544    1.8109 H         1 <0>         0.1154
     56 H17        -9.4495   -1.7774    2.5049 H         1 <0>         0.1144
     57 H18       -10.0700   -1.9309    4.8786 H         1 <0>         0.1146
     58 H19        -8.3570   -2.3619    6.5846 H         1 <0>         0.1273
     59 H20         0.0096   -9.9547    5.3568 H         1 <0>         0.1303
     60 H21        -0.3297  -12.3590    5.6099 H         1 <0>         0.1288
     61 H22        -1.0566  -13.7268    3.7008 H         1 <0>         0.1284
     62 H23        -1.4530  -12.6908    1.5078 H         1 <0>         0.1201
     63 H24        -0.6216  -10.3622   -0.8677 H         1 <0>         0.0777
     64 H25        -2.0950  -11.1188   -0.2158 H         1 <0>         0.0857
     65 H26        -2.1017   -9.3954   -0.6610 H         1 <0>         0.0949
     66 H27         0.3698   -6.4595   -3.2587 H         1 <0>         0.0698
     67 H28        -1.1493   -7.3870   -3.2359 H         1 <0>         0.0633
     68 H29        -1.1918   -5.6129   -3.3737 H         1 <0>         0.0739
@<TRIPOS>BOND
     1    1    2 1
     2    1   40 1
     3    1   41 1
     4    1   42 1
     5    2    3 1
     6    2   43 1
     7    2   44 1
     8    3    4 1
     9    3   45 1
    10    3   46 1
    11    4   12 1
    12    4    5 2
    13    5    6 1
    14    6   11 ar
    15    6    7 ar
    16    7    8 ar
    17    7   39 1
    18    8    9 ar
    19    8   47 1
    20    9   10 ar
    21    9   29 1
    22   10   11 ar
    23   10   48 1
    24   11   12 1
    25   12   13 1
    26   13   14 1
    27   13   49 1
    28   13   50 1
    29   14   19 ar
    30   14   15 ar
    31   15   16 ar
    32   15   51 1
    33   16   17 ar
    34   16   52 1
    35   17   18 ar
    36   17   20 1
    37   18   19 ar
    38   18   53 1
    39   19   54 1
    40   20   25 ar
    41   20   21 ar
    42   21   22 ar
    43   21   55 1
    44   22   23 ar
    45   22   56 1
    46   23   24 ar
    47   23   57 1
    48   24   25 ar
    49   24   58 1
    50   25   26 1
    51   26   27 2
    52   26   28 1
    53   29   37 1
    54   29   30 2
    55   30   31 1
    56   31   36 ar
    57   31   32 ar
    58   32   33 ar
    59   32   59 1
    60   33   34 ar
    61   33   60 1
    62   34   35 ar
    63   34   61 1
    64   35   36 ar
    65   35   62 1
    66   36   37 1
    67   37   38 1
    68   38   63 1
    69   38   64 1
    70   38   65 1
    71   39   66 1
    72   39   67 1
    73   39   68 1
@<TRIPOS>MOLECULE
ZINC01530886
   69    74     0     0     0
SMALL
USER_CHARGES

@<TRIPOS>ATOM
      1 C1          0.8671    1.5147   -0.8610 C.3       1 <0>        -0.1543
      2 C2          0.6450    0.0015   -0.8215 C.3       1 <0>        -0.1168
      3 C3          1.1107   -0.6170   -2.1411 C.3       1 <0>        -0.0598
      4 C4          0.8919   -2.1076   -2.1021 C.2       1 <0>         0.3306
      5 N1          1.7590   -2.9772   -1.6704 N.2       1 <0>        -0.4921
      6 C5          1.2430   -4.2276   -1.7744 C.ar      1 <0>         0.1019
      7 C6          1.7352   -5.5000   -1.4624 C.ar      1 <0>        -0.0150
      8 C7          0.9663   -6.6028   -1.6841 C.ar      1 <0>        -0.1017
      9 C8         -0.3199   -6.4765   -2.2244 C.ar      1 <0>        -0.1051
     10 C9         -0.8250   -5.2178   -2.5404 C.ar      1 <0>        -0.0358
     11 C10        -0.0479   -4.0934   -2.3167 C.ar      1 <0>         0.0437
     12 N2         -0.2420   -2.7389   -2.5073 N.pl3     1 <0>        -0.4663
     13 C11        -1.4448   -2.1016   -3.0490 C.3       1 <0>         0.1517
     14 C12        -1.3258   -1.9959   -4.5475 C.ar      1 <0>        -0.1396
     15 C13        -0.7488   -0.8741   -5.1154 C.ar      1 <0>        -0.1110
     16 C14        -0.6370   -0.7717   -6.4869 C.ar      1 <0>        -0.1121
     17 C15        -1.1068   -1.8020   -7.3009 C.ar      1 <0>         0.0196
     18 C16        -1.6871   -2.9305   -6.7225 C.ar      1 <0>        -0.0192
     19 C17        -1.7889   -3.0236   -5.3496 C.ar      1 <0>        -0.1121
     20 C18        -0.9903   -1.6979   -8.7742 C.ar      1 <0>        -0.0427
     21 C19         0.2575   -1.5306   -9.3680 C.ar      1 <0>        -0.1228
     22 C20         0.3619   -1.4345  -10.7410 C.ar      1 <0>        -0.1274
     23 C21        -0.7694   -1.5033  -11.5381 C.ar      1 <0>        -0.1308
     24 C22        -2.0148   -1.6684  -10.9700 C.ar      1 <0>        -0.0866
     25 C23        -2.1401   -1.7734   -9.5828 C.ar      1 <0>        -0.1205
     26 C24        -3.4669   -1.9560   -8.9699 C.2       1 <0>         0.5167
     27 O1         -4.4464   -2.1471   -9.6773 O.co2     1 <0>        -0.6806
     28 O2         -3.5893   -1.9165   -7.7534 O.co2     1 <0>        -0.6712
     29 C25        -1.1424   -7.6815   -2.4598 C.cat     1 <0>         0.4619
     30 N3         -0.6817   -8.8439   -2.8541 N.pl3     1 <0>        -0.4949
     31 C26        -1.7055   -9.7243   -2.9693 C.ar      1 <0>         0.0520
     32 C27        -1.7782  -11.0697   -3.3451 C.ar      1 <0>        -0.0785
     33 C28        -2.9866  -11.7062   -3.3662 C.ar      1 <0>        -0.0821
     34 C29        -4.1483  -11.0317   -3.0178 C.ar      1 <0>        -0.0706
     35 C30        -4.1012   -9.7052   -2.6440 C.ar      1 <0>        -0.0876
     36 C31        -2.8828   -9.0410   -2.6163 C.ar      1 <0>         0.0794
     37 N4         -2.4995   -7.7537   -2.2933 N.pl3     1 <0>        -0.4316
     38 C32        -3.3809   -6.6677   -1.8572 C.3       1 <0>         0.0561
     39 C33         3.1174   -5.6507   -0.8811 C.3       1 <0>        -0.1156
     40 H1          1.9273    1.7227   -1.0056 H         1 <0>         0.0607
     41 H2          0.2970    1.9442   -1.6848 H         1 <0>         0.0597
     42 H3          0.5353    1.9554    0.0791 H         1 <0>         0.0614
     43 H4          1.2151   -0.4280    0.0023 H         1 <0>         0.0727
     44 H5         -0.4152   -0.2065   -0.6769 H         1 <0>         0.0627
     45 H6          0.5406   -0.1875   -2.9649 H         1 <0>         0.0961
     46 H7          2.1709   -0.4091   -2.2856 H         1 <0>         0.1088
     47 H8          1.3517   -7.5821   -1.4417 H         1 <0>         0.1367
     48 H9         -1.8163   -5.1191   -2.9577 H         1 <0>         0.1352
     49 H10        -2.3192   -2.7009   -2.7953 H         1 <0>         0.0980
     50 H11        -1.5514   -1.1045   -2.6218 H         1 <0>         0.1081
     51 H12        -0.3853   -0.0769   -4.4840 H         1 <0>         0.1154
     52 H13        -0.1870    0.1049   -6.9292 H         1 <0>         0.1197
     53 H14        -2.0530   -3.7314   -7.3478 H         1 <0>         0.1141
     54 H15        -2.2348   -3.8987   -4.9003 H         1 <0>         0.1020
     55 H16         1.1443   -1.4755   -8.7541 H         1 <0>         0.1155
     56 H17         1.3321   -1.3043  -11.1972 H         1 <0>         0.1170
     57 H18        -0.6751   -1.4269  -12.6113 H         1 <0>         0.1176
     58 H19        -2.8923   -1.7209  -11.5974 H         1 <0>         0.1292
     59 H20        -0.8805  -11.6042   -3.6185 H         1 <0>         0.1511
     60 H21        -3.0385  -12.7449   -3.6573 H         1 <0>         0.1542
     61 H22        -5.0960  -11.5493   -3.0400 H         1 <0>         0.1547
     62 H23        -5.0084   -9.1854   -2.3736 H         1 <0>         0.1505
     63 H24        -3.6630   -6.0610   -2.7176 H         1 <0>         0.1079
     64 H25        -4.2765   -7.0882   -1.3998 H         1 <0>         0.1168
     65 H26        -2.8590   -6.0461   -1.1297 H         1 <0>         0.1122
     66 H27         3.0611   -5.6054    0.2065 H         1 <0>         0.0797
     67 H28         3.5361   -6.6105   -1.1836 H         1 <0>         0.0715
     68 H29         3.7547   -4.8451   -1.2458 H         1 <0>         0.0823
     69 H30         0.2500   -9.0432   -3.0360 H         1 <0>         0.4596
@<TRIPOS>BOND
     1    1    2 1
     2    1   40 1
     3    1   41 1
     4    1   42 1
     5    2    3 1
     6    2   43 1
     7    2   44 1
     8    3    4 1
     9    3   45 1
    10    3   46 1
    11    4   12 1
    12    4    5 2
    13    5    6 1
    14    6   11 ar
    15    6    7 ar
    16    7    8 ar
    17    7   39 1
    18    8    9 ar
    19    8   47 1
    20    9   10 ar
    21    9   29 1
    22   10   11 ar
    23   10   48 1
    24   11   12 1
    25   12   13 1
    26   13   14 1
    27   13   49 1
    28   13   50 1
    29   14   19 ar
    30   14   15 ar
    31   15   16 ar
    32   15   51 1
    33   16   17 ar
    34   16   52 1
    35   17   18 ar
    36   17   20 1
    37   18   19 ar
    38   18   53 1
    39   19   54 1
    40   20   25 ar
    41   20   21 ar
    42   21   22 ar
    43   21   55 1
    44   22   23 ar
    45   22   56 1
    46   23   24 ar
    47   23   57 1
    48   24   25 ar
    49   24   58 1
    50   25   26 1
    51   26   27 2
    52   26   28 1
    53   29   37 1
    54   29   30 2
    55   30   31 1
    56   30   69 1
    57   31   36 ar
    58   31   32 ar
    59   32   33 ar
    60   32   59 1
    61   33   34 ar
    62   33   60 1
    63   34   35 ar
    64   34   61 1
    65   35   36 ar
    66   35   62 1
    67   36   37 1
    68   37   38 1
    69   38   63 1
    70   38   64 1
    71   38   65 1
    72   39   66 1
    73   39   67 1
    74   39   68 1
@<TRIPOS>MOLECULE
ZINC13897226
   59    61     0     0     0
SMALL
USER_CHARGES

@<TRIPOS>ATOM
      1 C1         -3.7969    2.9532   -0.4862 C.3       1 <0>        -0.1486
      2 C2         -2.9165    1.7278   -0.2328 C.3       1 <0>        -0.1263
      3 C3         -3.6855    0.4603   -0.6108 C.3       1 <0>        -0.0989
      4 C4         -2.8050   -0.7650   -0.3574 C.3       1 <0>        -0.1413
      5 C5         -3.5625   -2.0135   -0.7298 C.2       1 <0>         0.5120
      6 O1         -4.7244   -1.9392   -1.0694 O.2       1 <0>        -0.5694
      7 N1         -2.9487   -3.2126   -0.6853 N.am      1 <0>        -0.5545
      8 C6         -3.6474   -4.4110   -1.1565 C.3       1 <0>         0.1448
      9 C7         -3.5174   -4.5120   -2.6544 C.ar      1 <0>        -0.0337
     10 C8         -3.9547   -3.4724   -3.4555 C.ar      1 <0>        -0.1404
     11 C9         -3.8383   -3.5592   -4.8278 C.ar      1 <0>        -0.1117
     12 C10        -3.2787   -4.6974   -5.4066 C.ar      1 <0>        -0.0730
     13 C11        -2.8397   -5.7419   -4.5941 C.ar      1 <0>         0.0067
     14 C12        -2.9561   -5.6414   -3.2227 C.ar      1 <0>        -0.0720
     15 C13        -3.1513   -4.7969   -6.8799 C.ar      1 <0>        -0.0204
     16 C14        -4.2453   -4.5256   -7.6972 C.ar      1 <0>        -0.1165
     17 C15        -4.1224   -4.6194   -9.0687 C.ar      1 <0>        -0.1460
     18 C16        -2.9148   -4.9828   -9.6411 C.ar      1 <0>        -0.1342
     19 C17        -1.8199   -5.2554   -8.8469 C.ar      1 <0>        -0.1120
     20 C18        -1.9243   -5.1600   -7.4602 C.ar      1 <0>         0.0605
     21 C19        -0.7526   -5.4455   -6.6048 C.2       1 <0>         0.0411
     22 N2         -0.7084   -5.4059   -5.2715 N.2       1 <0>        -0.2981
     23 N3          0.4903   -5.7181   -4.9143 N.2       1 <0>        -0.1577
     24 N4          1.1990   -5.9514   -5.9629 N.2       1 <0>        -0.2169
     25 N5          0.4676   -5.7993   -7.0136 N.2       1 <0>        -0.3836
     26 C20        -1.5829   -3.3175   -0.1660 C.3       1 <0>         0.0577
     27 H1         -1.1746   -2.3186   -0.0130 H         1 <0>         0.0722
     28 C21        -1.6002   -4.0708    1.1657 C.3       1 <0>        -0.0851
     29 C22        -2.4544   -3.3019    2.1755 C.3       1 <0>        -0.1425
     30 C23        -2.1918   -5.4659    0.9548 C.3       1 <0>        -0.1465
     31 C24        -0.7255   -4.0647   -1.1547 C.2       1 <0>         0.4694
     32 O2         -1.0884   -4.1776   -2.3132 O.co2     1 <0>        -0.6053
     33 O3          0.3310   -4.5564   -0.7962 O.co2     1 <0>        -0.7028
     34 H2         -3.2490    3.8562   -0.2168 H         1 <0>         0.0482
     35 H3         -4.0682    2.9938   -1.5411 H         1 <0>         0.0535
     36 H4         -4.7008    2.8825    0.1190 H         1 <0>         0.0511
     37 H5         -2.0126    1.7985   -0.8379 H         1 <0>         0.0615
     38 H6         -2.6452    1.6872    0.8222 H         1 <0>         0.0581
     39 H7         -4.5893    0.3897   -0.0057 H         1 <0>         0.0647
     40 H8         -3.9567    0.5009   -1.6657 H         1 <0>         0.0663
     41 H9         -1.9012   -0.6944   -0.9625 H         1 <0>         0.0888
     42 H10        -2.5338   -0.8057    0.6975 H         1 <0>         0.0828
     43 H11        -3.2070   -5.2939   -0.6932 H         1 <0>         0.0992
     44 H12        -4.7015   -4.3466   -0.8867 H         1 <0>         0.0635
     45 H13        -4.3884   -2.5913   -3.0061 H         1 <0>         0.1134
     46 H14        -4.1804   -2.7471   -5.4523 H         1 <0>         0.0927
     47 H15        -2.4053   -6.6260   -5.0369 H         1 <0>         0.0976
     48 H16        -2.6124   -6.4480   -2.5921 H         1 <0>         0.0938
     49 H17        -5.1902   -4.2420   -7.2579 H         1 <0>         0.1156
     50 H18        -4.9733   -4.4085   -9.6995 H         1 <0>         0.1083
     51 H19        -2.8296   -5.0535  -10.7154 H         1 <0>         0.1094
     52 H20        -0.8812   -5.5385   -9.2997 H         1 <0>         0.1227
     53 H21        -0.5823   -4.1613    1.5451 H         1 <0>         0.0814
     54 H22        -3.4723   -3.2114    1.7961 H         1 <0>         0.0493
     55 H23        -2.4667   -3.8385    3.1242 H         1 <0>         0.0434
     56 H24        -2.0330   -2.3080    2.3258 H         1 <0>         0.0437
     57 H25        -1.9698   -6.0894    1.8209 H         1 <0>         0.0382
     58 H26        -3.2718   -5.3876    0.8307 H         1 <0>         0.0530
     59 H27        -1.7551   -5.9147    0.0626 H         1 <0>         0.0727
@<TRIPOS>BOND
     1    1    2 1
     2    1   34 1
     3    1   35 1
     4    1   36 1
     5    2    3 1
     6    2   37 1
     7    2   38 1
     8    3    4 1
     9    3   39 1
    10    3   40 1
    11    4    5 1
    12    4   41 1
    13    4   42 1
    14    5    6 2
    15    5    7 am
    16    7    8 1
    17    7   26 1
    18    8    9 1
    19    8   43 1
    20    8   44 1
    21    9   14 ar
    22    9   10 ar
    23   10   11 ar
    24   10   45 1
    25   11   12 ar
    26   11   46 1
    27   12   13 ar
    28   12   15 1
    29   13   14 ar
    30   13   47 1
    31   14   48 1
    32   15   20 ar
    33   15   16 ar
    34   16   17 ar
    35   16   49 1
    36   17   18 ar
    37   17   50 1
    38   18   19 ar
    39   18   51 1
    40   19   20 ar
    41   19   52 1
    42   20   21 1
    43   21   25 2
    44   21   22 1
    45   22   23 1
    46   23   24 2
    47   24   25 1
    48   26   27 1
    49   26   28 1
    50   26   31 1
    51   28   29 1
    52   28   30 1
    53   28   53 1
    54   29   54 1
    55   29   55 1
    56   29   56 1
    57   30   57 1
    58   30   58 1
    59   30   59 1
    60   31   32 2
    61   31   33 1
@<TRIPOS>MOLECULE
ZINC27076225
   54    57     0     0     0
SMALL
USER_CHARGES
5-ethyl-2-propyl-3-[[4-[2-(2H-tetrazol-5-yl)phenyl]phenyl]methyl]imidazole-4-carboxylic acid
@<TRIPOS>ATOM
      1 C1         -2.7740   -2.0727   -1.4737 C.3       1 <0>        -0.1574
      2 C2         -1.4771   -1.2617   -1.4399 C.3       1 <0>        -0.1228
      3 C3         -1.1660   -0.8571    0.0025 C.3       1 <0>        -0.0758
      4 C4          0.0432    0.0421    0.0223 C.cat     1 <0>         0.2677
      5 N1          1.2881   -0.3615    0.0381 N.pl3     1 <0>        -0.4945
      6 C5          2.1023    0.6935    0.0530 C.2       1 <0>         0.0538
      7 C6          1.3265    1.8197    0.0462 C.2       1 <0>         0.0358
      8 N2          0.0144    1.3864    0.0266 N.pl3     1 <0>        -0.3583
      9 C7         -1.1819    2.2320    0.0184 C.3       1 <0>         0.1299
     10 C8         -1.6835    2.4063    1.4288 C.ar      1 <0>        -0.1247
     11 C9         -2.6994    1.5964    1.9038 C.ar      1 <0>        -0.1187
     12 C10        -3.1588    1.7476    3.1963 C.ar      1 <0>         0.0009
     13 C11        -2.6053    2.7268    4.0198 C.ar      1 <0>        -0.0293
     14 C12        -1.5856    3.5438    3.5337 C.ar      1 <0>        -0.1080
     15 C13        -1.1301    3.3793    2.2415 C.ar      1 <0>        -0.1036
     16 C14        -3.0993    2.8989    5.4068 C.ar      1 <0>        -0.0430
     17 C15        -2.2006    2.9452    6.4694 C.ar      1 <0>        -0.1081
     18 C16        -2.6646    3.1113    7.7586 C.ar      1 <0>        -0.1351
     19 C17        -4.0226    3.2213    8.0051 C.ar      1 <0>        -0.1199
     20 C18        -4.9271    3.1717    6.9636 C.ar      1 <0>        -0.1044
     21 C19        -4.4758    3.0104    5.6568 C.ar      1 <0>         0.0536
     22 C20        -5.4442    2.9561    4.5348 C.2       1 <0>         0.0747
     23 N3         -6.7568    3.0469    4.6221 N.2       1 <0>        -0.3633
     24 N4         -7.2384    2.9559    3.4302 N.2       1 <0>        -0.1967
     25 N5         -6.2734    2.8103    2.5907 N.2       1 <0>        -0.1862
     26 N6         -5.1551    2.8109    3.2335 N.2       1 <0>        -0.3566
     27 C21         1.7936    3.2092    0.0575 C.2       1 <0>         0.5165
     28 O1          2.9854    3.4499    0.0748 O.co2     1 <0>        -0.5861
     29 O2          0.9014    4.2206    0.0487 O.co2     1 <0>        -0.7048
     30 C22         3.6086    0.6528    0.0745 C.3       1 <0>        -0.0556
     31 C23         4.0977    0.6334    1.5241 C.3       1 <0>        -0.1465
     32 H1         -2.9976   -2.3636   -2.5107 H         1 <0>         0.0645
     33 H2         -3.5989   -1.4618   -1.0782 H         1 <0>         0.0667
     34 H3         -2.6579   -2.9758   -0.8565 H         1 <0>         0.0605
     35 H4         -0.6522   -1.8726   -1.8354 H         1 <0>         0.0697
     36 H5         -1.5932   -0.3586   -2.0571 H         1 <0>         0.0737
     37 H6         -2.0280   -0.3218    0.4272 H         1 <0>         0.1206
     38 H7         -0.9630   -1.7579    0.6003 H         1 <0>         0.1117
     39 H8         -0.9327    3.2156   -0.4064 H         1 <0>         0.1553
     40 H9         -1.9632    1.7561   -0.5925 H         1 <0>         0.1049
     41 H10        -3.1307    0.8413    1.2634 H         1 <0>         0.1100
     42 H11        -3.9488    1.1116    3.5676 H         1 <0>         0.1159
     43 H12        -1.1533    4.3043    4.1671 H         1 <0>         0.1165
     44 H13        -0.3402    4.0117    1.8639 H         1 <0>         0.1461
     45 H14        -1.1404    2.8555    6.2843 H         1 <0>         0.1201
     46 H15        -1.9647    3.1513    8.5802 H         1 <0>         0.1175
     47 H16        -4.3761    3.3462    9.0179 H         1 <0>         0.1189
     48 H17        -5.9851    3.2584    7.1627 H         1 <0>         0.1293
     49 H18         3.9583   -0.2529   -0.4426 H         1 <0>         0.0760
     50 H19         4.0068    1.5427   -0.4349 H         1 <0>         0.1240
     51 H20         5.1972    0.6037    1.5397 H         1 <0>         0.0695
     52 H21         3.6996   -0.2565    2.0335 H         1 <0>         0.0466
     53 H22         3.7480    1.5391    2.0412 H         1 <0>         0.0704
     54 H23         1.5176   -1.4373    0.0375 H         1 <0>         0.4781
@<TRIPOS>BOND
     1    1    2 1
     2    1   32 1
     3    1   33 1
     4    1   34 1
     5    2    3 1
     6    2   35 1
     7    2   36 1
     8    3    4 1
     9    3   37 1
    10    3   38 1
    11    4    8 1
    12    4    5 2
    13    5    6 1
    14    5   54 1
    15    6    7 2
    16    6   30 1
    17    7    8 1
    18    7   27 1
    19    8    9 1
    20    9   10 1
    21    9   39 1
    22    9   40 1
    23   10   15 ar
    24   10   11 ar
    25   11   12 ar
    26   11   41 1
    27   12   13 ar
    28   12   42 1
    29   13   14 ar
    30   13   16 1
    31   14   15 ar
    32   14   43 1
    33   15   44 1
    34   16   21 ar
    35   16   17 ar
    36   17   18 ar
    37   17   45 1
    38   18   19 ar
    39   18   46 1
    40   19   20 ar
    41   19   47 1
    42   20   21 ar
    43   20   48 1
    44   21   22 1
    45   22   26 1
    46   22   23 2
    47   23   24 1
    48   24   25 2
    49   25   26 1
    50   27   28 2
    51   27   29 1
    52   30   31 1
    53   30   49 1
    54   30   50 1
    55   31   51 1
    56   31   52 1
    57   31   53 1
@<TRIPOS>MOLECULE
ZINC01533713
   53    56     0     0     0
SMALL
USER_CHARGES
4-[butyl-[[4-[2-(1H-tetrazol-5-yl)phenyl]phenyl]methyl]amino]pyrimidine-5-carboxylic acid
@<TRIPOS>ATOM
      1 C1          7.1844   12.1150    1.5186 C.3       1 <0>        -0.1489
      2 C2          7.5965   10.7869    0.8804 C.3       1 <0>        -0.1182
      3 C3          6.5201    9.7343    1.1533 C.3       1 <0>        -0.1144
      4 C4          6.9322    8.4062    0.5151 C.3       1 <0>         0.0697
      5 N1          5.8988    7.3955    0.7772 N.pl3     1 <0>        -0.4489
      6 C5          6.1385    6.1804   -0.0127 C.3       1 <0>         0.1059
      7 C6          4.8612    5.3872   -0.1144 C.ar      1 <0>        -0.0639
      8 C7          3.9339    5.6970   -1.0932 C.ar      1 <0>        -0.0994
      9 C8          2.7623    4.9745   -1.1909 C.ar      1 <0>        -0.1011
     10 C9          2.5140    3.9306   -0.3008 C.ar      1 <0>        -0.0578
     11 C10         3.4496    3.6267    0.6872 C.ar      1 <0>         0.0120
     12 C11         4.6203    4.3525    0.7716 C.ar      1 <0>        -0.1199
     13 C12         1.2575    3.1508   -0.4006 C.ar      1 <0>        -0.0166
     14 C13         0.0309    3.8055   -0.4718 C.ar      1 <0>        -0.1093
     15 C14        -1.1369    3.0756   -0.5646 C.ar      1 <0>        -0.1313
     16 C15        -1.0980    1.6915   -0.5920 C.ar      1 <0>        -0.1325
     17 C16         0.1080    1.0254   -0.5170 C.ar      1 <0>        -0.1035
     18 C17         1.2973    1.7464   -0.4234 C.ar      1 <0>         0.0396
     19 C18         2.5926    1.0378   -0.3480 C.2       1 <0>         0.1269
     20 N2          4.1701   -0.4859   -0.2674 N.2       1 <0>        -0.2182
     21 N3          4.6965    0.6892   -0.2104 N.2       1 <0>        -0.1603
     22 N4          3.7840    1.5915   -0.2567 N.2       1 <0>        -0.3723
     23 C19         5.8232    7.1036    2.1221 C.ar      1 <0>         0.3720
     24 C20         4.6412    7.3615    2.8489 C.ar      1 <0>        -0.1722
     25 C21         4.6253    7.0439    4.2102 C.ar      1 <0>         0.1659
     26 N5          5.7080    6.5193    4.7585 N.ar      1 <0>        -0.5404
     27 C22         6.7946    6.2930    4.0450 C.ar      1 <0>         0.2796
     28 N6          6.8605    6.5684    2.7588 N.ar      1 <0>        -0.5642
     29 C23         3.4597    7.9472    2.1927 C.2       1 <0>         0.5000
     30 O1          3.5242    8.3071    1.0338 O.co2     1 <0>        -0.5764
     31 H1          6.2372   12.4447    1.0918 H         1 <0>         0.0561
     32 H2          7.0713   11.9815    2.5944 H         1 <0>         0.0505
     33 H3          7.9512   12.8648    1.3241 H         1 <0>         0.0466
     34 H4          8.5437   10.4571    1.3071 H         1 <0>         0.0532
     35 H5          7.7096   10.9204   -0.1955 H         1 <0>         0.0594
     36 H6          5.5729   10.0640    0.7265 H         1 <0>         0.0851
     37 H7          6.4070    9.6008    2.2292 H         1 <0>         0.0488
     38 H8          7.8794    8.0764    0.9419 H         1 <0>         0.0368
     39 H9          7.0453    8.5397   -0.5608 H         1 <0>         0.0750
     40 H10         6.9038    5.5758    0.4740 H         1 <0>         0.0502
     41 H11         6.4750    6.4570   -1.0119 H         1 <0>         0.0792
     42 H12         4.1276    6.5057   -1.7824 H         1 <0>         0.1096
     43 H13         2.0389    5.2175   -1.9552 H         1 <0>         0.1067
     44 H14         3.2606    2.8220    1.3822 H         1 <0>         0.1033
     45 H15         5.3478    4.1152    1.5337 H         1 <0>         0.0952
     46 H16        -0.0069    4.8847   -0.4548 H         1 <0>         0.1251
     47 H17        -2.0865    3.5870   -0.6201 H         1 <0>         0.1152
     48 H18        -2.0174    1.1301   -0.6690 H         1 <0>         0.1142
     49 H19         0.1308   -0.0542   -0.5355 H         1 <0>         0.1247
     50 H20         3.7422    7.2247    4.8050 H         1 <0>         0.1715
     51 H21         7.6576    5.8628    4.5312 H         1 <0>         0.1804
     52 N7          2.7982   -0.2864   -0.3523 N.2       1 <0>        -0.4197
     53 O2          2.3071    8.0839    2.8775 O.co2     1 <0>        -0.7691
@<TRIPOS>BOND
     1    1    2 1
     2    1   31 1
     3    1   32 1
     4    1   33 1
     5    2    3 1
     6    2   34 1
     7    2   35 1
     8    3    4 1
     9    3   36 1
    10    3   37 1
    11    4    5 1
    12    4   38 1
    13    4   39 1
    14    5    6 1
    15    5   23 1
    16    6    7 1
    17    6   40 1
    18    6   41 1
    19    7   12 ar
    20    7    8 ar
    21    8    9 ar
    22    8   42 1
    23    9   10 ar
    24    9   43 1
    25   10   11 ar
    26   10   13 1
    27   11   12 ar
    28   11   44 1
    29   12   45 1
    30   13   18 ar
    31   13   14 ar
    32   14   15 ar
    33   14   46 1
    34   15   16 ar
    35   15   47 1
    36   16   17 ar
    37   16   48 1
    38   17   18 ar
    39   17   49 1
    40   18   19 1
    41   19   22 2
    42   19   52 1
    43   20   21 2
    44   20   52 1
    45   21   22 1
    46   23   28 ar
    47   23   24 ar
    48   24   25 ar
    49   24   29 1
    50   25   26 ar
    51   25   50 1
    52   26   27 ar
    53   27   28 ar
    54   27   51 1
    55   29   30 2
    56   29   53 1
@<TRIPOS>MOLECULE
ZINC13298436
   59    63     0     0     0
SMALL
USER_CHARGES

@<TRIPOS>ATOM
      1 C1         -0.0187    1.5258    0.0104 C.3       1 <0>        -0.1515
      2 C2          0.0021   -0.0041    0.0020 C.3       1 <0>        -0.1259
      3 C3          0.7182   -0.4975   -1.2568 C.3       1 <0>        -0.1042
      4 C4          0.7390   -2.0273   -1.2652 C.3       1 <0>        -0.0650
      5 C5          1.4443   -2.5133   -2.5051 C.2       1 <0>         0.3553
      6 N1          1.9446   -1.7244   -3.3941 N.2       1 <0>        -0.5026
      7 C6          2.5387   -2.5645   -4.4341 C.3       1 <0>         0.0372
      8 C7          1.8838   -2.3055   -5.7977 C.3       1 <0>        -0.0921
      9 C8          2.8711   -1.3460   -6.5115 C.3       1 <0>        -0.1154
     10 C9          4.2550   -1.8748   -6.0570 C.3       1 <0>        -0.1201
     11 C10         4.0372   -2.2917   -4.5855 C.3       1 <0>        -0.0895
     12 C11         2.2851   -3.9781   -3.9734 C.2       1 <0>         0.5093
     13 O1          2.6050   -5.0082   -4.5272 O.2       1 <0>        -0.4735
     14 N2          1.6252   -3.8381   -2.8007 N.am      1 <0>        -0.5752
     15 C12         1.1649   -4.9497   -1.9648 C.3       1 <0>         0.1579
     16 C13        -0.2301   -5.3438   -2.3767 C.ar      1 <0>        -0.1153
     17 C14        -1.3216   -4.7387   -1.7799 C.ar      1 <0>        -0.1319
     18 C15        -2.6014   -5.0955   -2.1530 C.ar      1 <0>        -0.1050
     19 C16        -2.7931   -6.0679   -3.1335 C.ar      1 <0>        -0.0388
     20 C17        -1.6892   -6.6744   -3.7314 C.ar      1 <0>         0.0104
     21 C18        -0.4142   -6.3053   -3.3541 C.ar      1 <0>        -0.1071
     22 C19        -4.1651   -6.4559   -3.5382 C.ar      1 <0>        -0.0425
     23 C20        -5.1143   -6.7811   -2.5730 C.ar      1 <0>        -0.1084
     24 C21        -6.3909   -7.1419   -2.9542 C.ar      1 <0>        -0.1368
     25 C22        -6.7368   -7.1832   -4.2946 C.ar      1 <0>        -0.1204
     26 C23        -5.8093   -6.8642   -5.2650 C.ar      1 <0>        -0.1049
     27 C24        -4.5171   -6.4920   -4.8980 C.ar      1 <0>         0.0552
     28 C25        -3.5210   -6.1438   -5.9336 C.2       1 <0>         0.0680
     29 N3         -2.2520   -5.7828   -5.7320 N.2       1 <0>        -0.3506
     30 N4         -1.7232   -5.5650   -6.8873 N.2       1 <0>        -0.1875
     31 N5         -2.6028   -5.7729   -7.8034 N.2       1 <0>        -0.1914
     32 N6         -3.7120   -6.1340   -7.2544 N.2       1 <0>        -0.3651
     33 H1          1.0039    1.9031    0.0027 H         1 <0>         0.0533
     34 H2         -0.5459    1.8868   -0.8726 H         1 <0>         0.0548
     35 H3         -0.5289    1.8773    0.9072 H         1 <0>         0.0516
     36 H4          0.5293   -0.3651    0.8851 H         1 <0>         0.0605
     37 H5         -1.0205   -0.3814    0.0098 H         1 <0>         0.0625
     38 H6          0.1910   -0.1364   -2.1398 H         1 <0>         0.0733
     39 H7          1.7408   -0.1202   -1.2645 H         1 <0>         0.0716
     40 H8          1.2661   -2.3884   -0.3821 H         1 <0>         0.0910
     41 H9         -0.2836   -2.4046   -1.2575 H         1 <0>         0.0973
     42 H10         1.7838   -3.2360   -6.3566 H         1 <0>         0.0828
     43 H11         0.9120   -1.8286   -5.6706 H         1 <0>         0.0768
     44 H12         2.7663   -1.4197   -7.5940 H         1 <0>         0.0710
     45 H13         2.7214   -0.3194   -6.1772 H         1 <0>         0.0713
     46 H14         4.5506   -2.7352   -6.6575 H         1 <0>         0.0696
     47 H15         5.0050   -1.0867   -6.1232 H         1 <0>         0.0690
     48 H16         4.3401   -1.4844   -3.9188 H         1 <0>         0.0802
     49 H17         4.6064   -3.1945   -4.3639 H         1 <0>         0.0673
     50 H18         1.8348   -5.8003   -2.0903 H         1 <0>         0.0927
     51 H19         1.1615   -4.6410   -0.9194 H         1 <0>         0.0916
     52 H20        -1.1718   -3.9857   -1.0203 H         1 <0>         0.1126
     53 H21        -3.4527   -4.6226   -1.6862 H         1 <0>         0.1142
     54 H22        -1.8317   -7.4283   -4.4914 H         1 <0>         0.1145
     55 H23         0.4417   -6.7712   -3.8197 H         1 <0>         0.1139
     56 H24        -4.8516   -6.7514   -1.5259 H         1 <0>         0.1200
     57 H25        -7.1244   -7.3938   -2.2027 H         1 <0>         0.1168
     58 H26        -7.7384   -7.4672   -4.5820 H         1 <0>         0.1182
     59 H27        -6.0856   -6.8988   -6.3085 H         1 <0>         0.1288
@<TRIPOS>BOND
     1    1    2 1
     2    1   33 1
     3    1   34 1
     4    1   35 1
     5    2    3 1
     6    2   36 1
     7    2   37 1
     8    3    4 1
     9    3   38 1
    10    3   39 1
    11    4    5 1
    12    4   40 1
    13    4   41 1
    14    5   14 1
    15    5    6 2
    16    6    7 1
    17    7   11 1
    18    7    8 1
    19    7   12 1
    20    8    9 1
    21    8   42 1
    22    8   43 1
    23    9   10 1
    24    9   44 1
    25    9   45 1
    26   10   11 1
    27   10   46 1
    28   10   47 1
    29   11   48 1
    30   11   49 1
    31   12   13 2
    32   12   14 am
    33   14   15 1
    34   15   16 1
    35   15   50 1
    36   15   51 1
    37   16   21 ar
    38   16   17 ar
    39   17   18 ar
    40   17   52 1
    41   18   19 ar
    42   18   53 1
    43   19   20 ar
    44   19   22 1
    45   20   21 ar
    46   20   54 1
    47   21   55 1
    48   22   27 ar
    49   22   23 ar
    50   23   24 ar
    51   23   56 1
    52   24   25 ar
    53   24   57 1
    54   25   26 ar
    55   25   58 1
    56   26   27 ar
    57   26   59 1
    58   27   28 1
    59   28   32 2
    60   28   29 1
    61   29   30 1
    62   30   31 2
    63   31   32 1
@<TRIPOS>MOLECULE
ZINC03783066
   69    73     0     0     0
SMALL
USER_CHARGES

@<TRIPOS>ATOM
      1 C1         -0.2101    1.4175   -4.4385 C.3       1 <0>        -0.1032
      2 C2         -0.1304    0.0033   -3.9241 C.ar      1 <0>        -0.0980
      3 C3          0.5410   -0.9602   -4.6513 C.ar      1 <0>        -0.0941
      4 C4          0.6141   -2.2580   -4.1803 C.ar      1 <0>        -0.1139
      5 C5          0.0161   -2.5962   -2.9800 C.ar      1 <0>        -0.0938
      6 C6         -0.6564   -1.6379   -2.2477 C.ar      1 <0>        -0.1193
      7 C7         -0.7273   -0.3316   -2.7155 C.ar      1 <0>         0.1758
      8 N1         -1.4021    0.6415   -1.9748 N.pl3     1 <0>        -0.6867
      9 C8         -0.6798    1.4341   -0.9767 C.3       1 <0>         0.1172
     10 C9         -2.8323    0.8694   -2.1960 C.3       1 <0>         0.1183
     11 C10         1.3467   -3.3067   -4.9770 C.3       1 <0>         0.1474
     12 N2          2.7527   -3.3381   -4.5665 N.pl3     1 <0>        -0.4464
     13 C11         3.7775   -2.6802   -5.1560 C.2       1 <0>         0.1635
     14 N3          4.8801   -2.9513   -4.5073 N.2       1 <0>        -0.4772
     15 C12         4.6007   -3.7784   -3.4977 C.2       1 <0>        -0.0264
     16 C13         3.2742   -4.0305   -3.5158 C.2       1 <0>         0.0117
     17 C14         2.5550   -4.9247   -2.5403 C.3       1 <0>        -0.0457
     18 C15         3.4421   -5.1232   -1.3045 C.3       1 <0>         0.0858
     19 H1          3.4285   -4.2183   -0.6970 H         1 <0>         0.0631
     20 N4          4.8186   -5.4024   -1.7400 N.am      1 <0>        -0.5941
     21 C16         5.5502   -4.3574   -2.4758 C.3       1 <0>         0.2048
     22 C17         5.3982   -6.5903   -1.4767 C.2       1 <0>         0.5028
     23 O1          4.7536   -7.4784   -0.9603 O.2       1 <0>        -0.4450
     24 C18         6.8474   -6.8150   -1.8238 C.3       1 <0>        -0.0317
     25 C19         7.7019   -5.8204   -1.0811 C.ar      1 <0>        -0.0647
     26 C20         7.4999   -5.6083    0.2698 C.ar      1 <0>        -0.1008
     27 C21         8.2837   -4.6959    0.9510 C.ar      1 <0>        -0.1149
     28 C22         9.2698   -3.9959    0.2814 C.ar      1 <0>        -0.1231
     29 C23         9.4724   -4.2086   -1.0694 C.ar      1 <0>        -0.1197
     30 C24         8.6914   -5.1241   -1.7497 C.ar      1 <0>        -0.1111
     31 C25         7.2472   -8.2136   -1.4299 C.ar      1 <0>        -0.0567
     32 C26         7.0645   -8.6443   -0.1292 C.ar      1 <0>        -0.0721
     33 C27         7.4312   -9.9272    0.2321 C.ar      1 <0>        -0.1224
     34 C28         7.9803  -10.7796   -0.7075 C.ar      1 <0>        -0.1225
     35 C29         8.1623  -10.3492   -2.0085 C.ar      1 <0>        -0.1287
     36 C30         7.7915   -9.0677   -2.3708 C.ar      1 <0>        -0.1114
     37 C31         2.9237   -6.2825   -0.4931 C.2       1 <0>         0.5181
     38 O2          2.6297   -7.3294   -1.0445 O.co2     1 <0>        -0.6612
     39 O3          2.7984   -6.1736    0.7148 O.co2     1 <0>        -0.7014
     40 H2          0.6424    1.9872   -4.0687 H         1 <0>         0.0652
     41 H3         -0.1962    1.4091   -5.5284 H         1 <0>         0.0606
     42 H4         -1.1341    1.8792   -4.0905 H         1 <0>         0.0670
     43 H5          1.0091   -0.6994   -5.5890 H         1 <0>         0.1214
     44 H6          0.0747   -3.6110   -2.6151 H         1 <0>         0.1287
     45 H7         -1.1235   -1.9027   -1.3107 H         1 <0>         0.1252
     46 H8          0.1251    1.9849   -1.4633 H         1 <0>         0.0392
     47 H9         -1.3666    2.1364   -0.5041 H         1 <0>         0.0644
     48 H10        -0.2607    0.7709   -0.2200 H         1 <0>         0.0421
     49 H11        -3.4097    0.2251   -1.5331 H         1 <0>         0.0336
     50 H12        -3.0705    1.9124   -1.9872 H         1 <0>         0.0561
     51 H13        -3.0807    0.6404   -3.2324 H         1 <0>         0.0530
     52 H14         0.8939   -4.2818   -4.7972 H         1 <0>         0.0997
     53 H15         1.2833   -3.0669   -6.0383 H         1 <0>         0.1013
     54 H16         3.6980   -2.0372   -6.0201 H         1 <0>         0.1997
     55 H17         1.6144   -4.4603   -2.2440 H         1 <0>         0.0714
     56 H18         2.3571   -5.8898   -3.0068 H         1 <0>         0.0908
     57 H19         6.4188   -4.7847   -2.9768 H         1 <0>         0.0877
     58 H20         5.8670   -3.5795   -1.7811 H         1 <0>         0.0703
     59 H21         6.9883   -6.6854   -2.8968 H         1 <0>         0.1021
     60 H22         6.7295   -6.1552    0.7930 H         1 <0>         0.1248
     61 H23         8.1254   -4.5297    2.0064 H         1 <0>         0.1210
     62 H24         9.8817   -3.2825    0.8134 H         1 <0>         0.1180
     63 H25        10.2426   -3.6614   -1.5927 H         1 <0>         0.1200
     64 H26         8.8522   -5.2930   -2.8042 H         1 <0>         0.1217
     65 H27         6.6355   -7.9784    0.6049 H         1 <0>         0.1227
     66 H28         7.2891  -10.2635    1.2485 H         1 <0>         0.1191
     67 H29         8.2675  -11.7817   -0.4251 H         1 <0>         0.1162
     68 H30         8.5916  -11.0150   -2.7425 H         1 <0>         0.1172
     69 H31         7.9302   -8.7327   -3.3881 H         1 <0>         0.1174
@<TRIPOS>BOND
     1    1    2 1
     2    1   40 1
     3    1   41 1
     4    1   42 1
     5    2    7 ar
     6    2    3 ar
     7    3    4 ar
     8    3   43 1
     9    4    5 ar
    10    4   11 1
    11    5    6 ar
    12    5   44 1
    13    6    7 ar
    14    6   45 1
    15    7    8 1
    16    8    9 1
    17    8   10 1
    18    9   46 1
    19    9   47 1
    20    9   48 1
    21   10   49 1
    22   10   50 1
    23   10   51 1
    24   11   12 1
    25   11   52 1
    26   11   53 1
    27   12   16 1
    28   12   13 1
    29   13   14 2
    30   13   54 1
    31   14   15 1
    32   15   21 1
    33   15   16 2
    34   16   17 1
    35   17   18 1
    36   17   55 1
    37   17   56 1
    38   18   19 1
    39   18   20 1
    40   18   37 1
    41   20   21 1
    42   20   22 am
    43   21   57 1
    44   21   58 1
    45   22   23 2
    46   22   24 1
    47   24   25 1
    48   24   31 1
    49   24   59 1
    50   25   30 ar
    51   25   26 ar
    52   26   27 ar
    53   26   60 1
    54   27   28 ar
    55   27   61 1
    56   28   29 ar
    57   28   62 1
    58   29   30 ar
    59   29   63 1
    60   30   64 1
    61   31   36 ar
    62   31   32 ar
    63   32   33 ar
    64   32   65 1
    65   33   34 ar
    66   33   66 1
    67   34   35 ar
    68   34   67 1
    69   35   36 ar
    70   35   68 1
    71   36   69 1
    72   37   38 2
    73   37   39 1
@<TRIPOS>MOLECULE
ZINC13298439
   52    55     0     0     0
SMALL
USER_CHARGES

@<TRIPOS>ATOM
      1 C1         -0.0187    1.5258    0.0104 C.3       1 <0>        -0.1520
      2 C2          0.0021   -0.0041    0.0020 C.3       1 <0>        -0.1243
      3 C3         -1.4333   -0.5336    0.0129 C.3       1 <0>        -0.1132
      4 C4         -1.4126   -2.0635    0.0045 C.3       1 <0>        -0.0387
      5 C5         -2.8264   -2.5851    0.0152 C.2       1 <0>         0.2364
      6 N1         -3.5317   -2.8487    1.0813 N.2       1 <0>        -0.4833
      7 C6         -4.7425   -3.2933    0.7126 C.2       1 <0>         0.0724
      8 C7         -4.7893   -3.3058   -0.6341 C.2       1 <0>         0.0070
      9 N2         -3.5749   -2.8515   -1.0765 N.pl3     1 <0>        -0.4283
     10 C8         -3.1642   -2.6880   -2.4732 C.3       1 <0>         0.1504
     11 C9         -2.5320   -3.9650   -2.9637 C.ar      1 <0>        -0.1207
     12 C10        -1.1697   -4.1584   -2.8210 C.ar      1 <0>        -0.1279
     13 C11        -0.5852   -5.3258   -3.2683 C.ar      1 <0>        -0.1070
     14 C12        -1.3705   -6.3112   -3.8649 C.ar      1 <0>        -0.0343
     15 C13        -2.7429   -6.1106   -4.0060 C.ar      1 <0>         0.0104
     16 C14        -3.3171   -4.9416   -3.5498 C.ar      1 <0>        -0.0911
     17 C15        -0.7486   -7.5670   -4.3478 C.ar      1 <0>        -0.0450
     18 C16         0.3817   -7.5216   -5.1593 C.ar      1 <0>        -0.1084
     19 C17         0.9577   -8.6934   -5.6068 C.ar      1 <0>        -0.1383
     20 C18         0.4183   -9.9190   -5.2536 C.ar      1 <0>        -0.1199
     21 C19        -0.7015   -9.9834   -4.4501 C.ar      1 <0>        -0.1062
     22 C20        -1.2929   -8.8103   -3.9843 C.ar      1 <0>         0.0581
     23 C21        -2.4897   -8.8737   -3.1184 C.2       1 <0>         0.0616
     24 N3         -3.1640   -7.8399   -2.6109 N.2       1 <0>        -0.3452
     25 N4         -4.1379   -8.3174   -1.9140 N.2       1 <0>        -0.1738
     26 N5         -4.1044   -9.6030   -1.9618 N.2       1 <0>        -0.1968
     27 N6         -3.1117   -9.9760   -2.6951 N.2       1 <0>        -0.3674
     28 C22        -5.9547   -3.7328   -1.4888 C.3       1 <0>         0.1509
     29 O1         -5.8570   -5.1318   -1.7630 O.3       1 <0>        -0.5319
     30 Cl1        -6.0238   -3.7700    1.7825 Cl        1 <0>        -0.0161
     31 H1          1.0039    1.9031    0.0027 H         1 <0>         0.0535
     32 H2         -0.5459    1.8868   -0.8726 H         1 <0>         0.0526
     33 H3         -0.5289    1.8773    0.9072 H         1 <0>         0.0538
     34 H4          0.5123   -0.3556   -0.8948 H         1 <0>         0.0633
     35 H5          0.5293   -0.3651    0.8851 H         1 <0>         0.0653
     36 H6         -1.9435   -0.1821    0.9097 H         1 <0>         0.0707
     37 H7         -1.9605   -0.1726   -0.8702 H         1 <0>         0.0600
     38 H8         -0.9024   -2.4150   -0.8923 H         1 <0>         0.0847
     39 H9         -0.8854   -2.4246    0.8875 H         1 <0>         0.0966
     40 H10        -4.0369   -2.4567   -3.0839 H         1 <0>         0.0952
     41 H11        -2.4431   -1.8739   -2.5470 H         1 <0>         0.0983
     42 H12        -0.5623   -3.3942   -2.3590 H         1 <0>         0.1109
     43 H13         0.4786   -5.4755   -3.1566 H         1 <0>         0.1139
     44 H14        -3.3562   -6.8705   -4.4674 H         1 <0>         0.1153
     45 H15        -4.3808   -4.7869   -3.6546 H         1 <0>         0.1143
     46 H16         0.8076   -6.5694   -5.4391 H         1 <0>         0.1193
     47 H17         1.8342   -8.6542   -6.2365 H         1 <0>         0.1164
     48 H18         0.8767  -10.8298   -5.6096 H         1 <0>         0.1178
     49 H19        -1.1173  -10.9425   -4.1788 H         1 <0>         0.1287
     50 H20        -6.8863   -3.5303   -0.9604 H         1 <0>         0.0664
     51 H21        -5.9406   -3.1769   -2.4263 H         1 <0>         0.0471
     52 H22        -6.5760   -5.4766   -2.3100 H         1 <0>         0.3784
@<TRIPOS>BOND
     1    1    2 1
     2    1   31 1
     3    1   32 1
     4    1   33 1
     5    2    3 1
     6    2   34 1
     7    2   35 1
     8    3    4 1
     9    3   36 1
    10    3   37 1
    11    4    5 1
    12    4   38 1
    13    4   39 1
    14    5    9 1
    15    5    6 2
    16    6    7 1
    17    7    8 2
    18    7   30 1
    19    8    9 1
    20    8   28 1
    21    9   10 1
    22   10   11 1
    23   10   40 1
    24   10   41 1
    25   11   16 ar
    26   11   12 ar
    27   12   13 ar
    28   12   42 1
    29   13   14 ar
    30   13   43 1
    31   14   15 ar
    32   14   17 1
    33   15   16 ar
    34   15   44 1
    35   16   45 1
    36   17   22 ar
    37   17   18 ar
    38   18   19 ar
    39   18   46 1
    40   19   20 ar
    41   19   47 1
    42   20   21 ar
    43   20   48 1
    44   21   22 ar
    45   21   49 1
    46   22   23 1
    47   23   27 2
    48   23   24 1
    49   24   25 1
    50   25   26 2
    51   26   27 1
    52   28   29 1
    53   28   50 1
    54   28   51 1
    55   29   52 1
@<TRIPOS>MOLECULE
ZINC01889710
   59    61     0     0     0
SMALL
USER_CHARGES
2-[[4-[[2-butyl-4-chloro-5-(methoxycarbonylmethyl)imidazol-1-yl]methyl]phenyl]carbamoyl]benzoic acid
@<TRIPOS>ATOM
      1 C1          7.1340   -6.5597    1.5735 C.3       1 <0>        -0.1513
      2 C2          6.2150   -5.3956    1.9492 C.3       1 <0>        -0.1272
      3 C3          7.0535   -4.1356    2.1732 C.3       1 <0>        -0.1108
      4 C4          6.1345   -2.9715    2.5488 C.3       1 <0>        -0.0451
      5 C5          6.9445   -1.7048    2.6512 C.2       1 <0>         0.2510
      6 N1          7.6082   -1.3094    3.7033 N.2       1 <0>        -0.4781
      7 C6          8.2045   -0.1377    3.4362 C.2       1 <0>         0.0774
      8 C7          7.9028    0.2036    2.1680 C.2       1 <0>        -0.0002
      9 N2          7.1058   -0.7926    1.6689 N.pl3     1 <0>        -0.4305
     10 C8          6.5307   -0.8537    0.3229 C.3       1 <0>         0.1480
     11 C9          5.1767   -0.1922    0.3247 C.ar      1 <0>        -0.1488
     12 C10         5.0574    1.1364   -0.0398 C.ar      1 <0>        -0.0714
     13 C11         3.8180    1.7457   -0.0388 C.ar      1 <0>        -0.1530
     14 C12         2.6906    1.0225    0.3288 C.ar      1 <0>         0.1831
     15 C13         2.8146   -0.3104    0.6994 C.ar      1 <0>        -0.1149
     16 C14         4.0562   -0.9151    0.6912 C.ar      1 <0>        -0.0779
     17 N3          1.4343    1.6365    0.3314 N.am      1 <0>        -0.6785
     18 C15         0.3323    0.9175    0.0398 C.2       1 <0>         0.5771
     19 O1          0.4381   -0.2408   -0.3131 O.2       1 <0>        -0.4715
     20 C16        -1.0056    1.5398    0.1435 C.ar      1 <0>        -0.1060
     21 C17        -1.2957    2.6995   -0.5700 C.ar      1 <0>        -0.1105
     22 C18        -2.5490    3.2745   -0.4742 C.ar      1 <0>        -0.1295
     23 C19        -3.5182    2.7106    0.3365 C.ar      1 <0>        -0.1178
     24 C20        -3.2466    1.5627    1.0567 C.ar      1 <0>        -0.0828
     25 C21        -1.9912    0.9663    0.9685 C.ar      1 <0>        -0.0678
     26 C22        -1.6954   -0.2612    1.7372 C.2       1 <0>         0.4822
     27 O2         -0.5715   -0.7215    1.7375 O.co2     1 <0>        -0.6024
     28 C23         8.3547    1.4429    1.4393 C.3       1 <0>        -0.0359
     29 C24         7.3527    2.5472    1.6571 C.2       1 <0>         0.4505
     30 O3          6.3722    2.3484    2.3346 O.2       1 <0>        -0.4698
     31 O4          7.5494    3.7518    1.0985 O.3       1 <0>        -0.3623
     32 C25         6.5433    4.7678    1.3509 C.3       1 <0>         0.0364
     33 Cl1         9.1910    0.7783    4.5323 Cl        1 <0>        -0.0170
     34 H1          7.8457   -6.7356    2.3801 H         1 <0>         0.0534
     35 H2          6.5366   -7.4573    1.4139 H         1 <0>         0.0547
     36 H3          7.6744   -6.3155    0.6589 H         1 <0>         0.0519
     37 H4          5.6746   -5.6398    2.8637 H         1 <0>         0.0673
     38 H5          5.5032   -5.2197    1.1426 H         1 <0>         0.0651
     39 H6          7.5939   -3.8914    1.2586 H         1 <0>         0.0600
     40 H7          7.7653   -4.3115    2.9798 H         1 <0>         0.0719
     41 H8          5.6602   -3.1780    3.5083 H         1 <0>         0.1012
     42 H9          5.3682   -2.8518    1.7830 H         1 <0>         0.0869
     43 H10         6.4258   -1.8954    0.0195 H         1 <0>         0.1070
     44 H11         7.1871   -0.3359   -0.3765 H         1 <0>         0.0981
     45 H12         5.9344    1.6981   -0.3258 H         1 <0>         0.1086
     46 H13         3.7255    2.7833   -0.3238 H         1 <0>         0.1206
     47 H14         1.9405   -0.8743    0.9900 H         1 <0>         0.1584
     48 H15         4.1527   -1.9526    0.9752 H         1 <0>         0.1236
     49 H16         1.3560    2.5799    0.5429 H         1 <0>         0.4057
     50 H17        -0.5427    3.1477   -1.2013 H         1 <0>         0.1206
     51 H18        -2.7718    4.1718   -1.0324 H         1 <0>         0.1214
     52 H19        -4.4928    3.1705    0.4072 H         1 <0>         0.1219
     53 H20        -4.0077    1.1285    1.6881 H         1 <0>         0.1377
     54 H21         9.3272    1.7543    1.8205 H         1 <0>         0.1283
     55 H22         8.4338    1.2291    0.3734 H         1 <0>         0.1140
     56 H23         6.4723    4.9503    2.4232 H         1 <0>         0.0633
     57 H24         6.8234    5.6907    0.8431 H         1 <0>         0.1007
     58 H25         5.5788    4.4251    0.9761 H         1 <0>         0.0641
     59 O5         -2.6725   -0.8694    2.4372 O.co2     1 <0>        -0.7507
@<TRIPOS>BOND
     1    1    2 1
     2    1   34 1
     3    1   35 1
     4    1   36 1
     5    2    3 1
     6    2   37 1
     7    2   38 1
     8    3    4 1
     9    3   39 1
    10    3   40 1
    11    4    5 1
    12    4   41 1
    13    4   42 1
    14    5    9 1
    15    5    6 2
    16    6    7 1
    17    7    8 2
    18    7   33 1
    19    8    9 1
    20    8   28 1
    21    9   10 1
    22   10   11 1
    23   10   43 1
    24   10   44 1
    25   11   16 ar
    26   11   12 ar
    27   12   13 ar
    28   12   45 1
    29   13   14 ar
    30   13   46 1
    31   14   15 ar
    32   14   17 1
    33   15   16 ar
    34   15   47 1
    35   16   48 1
    36   17   18 am
    37   17   49 1
    38   18   19 2
    39   18   20 1
    40   20   25 ar
    41   20   21 ar
    42   21   22 ar
    43   21   50 1
    44   22   23 ar
    45   22   51 1
    46   23   24 ar
    47   23   52 1
    48   24   25 ar
    49   24   53 1
    50   25   26 1
    51   26   27 2
    52   26   59 1
    53   28   29 1
    54   28   54 1
    55   28   55 1
    56   29   30 2
    57   29   31 1
    58   31   32 1
    59   32   56 1
    60   32   57 1
    61   32   58 1
@<TRIPOS>MOLECULE
ZINC03918293
   77    80     0     0     0
SMALL
USER_CHARGES

@<TRIPOS>ATOM
      1 C1          0.0376    1.5380    0.0199 C.3       1 <0>        -0.1497
      2 C2          0.0530    0.0081    0.0098 C.3       1 <0>        -0.1205
      3 C3          0.7884   -0.5027    1.2504 C.3       1 <0>        -0.1237
      4 C4          0.8038   -2.0326    1.2403 C.3       1 <0>         0.0815
      5 O1          1.4906   -2.5097    2.3990 O.3       1 <0>        -0.3327
      6 C5          1.5937   -3.8485    2.5427 C.2       1 <0>         0.6373
      7 O2          2.2306   -4.3653    3.6154 O.3       1 <0>        -0.6932
      8 N1          1.0803   -4.6388    1.6495 N.2       1 <0>        -1.1080
      9 S1          1.2067   -6.2805    1.8258 S.o2      1 <0>         2.7087
     10 O3          2.5873   -6.5963    1.7100 O.2       1 <0>        -0.9885
     11 O4          0.4395   -6.6262    2.9708 O.2       1 <0>        -0.9872
     12 C6          0.4038   -7.0165    0.4407 C.2       1 <0>        -0.6890
     13 C7          0.2415   -8.3408    0.1438 C.2       1 <0>         0.0305
     14 C8         -0.4373   -8.6812   -1.0224 C.2       1 <0>        -0.1670
     15 C9         -0.9106   -7.6955   -1.8177 C.2       1 <0>        -0.1348
     16 S2         -0.4151   -6.2260   -0.9343 S.3       1 <0>         0.1799
     17 C10        -1.6679   -7.8088   -3.1156 C.3       1 <0>        -0.0331
     18 C11        -3.1697   -7.8580   -2.8273 C.3       1 <0>        -0.0941
     19 C12        -3.9431   -7.8472   -4.1473 C.3       1 <0>        -0.1458
     20 C13        -3.4988   -9.1363   -2.0537 C.3       1 <0>        -0.1523
     21 C14         0.7772   -9.3914    1.0440 C.ar      1 <0>        -0.0478
     22 C15         2.0986   -9.3296    1.4824 C.ar      1 <0>        -0.1177
     23 C16         2.5915  -10.3094    2.3201 C.ar      1 <0>        -0.0800
     24 C17         1.7767  -11.3516    2.7243 C.ar      1 <0>        -0.1200
     25 C18         0.4645  -11.4182    2.2919 C.ar      1 <0>        -0.1053
     26 C19        -0.0408  -10.4405    1.4590 C.ar      1 <0>        -0.0979
     27 C20         2.3209  -12.4187    3.6387 C.3       1 <0>         0.1576
     28 N2          2.2092  -11.9732    5.0299 N.pl3     1 <0>        -0.4722
     29 C21         1.1989  -12.2708    5.8922 C.2       1 <0>         0.2922
     30 N3          1.4171  -11.7116    7.0465 N.2       1 <0>        -0.4801
     31 C22         2.5823  -11.0181    7.0006 C.ar      1 <0>        -0.0043
     32 C23         3.1108  -11.1808    5.7073 C.ar      1 <0>         0.2563
     33 N4          4.2585  -10.6110    5.3770 N.ar      1 <0>        -0.4849
     34 C24         4.9398   -9.8829    6.2375 C.ar      1 <0>         0.1713
     35 C25         4.4844   -9.6804    7.5305 C.ar      1 <0>        -0.1873
     36 C26         3.2873  -10.2454    7.9281 C.ar      1 <0>         0.0136
     37 C27         2.7646  -10.0473    9.3276 C.3       1 <0>        -0.1091
     38 C28         6.2417   -9.2576    5.8072 C.3       1 <0>        -0.1030
     39 C29         0.0017  -13.1230    5.5583 C.3       1 <0>        -0.0475
     40 C30         0.2654  -14.5659    5.9936 C.3       1 <0>        -0.1454
     41 H1          1.0615    1.9117    0.0149 H         1 <0>         0.0535
     42 H2         -0.4863    1.9019   -0.8640 H         1 <0>         0.0520
     43 H3         -0.4734    1.8903    0.9159 H         1 <0>         0.0535
     44 H4         -0.9710   -0.3656    0.0148 H         1 <0>         0.0638
     45 H5          0.5639   -0.3442   -0.8863 H         1 <0>         0.0639
     46 H6          1.8123   -0.1290    1.2454 H         1 <0>         0.0682
     47 H7          0.2774   -0.1504    2.1464 H         1 <0>         0.0681
     48 H8         -0.2202   -2.4063    1.2453 H         1 <0>         0.0610
     49 H9          1.3147   -2.3849    0.3442 H         1 <0>         0.0614
     50 H10        -0.5837   -9.7177   -1.2884 H         1 <0>         0.1365
     51 H11        -1.4464   -6.9448   -3.7421 H         1 <0>         0.0823
     52 H12        -1.3673   -8.7196   -3.6334 H         1 <0>         0.0868
     53 H13        -3.4541   -6.9900   -2.2325 H         1 <0>         0.0756
     54 H14        -3.6587   -8.7152   -4.7421 H         1 <0>         0.0553
     55 H15        -5.0130   -7.8823   -3.9419 H         1 <0>         0.0571
     56 H16        -3.7086   -6.9365   -4.6984 H         1 <0>         0.0561
     57 H17        -4.5687   -9.1714   -1.8483 H         1 <0>         0.0547
     58 H18        -3.2144  -10.0043   -2.6485 H         1 <0>         0.0543
     59 H19        -2.9478   -9.1440   -1.1133 H         1 <0>         0.0607
     60 H20         2.7358   -8.5168    1.1668 H         1 <0>         0.1599
     61 H21         3.6154  -10.2625    2.6604 H         1 <0>         0.1343
     62 H22        -0.1672  -12.2343    2.6104 H         1 <0>         0.1247
     63 H23        -1.0669  -10.4909    1.1259 H         1 <0>         0.1270
     64 H24         1.7503  -13.3377    3.5046 H         1 <0>         0.1017
     65 H25         3.3681  -12.6030    3.3992 H         1 <0>         0.1024
     66 H26         5.0580   -9.0799    8.2211 H         1 <0>         0.1419
     67 H27         3.1490  -10.8363    9.9741 H         1 <0>         0.0744
     68 H28         3.0913   -9.0779    9.7037 H         1 <0>         0.0717
     69 H29         1.6752  -10.0847    9.3173 H         1 <0>         0.0760
     70 H30         6.0500   -8.2675    5.3936 H         1 <0>         0.0860
     71 H31         6.9045   -9.1697    6.6680 H         1 <0>         0.0766
     72 H32         6.7121   -9.8834    5.0488 H         1 <0>         0.0759
     73 H33        -0.8743  -12.7399    6.0817 H         1 <0>         0.1027
     74 H34        -0.1761  -13.0945    4.4833 H         1 <0>         0.0845
     75 H35         1.0861  -14.9782    5.4067 H         1 <0>         0.0543
     76 H36         0.5299  -14.5838    7.0509 H         1 <0>         0.0651
     77 H37        -0.6320  -15.1635    5.8334 H         1 <0>         0.0691
@<TRIPOS>BOND
     1    1    2 1
     2    1   41 1
     3    1   42 1
     4    1   43 1
     5    2    3 1
     6    2   44 1
     7    2   45 1
     8    3    4 1
     9    3   46 1
    10    3   47 1
    11    4    5 1
    12    4   48 1
    13    4   49 1
    14    5    6 1
    15    6    7 1
    16    6    8 2
    17    8    9 1
    18    9   10 2
    19    9   11 2
    20    9   12 1
    21   12   16 1
    22   12   13 2
    23   13   14 1
    24   13   21 1
    25   14   15 2
    26   14   50 1
    27   15   16 1
    28   15   17 1
    29   17   18 1
    30   17   51 1
    31   17   52 1
    32   18   19 1
    33   18   20 1
    34   18   53 1
    35   19   54 1
    36   19   55 1
    37   19   56 1
    38   20   57 1
    39   20   58 1
    40   20   59 1
    41   21   26 ar
    42   21   22 ar
    43   22   23 ar
    44   22   60 1
    45   23   24 ar
    46   23   61 1
    47   24   25 ar
    48   24   27 1
    49   25   26 ar
    50   25   62 1
    51   26   63 1
    52   27   28 1
    53   27   64 1
    54   27   65 1
    55   28   32 1
    56   28   29 1
    57   29   30 2
    58   29   39 1
    59   30   31 1
    60   31   36 ar
    61   31   32 ar
    62   32   33 ar
    63   33   34 ar
    64   34   35 ar
    65   34   38 1
    66   35   36 ar
    67   35   66 1
    68   36   37 1
    69   37   67 1
    70   37   68 1
    71   37   69 1
    72   38   70 1
    73   38   71 1
    74   38   72 1
    75   39   40 1
    76   39   73 1
    77   39   74 1
    78   40   75 1
    79   40   76 1
    80   40   77 1
@<TRIPOS>MOLECULE
ZINC03778636
   63    67     0     0     0
SMALL
USER_CHARGES

@<TRIPOS>ATOM
      1 C1          3.7523    3.1341    2.3277 C.3       1 <0>        -0.1021
      2 C2          3.2298    1.8248    1.7951 C.ar      1 <0>        -0.1711
      3 C3          3.6181    1.3823    0.5457 C.ar      1 <0>        -0.0505
      4 C4          3.1388    0.1814    0.0560 C.ar      1 <0>        -0.1687
      5 C5          2.2696   -0.5810    0.8151 C.ar      1 <0>        -0.0503
      6 C6          1.8776   -0.1447    2.0652 C.ar      1 <0>        -0.1916
      7 C7          2.3615    1.0589    2.5624 C.ar      1 <0>         0.2249
      8 N1          1.9712    1.5007    3.8287 N.pl3     1 <0>        -0.8771
      9 C8          3.5640   -0.2978   -1.3081 C.3       1 <0>         0.1536
     10 N2          4.7753   -1.1124   -1.1839 N.pl3     1 <0>        -0.4445
     11 C9          6.0507   -0.6838   -1.3256 C.2       1 <0>         0.1625
     12 N3          6.8577   -1.6960   -1.1403 N.2       1 <0>        -0.4782
     13 C10         6.1359   -2.7877   -0.8781 C.2       1 <0>        -0.0247
     14 C11         4.8304   -2.4431   -0.8980 C.2       1 <0>         0.0125
     15 C12         3.6863   -3.3915   -0.6531 C.3       1 <0>        -0.0442
     16 C13         4.2248   -4.6454    0.0479 C.3       1 <0>         0.0850
     17 H1          4.4388   -4.4158    1.0917 H         1 <0>         0.0635
     18 N4          5.4592   -5.0793   -0.6232 N.am      1 <0>        -0.5956
     19 C14         6.6295   -4.1860   -0.5914 C.3       1 <0>         0.1978
     20 C15         5.5188   -6.2665   -1.2584 C.2       1 <0>         0.5078
     21 O1          4.5206   -6.9468   -1.3671 O.2       1 <0>        -0.4476
     22 C16         6.8256   -6.7486   -1.8335 C.3       1 <0>        -0.0311
     23 C17         6.8764   -8.2535   -1.7725 C.ar      1 <0>        -0.0667
     24 C18         5.8836   -9.0036   -2.3748 C.ar      1 <0>        -0.0749
     25 C19         5.9303  -10.3840   -2.3189 C.ar      1 <0>        -0.1250
     26 C20         6.9699  -11.0144   -1.6612 C.ar      1 <0>        -0.1220
     27 C21         7.9632  -10.2644   -1.0597 C.ar      1 <0>        -0.1303
     28 C22         7.9189   -8.8840   -1.1193 C.ar      1 <0>        -0.1116
     29 C23         6.9394   -6.2998   -3.2676 C.ar      1 <0>        -0.0631
     30 C24         8.0855   -5.6614   -3.7031 C.ar      1 <0>        -0.1093
     31 C25         8.1899   -5.2497   -5.0186 C.ar      1 <0>        -0.1216
     32 C26         7.1483   -5.4768   -5.8986 C.ar      1 <0>        -0.1240
     33 C27         6.0025   -6.1160   -5.4633 C.ar      1 <0>        -0.1184
     34 C28         5.8999   -6.5315   -4.1489 C.ar      1 <0>        -0.1002
     35 C29         3.1965   -5.7446   -0.0256 C.2       1 <0>         0.5189
     36 O2          2.6363   -5.9857   -1.0813 O.co2     1 <0>        -0.6624
     37 O3          2.9247   -6.3927    0.9707 O.co2     1 <0>        -0.7010
     38 H2          4.6794    2.9601    2.8739 H         1 <0>         0.0640
     39 H3          3.9419    3.8144    1.4975 H         1 <0>         0.0655
     40 H4          3.0135    3.5749    2.9971 H         1 <0>         0.0569
     41 H5          4.2967    1.9751   -0.0497 H         1 <0>         0.1196
     42 H6          1.8968   -1.5184    0.4295 H         1 <0>         0.1271
     43 H7          1.1986   -0.7403    2.6573 H         1 <0>         0.1241
     44 H8          2.3066    2.3432    4.1731 H         1 <0>         0.3964
     45 H9          1.3648    0.9650    4.3636 H         1 <0>         0.3986
     46 H10         2.7666   -0.8970   -1.7475 H         1 <0>         0.0960
     47 H11         3.7677    0.5611   -1.9476 H         1 <0>         0.0977
     48 H12         6.3527    0.3276   -1.5544 H         1 <0>         0.1985
     49 H13         2.9419   -2.9098   -0.0191 H         1 <0>         0.0712
     50 H14         3.2333   -3.6708   -1.6043 H         1 <0>         0.0900
     51 H15         7.3552   -4.4855   -1.3476 H         1 <0>         0.0893
     52 H16         7.0865   -4.2225    0.3975 H         1 <0>         0.0709
     53 H17         7.6518   -6.3335   -1.2562 H         1 <0>         0.0980
     54 H18         5.0714   -8.5111   -2.8886 H         1 <0>         0.1351
     55 H19         5.1542  -10.9700   -2.7888 H         1 <0>         0.1193
     56 H20         7.0060  -12.0929   -1.6169 H         1 <0>         0.1161
     57 H21         8.7753  -10.7569   -0.5456 H         1 <0>         0.1176
     58 H22         8.6969   -8.2981   -0.6526 H         1 <0>         0.1185
     59 H23         8.8993   -5.4840   -3.0156 H         1 <0>         0.1210
     60 H24         9.0851   -4.7504   -5.3588 H         1 <0>         0.1191
     61 H25         7.2296   -5.1545   -6.9262 H         1 <0>         0.1169
     62 H26         5.1886   -6.2931   -6.1507 H         1 <0>         0.1200
     63 H27         5.0062   -7.0342   -3.8096 H         1 <0>         0.1339
@<TRIPOS>BOND
     1    1    2 1
     2    1   38 1
     3    1   39 1
     4    1   40 1
     5    2    7 ar
     6    2    3 ar
     7    3    4 ar
     8    3   41 1
     9    4    5 ar
    10    4    9 1
    11    5    6 ar
    12    5   42 1
    13    6    7 ar
    14    6   43 1
    15    7    8 1
    16    8   44 1
    17    8   45 1
    18    9   10 1
    19    9   46 1
    20    9   47 1
    21   10   14 1
    22   10   11 1
    23   11   12 2
    24   11   48 1
    25   12   13 1
    26   13   19 1
    27   13   14 2
    28   14   15 1
    29   15   16 1
    30   15   49 1
    31   15   50 1
    32   16   17 1
    33   16   18 1
    34   16   35 1
    35   18   19 1
    36   18   20 am
    37   19   51 1
    38   19   52 1
    39   20   21 2
    40   20   22 1
    41   22   23 1
    42   22   29 1
    43   22   53 1
    44   23   28 ar
    45   23   24 ar
    46   24   25 ar
    47   24   54 1
    48   25   26 ar
    49   25   55 1
    50   26   27 ar
    51   26   56 1
    52   27   28 ar
    53   27   57 1
    54   28   58 1
    55   29   34 ar
    56   29   30 ar
    57   30   31 ar
    58   30   59 1
    59   31   32 ar
    60   31   60 1
    61   32   33 ar
    62   32   61 1
    63   33   34 ar
    64   33   62 1
    65   34   63 1
    66   35   36 2
    67   35   37 1
@<TRIPOS>MOLECULE
ZINC01552042
   50    53     0     0     0
SMALL
USER_CHARGES
2-butyl-5-chloro-3-[[4-[2-(1H-tetrazol-5-yl)phenyl]phenyl]methyl]imidazole-4-carbaldehyde
@<TRIPOS>ATOM
      1 C1         10.4776    5.7894    3.9674 C.3       1 <0>        -0.1520
      2 C2          8.9549    5.6411    3.9537 C.3       1 <0>        -0.1252
      3 C3          8.3538    6.6433    2.9663 C.3       1 <0>        -0.1127
      4 C4          6.8310    6.4951    2.9525 C.3       1 <0>        -0.0509
      5 C5          6.2307    7.5590    2.0702 C.2       1 <0>         0.2715
      6 N1          5.9547    8.7828    2.4441 N.2       1 <0>        -0.4863
      7 C6          5.4296    9.4603    1.4239 C.2       1 <0>         0.1352
      8 C7          5.3789    8.6041    0.3377 C.2       1 <0>        -0.1242
      9 N2          5.8997    7.3982    0.7776 N.pl3     1 <0>        -0.3999
     10 C8          6.0546    6.1760   -0.0151 C.3       1 <0>         0.1399
     11 C9          4.8471    5.2953    0.1784 C.ar      1 <0>        -0.1159
     12 C10         3.7081    5.5124   -0.5761 C.ar      1 <0>        -0.1186
     13 C11         2.5995    4.7089   -0.4037 C.ar      1 <0>        -0.1055
     14 C12         2.6289    3.6768    0.5332 C.ar      1 <0>        -0.0334
     15 C13         3.7777    3.4665    1.2947 C.ar      1 <0>         0.0118
     16 C14         4.8822    4.2728    1.1094 C.ar      1 <0>        -0.1138
     17 C15         1.4415    2.8103    0.7230 C.ar      1 <0>        -0.0371
     18 C16         0.1846    3.3773    0.9150 C.ar      1 <0>        -0.1096
     19 C17        -0.9186    2.5668    1.0920 C.ar      1 <0>        -0.1314
     20 C18        -0.7857    1.1884    1.0743 C.ar      1 <0>        -0.1213
     21 C19         0.4529    0.6088    0.8911 C.ar      1 <0>        -0.1003
     22 C20         1.5779    1.4119    0.7108 C.ar      1 <0>         0.0486
     23 C21         2.9064    0.7960    0.5075 C.2       1 <0>         0.1220
     24 N3          4.5703   -0.6133    0.2578 N.2       1 <0>        -0.2061
     25 N4          5.0091    0.5963    0.1820 N.2       1 <0>        -0.1567
     26 N5          4.0452    1.4323    0.3265 N.2       1 <0>        -0.3853
     27 C22         4.8946    8.8996   -0.9559 C.2       1 <0>         0.4060
     28 O1          4.9099    8.0460   -1.8197 O.2       1 <0>        -0.4618
     29 Cl1         4.9045   11.1148    1.4521 Cl        1 <0>         0.0029
     30 H1         10.8705    5.5962    2.9692 H         1 <0>         0.0537
     31 H2         10.7413    6.8022    4.2719 H         1 <0>         0.0530
     32 H3         10.9059    5.0754    4.6709 H         1 <0>         0.0549
     33 H4          8.5620    5.8343    4.9519 H         1 <0>         0.0657
     34 H5          8.6912    4.6283    3.6492 H         1 <0>         0.0671
     35 H6          8.7467    6.4502    1.9680 H         1 <0>         0.0626
     36 H7          8.6175    7.6562    3.2708 H         1 <0>         0.0715
     37 H8          6.4462    6.6042    3.9665 H         1 <0>         0.1026
     38 H9          6.5653    5.5108    2.5670 H         1 <0>         0.0937
     39 H10         6.9485    5.6433    0.3094 H         1 <0>         0.1025
     40 H11         6.1494    6.4362   -1.0693 H         1 <0>         0.1186
     41 H12         3.6866    6.3120   -1.3018 H         1 <0>         0.1220
     42 H13         1.7109    4.8791   -0.9935 H         1 <0>         0.1146
     43 H14         3.8045    2.6715    2.0253 H         1 <0>         0.1167
     44 H15         5.7743    4.1078    1.6954 H         1 <0>         0.1136
     45 H16         0.0726    4.4514    0.9252 H         1 <0>         0.1207
     46 H17        -1.8921    3.0102    1.2403 H         1 <0>         0.1183
     47 H18        -1.6561    0.5634    1.2092 H         1 <0>         0.1197
     48 H19         0.5501   -0.4668    0.8829 H         1 <0>         0.1298
     49 H20         4.5108    9.8846   -1.1768 H         1 <0>         0.1196
     50 N6          3.2023   -0.5106    0.4747 N.2       1 <0>        -0.4105
@<TRIPOS>BOND
     1    1    2 1
     2    1   30 1
     3    1   31 1
     4    1   32 1
     5    2    3 1
     6    2   33 1
     7    2   34 1
     8    3    4 1
     9    3   35 1
    10    3   36 1
    11    4    5 1
    12    4   37 1
    13    4   38 1
    14    5    9 1
    15    5    6 2
    16    6    7 1
    17    7    8 2
    18    7   29 1
    19    8    9 1
    20    8   27 1
    21    9   10 1
    22   10   11 1
    23   10   39 1
    24   10   40 1
    25   11   16 ar
    26   11   12 ar
    27   12   13 ar
    28   12   41 1
    29   13   14 ar
    30   13   42 1
    31   14   15 ar
    32   14   17 1
    33   15   16 ar
    34   15   43 1
    35   16   44 1
    36   17   22 ar
    37   17   18 ar
    38   18   19 ar
    39   18   45 1
    40   19   20 ar
    41   19   46 1
    42   20   21 ar
    43   20   47 1
    44   21   22 ar
    45   21   48 1
    46   22   23 1
    47   23   26 2
    48   23   50 1
    49   24   25 2
    50   24   50 1
    51   25   26 1
    52   27   28 2
    53   27   49 1
@<TRIPOS>MOLECULE
ZINC13737969
   53    57     0     0     0
SMALL
USER_CHARGES
5-methyl-7-propyl-8-[[4-[2-(2H-tetrazol-5-yl)phenyl]phenyl]methyl]-[1,2,4]triazolo[5,1-f]pyrimidin-2-ol
@<TRIPOS>ATOM
      1 C1         -1.2689    1.6011    0.6199 C.3       1 <0>        -0.1560
      2 C2         -0.3302    1.2209   -0.5269 C.3       1 <0>        -0.1168
      3 C3          0.0204   -0.2651   -0.4276 C.3       1 <0>        -0.0875
      4 C4          0.9449   -0.6397   -1.5572 C.2       1 <0>         0.2017
      5 C5          2.2926   -0.6266   -1.3616 C.2       1 <0>        -0.1405
      6 C6          3.1295   -0.9817   -2.4369 C.cat     1 <0>         0.3502
      7 N1          4.4422   -1.0729   -2.5888 N.pl3     1 <0>        -0.5865
      8 C7          4.7224   -1.4593   -3.8305 C.2       1 <0>         0.5454
      9 N2          3.6028   -1.6250   -4.5032 N.2       1 <0>        -0.3700
     10 N3          2.5502   -1.3239   -3.6304 N.pl3     1 <0>        -0.2733
     11 C8          1.2017   -1.3136   -3.7502 C.2       1 <0>         0.3973
     12 N4          0.4381   -0.9875   -2.7417 N.2       1 <0>        -0.4767
     13 C9          0.5713   -1.6907   -5.0661 C.3       1 <0>        -0.1026
     14 O1          5.9707   -1.6537   -4.3273 O.3       1 <0>        -0.6276
     15 C10         2.8744   -0.2418   -0.0258 C.3       1 <0>        -0.0347
     16 C11         3.1426   -1.4852    0.7823 C.ar      1 <0>        -0.0891
     17 C12         2.2068   -1.9248    1.7014 C.ar      1 <0>        -0.1215
     18 C13         2.4445   -3.0660    2.4401 C.ar      1 <0>         0.0164
     19 C14         3.6354   -3.7696    2.2669 C.ar      1 <0>        -0.0406
     20 C15         4.5772   -3.3187    1.3434 C.ar      1 <0>        -0.0955
     21 C16         4.3261   -2.1794    0.6062 C.ar      1 <0>        -0.1427
     22 C17         3.8995   -4.9925    3.0622 C.ar      1 <0>        -0.0433
     23 C18         4.3109   -6.1632    2.4305 C.ar      1 <0>        -0.1090
     24 C19         4.5561   -7.2993    3.1748 C.ar      1 <0>        -0.1348
     25 C20         4.3954   -7.2834    4.5499 C.ar      1 <0>        -0.1193
     26 C21         3.9882   -6.1312    5.1917 C.ar      1 <0>        -0.1041
     27 C22         3.7418   -4.9751    4.4566 C.ar      1 <0>         0.0533
     28 C23         3.3100   -3.7331    5.1427 C.2       1 <0>         0.0753
     29 N5          3.1223   -3.5733    6.4381 N.2       1 <0>        -0.3628
     30 N6          2.7516   -2.3549    6.6354 N.2       1 <0>        -0.1957
     31 N7          2.6984   -1.7377    5.5069 N.2       1 <0>        -0.1850
     32 N8          3.0401   -2.5524    4.5672 N.2       1 <0>        -0.3590
     33 H1         -1.5210    2.6694    0.5485 H         1 <0>         0.0586
     34 H2         -0.7714    1.4051    1.5812 H         1 <0>         0.0628
     35 H3         -2.1891    1.0020    0.5544 H         1 <0>         0.0586
     36 H4         -0.8277    1.4169   -1.4882 H         1 <0>         0.0693
     37 H5          0.5900    1.8200   -0.4615 H         1 <0>         0.0665
     38 H6          0.5179   -0.4610    0.5337 H         1 <0>         0.1053
     39 H7         -0.8999   -0.8641   -0.4929 H         1 <0>         0.1001
     40 H8         -0.5234   -1.6267   -4.9799 H         1 <0>         0.1099
     41 H9          0.8589   -2.7194   -5.3290 H         1 <0>         0.1033
     42 H10         0.9183   -1.0012   -5.8498 H         1 <0>         0.1026
     43 H11         3.8160    0.3055   -0.1800 H         1 <0>         0.0868
     44 H12         2.1617    0.3994    0.5136 H         1 <0>         0.1081
     45 H13         1.2866   -1.3762    1.8381 H         1 <0>         0.1167
     46 H14         1.7113   -3.4108    3.1542 H         1 <0>         0.1169
     47 H15         5.5017   -3.8596    1.2053 H         1 <0>         0.1153
     48 H16         5.0549   -1.8292   -0.1098 H         1 <0>         0.0998
     49 H17         4.4378   -6.1822    1.3581 H         1 <0>         0.1192
     50 H18         4.8755   -8.2057    2.6819 H         1 <0>         0.1176
     51 H19         4.5901   -8.1775    5.1236 H         1 <0>         0.1192
     52 H20         3.8651   -6.1254    6.2646 H         1 <0>         0.1297
     53 H21         5.1108   -0.8404   -1.7468 H         1 <0>         0.4687
@<TRIPOS>BOND
     1    1    2 1
     2    1   33 1
     3    1   34 1
     4    1   35 1
     5    2    3 1
     6    2   36 1
     7    2   37 1
     8    3    4 1
     9    3   38 1
    10    3   39 1
    11    4   12 1
    12    4    5 2
    13    5    6 1
    14    5   15 1
    15    6   10 1
    16    6    7 2
    17    7    8 1
    18    7   53 1
    19    8    9 2
    20    8   14 1
    21    9   10 1
    22   10   11 1
    23   11   12 2
    24   11   13 1
    25   13   40 1
    26   13   41 1
    27   13   42 1
    28   15   16 1
    29   15   43 1
    30   15   44 1
    31   16   21 ar
    32   16   17 ar
    33   17   18 ar
    34   17   45 1
    35   18   19 ar
    36   18   46 1
    37   19   20 ar
    38   19   22 1
    39   20   21 ar
    40   20   47 1
    41   21   48 1
    42   22   27 ar
    43   22   23 ar
    44   23   24 ar
    45   23   49 1
    46   24   25 ar
    47   24   50 1
    48   25   26 ar
    49   25   51 1
    50   26   27 ar
    51   26   52 1
    52   27   28 1
    53   28   32 1
    54   28   29 2
    55   29   30 1
    56   30   31 2
    57   31   32 1
@<TRIPOS>MOLECULE
ZINC13900167
   58    61     0     0     0
SMALL
USER_CHARGES
5-[(3,5-dibutyl-1,2,4-triazol-1-yl)methyl]-2-[2-(1H-tetrazol-5-yl)phenyl]pyridine
@<TRIPOS>ATOM
      1 C1         -2.0026   -9.9230   -6.2073 C.3       1 <0>        -0.1536
      2 C2         -2.1000   -8.3990   -6.3007 C.3       1 <0>        -0.1171
      3 C3         -2.6366   -7.8404   -4.9813 C.3       1 <0>        -0.1146
      4 C4         -2.7340   -6.3164   -5.0747 C.3       1 <0>        -0.0201
      5 C5         -3.2626   -5.7662   -3.7751 C.2       1 <0>         0.2253
      6 N1         -4.5478   -5.5709   -3.4827 N.2       1 <0>        -0.5390
      7 C6         -4.6589   -5.0866   -2.2725 C.2       1 <0>         0.2804
      8 N2         -3.4227   -4.9527   -1.7616 N.pl3     1 <0>        -0.3690
      9 N3         -2.5346   -5.4024   -2.7523 N.2       1 <0>        -0.3054
     10 C7         -3.0720   -4.4446   -0.4330 C.3       1 <0>         0.1813
     11 C8         -2.8613   -5.6026    0.5081 C.ar      1 <0>        -0.1814
     12 C9         -1.6371   -6.2552    0.5528 C.ar      1 <0>        -0.0407
     13 C10        -1.4846   -7.3142    1.4305 C.ar      1 <0>        -0.1037
     14 C11        -2.5602   -7.6871    2.2352 C.ar      1 <0>         0.2102
     15 N4         -3.7162   -7.0398    2.1581 N.ar      1 <0>        -0.4746
     16 C12        -3.8859   -6.0253    1.3348 C.ar      1 <0>         0.1107
     17 C13        -2.4135   -8.8192    3.1799 C.ar      1 <0>        -0.0452
     18 C14        -2.7719   -8.6667    4.5167 C.ar      1 <0>        -0.0848
     19 C15        -2.6291   -9.7225    5.3944 C.ar      1 <0>        -0.1399
     20 C16        -2.1343  -10.9385    4.9535 C.ar      1 <0>        -0.1100
     21 C17        -1.7780  -11.1093    3.6315 C.ar      1 <0>        -0.1069
     22 C18        -1.9159  -10.0544    2.7310 C.ar      1 <0>         0.0723
     23 C19        -1.5352  -10.2320    1.3135 C.2       1 <0>         0.0634
     24 N5         -0.5700  -10.9141   -0.4545 N.2       1 <0>        -0.1803
     25 N6         -1.4452  -10.0301   -0.7837 N.2       1 <0>        -0.1982
     26 N7         -2.0452   -9.6002    0.2722 N.2       1 <0>        -0.3480
     27 C20        -5.9477   -4.7365   -1.5743 C.3       1 <0>        -0.0428
     28 C21        -6.3856   -3.3298   -1.9871 C.3       1 <0>        -0.1114
     29 C22        -7.6292   -2.9286   -1.1913 C.3       1 <0>        -0.1243
     30 C23        -8.0671   -1.5220   -1.6041 C.3       1 <0>        -0.1523
     31 H1         -1.3272  -10.1949   -5.3962 H         1 <0>         0.0603
     32 H2         -2.9910  -10.3389   -6.0120 H         1 <0>         0.0527
     33 H3         -1.6203  -10.3210   -7.1473 H         1 <0>         0.0497
     34 H4         -2.7754   -8.1271   -7.1119 H         1 <0>         0.0582
     35 H5         -1.1116   -7.9831   -6.4961 H         1 <0>         0.0600
     36 H6         -1.9612   -8.1123   -4.1702 H         1 <0>         0.0735
     37 H7         -3.6251   -8.2563   -4.7860 H         1 <0>         0.0655
     38 H8         -3.4094   -6.0445   -5.8859 H         1 <0>         0.0849
     39 H9         -1.7456   -5.9004   -5.2701 H         1 <0>         0.0815
     40 H10        -3.8799   -3.8154   -0.0597 H         1 <0>         0.1046
     41 H11        -2.1554   -3.8583   -0.4985 H         1 <0>         0.1017
     42 H12        -0.8219   -5.9436   -0.0834 H         1 <0>         0.1277
     43 H13        -0.5455   -7.8441    1.4914 H         1 <0>         0.1232
     44 H14        -4.8395   -5.5193    1.3026 H         1 <0>         0.1467
     45 H15        -3.1578   -7.7211    4.8678 H         1 <0>         0.1221
     46 H16        -2.9046   -9.5993    6.4313 H         1 <0>         0.1199
     47 H17        -2.0263  -11.7578    5.6488 H         1 <0>         0.1208
     48 H18        -1.3922  -12.0601    3.2946 H         1 <0>         0.1286
     49 H19        -6.7191   -5.4539   -1.8542 H         1 <0>         0.1003
     50 H20        -5.7966   -4.7679   -0.4952 H         1 <0>         0.0841
     51 H21        -5.5804   -2.6241   -1.7830 H         1 <0>         0.0613
     52 H22        -6.6167   -3.3192   -3.0523 H         1 <0>         0.0729
     53 H23        -8.4345   -3.6344   -1.3954 H         1 <0>         0.0662
     54 H24        -7.3981   -2.9393   -0.1261 H         1 <0>         0.0642
     55 H25        -8.9531   -1.2362   -1.0372 H         1 <0>         0.0542
     56 H26        -7.2619   -0.8162   -1.4001 H         1 <0>         0.0528
     57 H27        -8.2983   -1.5114   -2.6693 H         1 <0>         0.0541
     58 N8         -0.5988  -11.0613    0.8178 N.2       1 <0>        -0.3720
@<TRIPOS>BOND
     1    1    2 1
     2    1   31 1
     3    1   32 1
     4    1   33 1
     5    2    3 1
     6    2   34 1
     7    2   35 1
     8    3    4 1
     9    3   36 1
    10    3   37 1
    11    4    5 1
    12    4   38 1
    13    4   39 1
    14    5    9 2
    15    5    6 1
    16    6    7 2
    17    7    8 1
    18    7   27 1
    19    8    9 1
    20    8   10 1
    21   10   11 1
    22   10   40 1
    23   10   41 1
    24   11   16 ar
    25   11   12 ar
    26   12   13 ar
    27   12   42 1
    28   13   14 ar
    29   13   43 1
    30   14   15 ar
    31   14   17 1
    32   15   16 ar
    33   16   44 1
    34   17   22 ar
    35   17   18 ar
    36   18   19 ar
    37   18   45 1
    38   19   20 ar
    39   19   46 1
    40   20   21 ar
    41   20   47 1
    42   21   22 ar
    43   21   48 1
    44   22   23 1
    45   23   26 2
    46   23   58 1
    47   24   25 2
    48   24   58 1
    49   25   26 1
    50   27   28 1
    51   27   49 1
    52   27   50 1
    53   28   29 1
    54   28   51 1
    55   28   52 1
    56   29   30 1
    57   29   53 1
    58   29   54 1
    59   30   55 1
    60   30   56 1
    61   30   57 1
@<TRIPOS>MOLECULE
ZINC03786304
   57    61     0     0     0
SMALL
USER_CHARGES
9-propyl-8-[[4-[2-(1H-tetrazol-5-yl)phenyl]phenyl]methyl]-8,10-diazabicyclo[5.3.0]deca-9,11-dien-6-one
@<TRIPOS>ATOM
      1 C1          8.9416    5.1470    3.7354 C.3       1 <0>        -0.1530
      2 C2          8.3533    6.3074    2.9302 C.3       1 <0>        -0.1160
      3 C3          6.8256    6.2395    2.9794 C.3       1 <0>        -0.0480
      4 C4          6.2462    7.3824    2.1863 C.2       1 <0>         0.2492
      5 N1          5.9554    8.5670    2.6667 N.2       1 <0>        -0.4954
      6 C5          5.4611    9.3366    1.6963 C.2       1 <0>         0.0841
      7 C6          5.5038    8.6036    0.5368 C.2       1 <0>        -0.1244
      8 N2          5.9458    7.3454    0.8739 N.pl3     1 <0>        -0.4052
      9 C7          6.0713    6.1924   -0.0211 C.3       1 <0>         0.1456
     10 C8          4.7846    5.4079   -0.0132 C.ar      1 <0>        -0.1132
     11 C9          3.7865    5.7124   -0.9213 C.ar      1 <0>        -0.1177
     12 C10         2.6063    4.9972   -0.9191 C.ar      1 <0>        -0.1071
     13 C11         2.4210    3.9661    0.0008 C.ar      1 <0>        -0.0357
     14 C12         3.4282    3.6676    0.9174 C.ar      1 <0>         0.0101
     15 C13         4.6064    4.3859    0.9019 C.ar      1 <0>        -0.1135
     16 C14         1.1557    3.1942    0.0082 C.ar      1 <0>        -0.0353
     17 C15        -0.0686    3.8568    0.0235 C.ar      1 <0>        -0.1102
     18 C16        -1.2446    3.1342    0.0309 C.ar      1 <0>        -0.1315
     19 C17        -1.2166    1.7496    0.0173 C.ar      1 <0>        -0.1222
     20 C18        -0.0126    1.0758    0.0080 C.ar      1 <0>        -0.1004
     21 C19         1.1849    1.7894    0.0004 C.ar      1 <0>         0.0479
     22 C20         2.4777    1.0724   -0.0164 C.2       1 <0>         0.1221
     23 N3          4.0472   -0.4615   -0.0394 N.2       1 <0>        -0.2069
     24 N4          4.5838    0.7105   -0.0379 N.2       1 <0>        -0.1571
     25 N5          3.6760    1.6186   -0.0245 N.2       1 <0>        -0.3842
     26 C21         5.1828    9.1104   -0.7455 C.2       1 <0>         0.4268
     27 O1          4.9798    8.3596   -1.6779 O.2       1 <0>        -0.4630
     28 C22         5.0997   10.6048   -0.9255 C.3       1 <0>        -0.1426
     29 C23         3.8122   11.1554   -0.3647 C.3       1 <0>        -0.1119
     30 C24         3.5640   10.8116    1.0965 C.3       1 <0>        -0.1210
     31 C25         4.8763   10.7181    1.8789 C.3       1 <0>        -0.0398
     32 H1         10.0300    5.1954    3.7004 H         1 <0>         0.0568
     33 H2          8.6080    5.2172    4.7707 H         1 <0>         0.0576
     34 H3          8.6060    4.2018    3.3088 H         1 <0>         0.0595
     35 H4          8.6870    6.2373    1.8949 H         1 <0>         0.0599
     36 H5          8.6889    7.2527    3.3568 H         1 <0>         0.0690
     37 H6          6.4920    6.3096    4.0147 H         1 <0>         0.0987
     38 H7          6.4900    5.2942    2.5528 H         1 <0>         0.0882
     39 H8          6.8874    5.5552    0.3195 H         1 <0>         0.0991
     40 H9          6.2792    6.5391   -1.0334 H         1 <0>         0.1058
     41 H10         3.9313    6.5111   -1.6337 H         1 <0>         0.1284
     42 H11         1.8279    5.2356   -1.6288 H         1 <0>         0.1134
     43 H12         3.2883    2.8731    1.6354 H         1 <0>         0.1152
     44 H13         5.3893    4.1525    1.6083 H         1 <0>         0.1111
     45 H14        -0.0982    4.9364    0.0293 H         1 <0>         0.1203
     46 H15        -2.1924    3.6517    0.0424 H         1 <0>         0.1179
     47 H16        -2.1427    1.1939    0.0187 H         1 <0>         0.1194
     48 H17         0.0021   -0.0041    0.0020 H         1 <0>         0.1295
     49 H18         5.8624   11.0410   -0.4479 H         1 <0>         0.0832
     50 H19         5.1550   10.8396   -1.9885 H         1 <0>         0.0925
     51 H20         3.8268   12.2405   -0.4668 H         1 <0>         0.0743
     52 H21         2.9834   10.7672   -0.9568 H         1 <0>         0.0670
     53 H22         2.9368   11.5828    1.5436 H         1 <0>         0.0769
     54 H23         3.0483    9.8531    1.1555 H         1 <0>         0.0659
     55 H24         4.6916   10.8993    2.9378 H         1 <0>         0.0874
     56 H25         5.5733   11.4632    1.4954 H         1 <0>         0.0830
     57 N6          2.6741   -0.2531   -0.0205 N.2       1 <0>        -0.4110
@<TRIPOS>BOND
     1    1    2 1
     2    1   32 1
     3    1   33 1
     4    1   34 1
     5    2    3 1
     6    2   35 1
     7    2   36 1
     8    3    4 1
     9    3   37 1
    10    3   38 1
    11    4    8 1
    12    4    5 2
    13    5    6 1
    14    6   31 1
    15    6    7 2
    16    7    8 1
    17    7   26 1
    18    8    9 1
    19    9   10 1
    20    9   39 1
    21    9   40 1
    22   10   15 ar
    23   10   11 ar
    24   11   12 ar
    25   11   41 1
    26   12   13 ar
    27   12   42 1
    28   13   14 ar
    29   13   16 1
    30   14   15 ar
    31   14   43 1
    32   15   44 1
    33   16   21 ar
    34   16   17 ar
    35   17   18 ar
    36   17   45 1
    37   18   19 ar
    38   18   46 1
    39   19   20 ar
    40   19   47 1
    41   20   21 ar
    42   20   48 1
    43   21   22 1
    44   22   25 2
    45   22   57 1
    46   23   24 2
    47   23   57 1
    48   24   25 1
    49   26   27 2
    50   26   28 1
    51   28   29 1
    52   28   49 1
    53   28   50 1
    54   29   30 1
    55   29   51 1
    56   29   52 1
    57   30   31 1
    58   30   53 1
    59   30   54 1
    60   31   55 1
    61   31   56 1
@<TRIPOS>MOLECULE
ZINC13444037
   51    55     0     0     0
SMALL
USER_CHARGES
2,4-dimethyl-8-[[4-[2-(1H-tetrazol-5-yl)phenyl]phenyl]methyl]-5,6-dihydropyrido[5,6-e]pyrimidin-7-one
@<TRIPOS>ATOM
      1 C1          5.9204    9.0812    5.4748 C.3       1 <0>        -0.1071
      2 C2          6.2938    8.0426    4.4487 C.ar      1 <0>         0.2053
      3 C3          5.9155    8.1907    3.1303 C.ar      1 <0>        -0.2427
      4 C4          6.2977    7.2180    2.2102 C.ar      1 <0>         0.4293
      5 N1          6.9811    6.1627    2.6377 N.ar      1 <0>        -0.5407
      6 C5          7.3193    6.0546    3.9073 C.ar      1 <0>         0.3574
      7 N2          6.9923    6.9702    4.7973 N.ar      1 <0>        -0.5407
      8 C6          8.1028    4.8476    4.3547 C.3       1 <0>        -0.0876
      9 N3          5.9446    7.3455    0.8751 N.am      1 <0>        -0.5286
     10 C7          5.4930    8.5162    0.3920 C.2       1 <0>         0.5235
     11 O1          5.1006    8.5796   -0.7536 O.2       1 <0>        -0.5017
     12 C8          5.4632    9.7482    1.2563 C.3       1 <0>        -0.1380
     13 C9          5.0916    9.3700    2.6913 C.3       1 <0>        -0.0659
     14 C10         6.0709    6.1931   -0.0205 C.3       1 <0>         0.1501
     15 C11         4.7846    5.4079   -0.0132 C.ar      1 <0>        -0.1090
     16 C12         3.7865    5.7124   -0.9213 C.ar      1 <0>        -0.1213
     17 C13         2.6063    4.9972   -0.9191 C.ar      1 <0>        -0.1083
     18 C14         2.4210    3.9661    0.0008 C.ar      1 <0>        -0.0421
     19 C15         3.4282    3.6676    0.9174 C.ar      1 <0>         0.0076
     20 C16         4.6064    4.3859    0.9019 C.ar      1 <0>        -0.1070
     21 C17         1.1557    3.1942    0.0082 C.ar      1 <0>        -0.0330
     22 C18        -0.0686    3.8568    0.0235 C.ar      1 <0>        -0.1115
     23 C19        -1.2446    3.1342    0.0309 C.ar      1 <0>        -0.1321
     24 C20        -1.2166    1.7496    0.0173 C.ar      1 <0>        -0.1235
     25 C21        -0.0126    1.0758    0.0080 C.ar      1 <0>        -0.1006
     26 C22         1.1849    1.7894    0.0004 C.ar      1 <0>         0.0476
     27 C23         2.4777    1.0724   -0.0164 C.2       1 <0>         0.1213
     28 N4          4.0472   -0.4615   -0.0394 N.2       1 <0>        -0.2080
     29 N5          4.5838    0.7105   -0.0379 N.2       1 <0>        -0.1561
     30 N6          3.6760    1.6186   -0.0245 N.2       1 <0>        -0.3819
     31 H1          6.7037    9.8374    5.5281 H         1 <0>         0.0864
     32 H2          4.9797    9.5521    5.1895 H         1 <0>         0.0821
     33 H3          5.8078    8.6055    6.4490 H         1 <0>         0.0848
     34 H4          9.1696    5.0555    4.2712 H         1 <0>         0.0869
     35 H5          7.8573    4.6189    5.3918 H         1 <0>         0.0873
     36 H6          7.8484    3.9953    3.7247 H         1 <0>         0.0910
     37 H7          4.7270   10.4500    0.8644 H         1 <0>         0.1137
     38 H8          6.4484   10.2145    1.2482 H         1 <0>         0.1028
     39 H9          4.0338    9.1108    2.7362 H         1 <0>         0.0868
     40 H10         5.2865   10.2151    3.3516 H         1 <0>         0.0960
     41 H11         6.8873    5.5561    0.3200 H         1 <0>         0.1055
     42 H12         6.2788    6.5404   -1.0325 H         1 <0>         0.0940
     43 H13         3.9310    6.5116   -1.6332 H         1 <0>         0.1175
     44 H14         1.8279    5.2356   -1.6288 H         1 <0>         0.1119
     45 H15         3.2883    2.8731    1.6354 H         1 <0>         0.1117
     46 H16         5.3890    4.1529    1.6088 H         1 <0>         0.1136
     47 H17        -0.0982    4.9364    0.0293 H         1 <0>         0.1200
     48 H18        -2.1924    3.6517    0.0424 H         1 <0>         0.1173
     49 H19        -2.1427    1.1939    0.0187 H         1 <0>         0.1189
     50 H20         0.0021   -0.0041    0.0020 H         1 <0>         0.1291
     51 N7          2.6741   -0.2531   -0.0205 N.2       1 <0>        -0.4123
@<TRIPOS>BOND
     1    1    2 1
     2    1   31 1
     3    1   32 1
     4    1   33 1
     5    2    7 ar
     6    2    3 ar
     7    3   13 1
     8    3    4 ar
     9    4    5 ar
    10    4    9 1
    11    5    6 ar
    12    6    7 ar
    13    6    8 1
    14    8   34 1
    15    8   35 1
    16    8   36 1
    17    9   10 am
    18    9   14 1
    19   10   11 2
    20   10   12 1
    21   12   13 1
    22   12   37 1
    23   12   38 1
    24   13   39 1
    25   13   40 1
    26   14   15 1
    27   14   41 1
    28   14   42 1
    29   15   20 ar
    30   15   16 ar
    31   16   17 ar
    32   16   43 1
    33   17   18 ar
    34   17   44 1
    35   18   19 ar
    36   18   21 1
    37   19   20 ar
    38   19   45 1
    39   20   46 1
    40   21   26 ar
    41   21   22 ar
    42   22   23 ar
    43   22   47 1
    44   23   24 ar
    45   23   48 1
    46   24   25 ar
    47   24   49 1
    48   25   26 ar
    49   25   50 1
    50   26   27 1
    51   27   30 2
    52   27   51 1
    53   28   29 2
    54   28   51 1
    55   29   30 1
@<TRIPOS>MOLECULE
ZINC01552601
   50    52     0     0     0
SMALL
USER_CHARGES
4-[[5-[(E)-3-hydroxy-3-oxo-2-(2-thienylmethyl)prop-1-enyl]-2-propyl-imidazol-1-yl]methyl]benzoic acid
@<TRIPOS>ATOM
      1 C1          1.1492    4.5173   -2.2422 C.3       1 <0>        -0.1572
      2 C2          0.1391    4.1686   -1.1472 C.3       1 <0>        -0.1244
      3 C3          0.8827    3.8699    0.1562 C.3       1 <0>        -0.0759
      4 C4         -0.1122    3.5265    1.2348 C.cat     1 <0>         0.2833
      5 N1         -0.6684    4.3847    2.0508 N.pl3     1 <0>        -0.4777
      6 C5         -1.5002    3.7491    2.8761 C.2       1 <0>        -0.0410
      7 C6         -1.4538    2.4051    2.5613 C.2       1 <0>         0.1296
      8 N2         -0.5621    2.2880    1.5120 N.pl3     1 <0>        -0.3929
      9 C7         -0.1791    1.0497    0.8293 C.3       1 <0>         0.1394
     10 C8          0.9884    0.4215    1.5457 C.ar      1 <0>        -0.1528
     11 C9          2.2804    0.7168    1.1478 C.ar      1 <0>        -0.1170
     12 C10         3.3538    0.1491    1.8023 C.ar      1 <0>        -0.0818
     13 C11         3.1340   -0.7336    2.8616 C.ar      1 <0>        -0.0840
     14 C12         1.8276   -1.0313    3.2544 C.ar      1 <0>        -0.0835
     15 C13         0.7635   -0.4524    2.5946 C.ar      1 <0>        -0.1010
     16 C14         4.2785   -1.3494    3.5639 C.2       1 <0>         0.4831
     17 O1          4.0852   -2.1879    4.4212 O.co2     1 <0>        -0.6196
     18 O2          5.5365   -0.9811    3.2535 O.co2     1 <0>        -0.7497
     19 C15        -2.1750    1.3581    3.1874 C.2       1 <0>        -0.1398
     20 C16        -2.9022    1.6090    4.3048 C.2       1 <0>        -0.0307
     21 C17        -2.7779    2.9394    5.0017 C.3       1 <0>        -0.0321
     22 C18        -3.7884    3.9014    4.4319 C.2       1 <0>        -0.1385
     23 C19        -4.7623    4.5942    5.0712 C.2       1 <0>        -0.1279
     24 C20        -5.5808    5.4322    4.3373 C.2       1 <0>        -0.1485
     25 C21        -5.3922    5.5281    2.9984 C.2       1 <0>        -0.1870
     26 S1         -4.0183    4.4181    2.7386 S.3       1 <0>         0.0063
     27 C22        -3.7764    0.6229    4.8152 C.2       1 <0>         0.4703
     28 O3         -3.8768   -0.4515    4.2524 O.co2     1 <0>        -0.6147
     29 O4         -4.5000    0.8726    5.9271 O.co2     1 <0>        -0.7334
     30 H1          0.6146    4.7320   -3.1793 H         1 <0>         0.0658
     31 H2          1.8314    3.6682   -2.3956 H         1 <0>         0.0645
     32 H3          1.7277    5.4024   -1.9390 H         1 <0>         0.0620
     33 H4         -0.5431    5.0177   -0.9938 H         1 <0>         0.0733
     34 H5         -0.4395    3.2835   -1.4504 H         1 <0>         0.0739
     35 H6          1.5649    3.0207    0.0028 H         1 <0>         0.1180
     36 H7          1.4613    4.7549    0.4594 H         1 <0>         0.1166
     37 H8         -2.0984    4.2022    3.6528 H         1 <0>         0.2399
     38 H9         -1.0293    0.3517    0.8316 H         1 <0>         0.1272
     39 H10         0.1064    1.2764   -0.2085 H         1 <0>         0.1195
     40 H11         2.4488    1.3966    0.3257 H         1 <0>         0.1156
     41 H12         4.3617    0.3839    1.4937 H         1 <0>         0.1362
     42 H13         1.6506   -1.7130    4.0732 H         1 <0>         0.1361
     43 H14        -0.2475   -0.6815    2.8976 H         1 <0>         0.1268
     44 H15        -2.1451    0.3419    2.7673 H         1 <0>         0.1574
     45 H16        -2.9629    2.8082    6.0781 H         1 <0>         0.1269
     46 H17        -1.7646    3.3396    4.8500 H         1 <0>         0.0935
     47 H18        -4.8950    4.4953    6.1384 H         1 <0>         0.1425
     48 H19        -6.3619    5.9985    4.8227 H         1 <0>         0.1344
     49 H20        -5.9329    6.1217    2.2762 H         1 <0>         0.1815
     50 H21        -0.4162    5.4531    1.9809 H         1 <0>         0.4873
@<TRIPOS>BOND
     1    1    2 1
     2    1   30 1
     3    1   31 1
     4    1   32 1
     5    2    3 1
     6    2   33 1
     7    2   34 1
     8    3    4 1
     9    3   35 1
    10    3   36 1
    11    4    8 1
    12    4    5 2
    13    5    6 1
    14    5   50 1
    15    6    7 2
    16    6   37 1
    17    7    8 1
    18    7   19 1
    19    8    9 1
    20    9   10 1
    21    9   38 1
    22    9   39 1
    23   10   15 ar
    24   10   11 ar
    25   11   12 ar
    26   11   40 1
    27   12   13 ar
    28   12   41 1
    29   13   14 ar
    30   13   16 1
    31   14   15 ar
    32   14   42 1
    33   15   43 1
    34   16   17 2
    35   16   18 1
    36   19   20 2
    37   19   44 1
    38   20   21 1
    39   20   27 1
    40   21   22 1
    41   21   45 1
    42   21   46 1
    43   22   26 1
    44   22   23 2
    45   23   24 1
    46   23   47 1
    47   24   25 2
    48   24   48 1
    49   25   26 1
    50   25   49 1
    51   27   28 2
    52   27   29 1
@<TRIPOS>MOLECULE
ZINC01552601
   50    52     0     0     0
SMALL
USER_CHARGES
4-[[5-[2-carboxy-3-(2-thienyl)prop-1-enyl]-2-propyl-imidazol-1-yl]methyl]benzoic acid
@<TRIPOS>ATOM
      1 C1          1.1492    4.5173   -2.2422 C.3       1 <0>        -0.1553
      2 C2          0.1391    4.1686   -1.1472 C.3       1 <0>        -0.1237
      3 C3          0.8827    3.8699    0.1562 C.3       1 <0>        -0.0743
      4 C4         -0.1122    3.5265    1.2348 C.cat     1 <0>         0.2937
      5 C5         -1.5002    3.7491    2.8761 C.2       1 <0>        -0.0516
      6 C6         -1.4538    2.4051    2.5613 C.2       1 <0>         0.1317
      7 N1         -0.5621    2.2880    1.5120 N.pl3     1 <0>        -0.3918
      8 C7         -0.1791    1.0497    0.8293 C.3       1 <0>         0.1426
      9 C8          0.9884    0.4215    1.5457 C.ar      1 <0>        -0.1542
     10 C9          2.2804    0.7168    1.1478 C.ar      1 <0>        -0.1166
     11 C10         3.3538    0.1491    1.8023 C.ar      1 <0>        -0.0818
     12 C11         3.1340   -0.7336    2.8616 C.ar      1 <0>        -0.0834
     13 C12         1.8276   -1.0313    3.2544 C.ar      1 <0>        -0.0836
     14 C13         0.7635   -0.4524    2.5946 C.ar      1 <0>        -0.1006
     15 C14         4.2785   -1.3494    3.5639 C.2       1 <0>         0.4831
     16 O1          4.0852   -2.1879    4.4212 O.co2     1 <0>        -0.6195
     17 C15        -2.1750    1.3581    3.1874 C.2       1 <0>        -0.1384
     18 C16        -2.9022    1.6090    4.3048 C.2       1 <0>        -0.0285
     19 C17        -2.7779    2.9394    5.0017 C.3       1 <0>        -0.0301
     20 C18        -3.7884    3.9014    4.4319 C.2       1 <0>        -0.1399
     21 C19        -4.7623    4.5942    5.0712 C.2       1 <0>        -0.1267
     22 C20        -5.5808    5.4322    4.3373 C.2       1 <0>        -0.1486
     23 C21        -5.3922    5.5281    2.9984 C.2       1 <0>        -0.1858
     24 S1         -4.0183    4.4181    2.7386 S.3       1 <0>         0.0051
     25 C22        -3.7764    0.6229    4.8152 C.2       1 <0>         0.4699
     26 O2         -3.8768   -0.4515    4.2524 O.co2     1 <0>        -0.6140
     27 H1          1.7224    5.3943   -1.9418 H         1 <0>         0.0616
     28 H2          1.8252    3.6759   -2.3942 H         1 <0>         0.0642
     29 H3          0.6194    4.7300   -3.1707 H         1 <0>         0.0656
     30 H4         -0.4342    3.2915   -1.4476 H         1 <0>         0.0739
     31 H5         -0.5369    5.0100   -0.9952 H         1 <0>         0.0729
     32 H6          1.5588    3.0285    0.0042 H         1 <0>         0.1176
     33 H7          1.4560    4.7470    0.4566 H         1 <0>         0.1159
     34 H8         -2.0984    4.2022    3.6528 H         1 <0>         0.2411
     35 H9         -1.0216    0.3581    0.8315 H         1 <0>         0.1265
     36 H10         0.1038    1.2744   -0.1991 H         1 <0>         0.1190
     37 H11         2.4488    1.3966    0.3257 H         1 <0>         0.1159
     38 H12         4.3617    0.3839    1.4937 H         1 <0>         0.1364
     39 H13         1.6506   -1.7130    4.0732 H         1 <0>         0.1363
     40 H14        -0.2475   -0.6815    2.8976 H         1 <0>         0.1270
     41 H15        -2.1456    0.3604    2.7750 H         1 <0>         0.1543
     42 H16        -2.9613    2.8094    6.0683 H         1 <0>         0.1258
     43 H17        -1.7738    3.3359    4.8514 H         1 <0>         0.0930
     44 H18        -4.8950    4.4953    6.1384 H         1 <0>         0.1429
     45 H19        -6.3619    5.9985    4.8227 H         1 <0>         0.1347
     46 H20        -5.9329    6.1217    2.2762 H         1 <0>         0.1818
     47 O3          5.5365   -0.9811    3.2535 O.co2     1 <0>        -0.7495
     48 O4         -4.5000    0.8726    5.9271 O.co2     1 <0>        -0.7326
     49 N2         -0.6680    4.3867    2.0508 N.pl3     1 <0>        -0.4712
     50 H21        -0.4905    5.3980    2.0549 H         1 <0>         0.4691
@<TRIPOS>BOND
     1    1    2 1
     2    1   27 1
     3    1   28 1
     4    1   29 1
     5    2    3 1
     6    2   30 1
     7    2   31 1
     8    3    4 1
     9    3   32 1
    10    3   33 1
    11    4    7 1
    12    4   49 2
    13    5    6 2
    14    5   34 1
    15    5   49 1
    16    6    7 1
    17    6   17 1
    18    7    8 1
    19    8    9 1
    20    8   35 1
    21    8   36 1
    22    9   14 ar
    23    9   10 ar
    24   10   11 ar
    25   10   37 1
    26   11   12 ar
    27   11   38 1
    28   12   13 ar
    29   12   15 1
    30   13   14 ar
    31   13   39 1
    32   14   40 1
    33   15   16 2
    34   15   47 1
    35   17   18 2
    36   17   41 1
    37   18   19 1
    38   18   25 1
    39   19   20 1
    40   19   42 1
    41   19   43 1
    42   20   24 1
    43   20   21 2
    44   21   22 1
    45   21   44 1
    46   22   23 2
    47   22   45 1
    48   23   24 1
    49   23   46 1
    50   25   26 2
    51   25   48 1
    52   49   50 1
@<TRIPOS>MOLECULE
ZINC13831927
   42    43     0     0     0
SMALL
USER_CHARGES
4-[[2-butyl-5-[(E)-3-hydroxy-3-oxo-prop-1-enyl]imidazol-1-yl]methyl]benzoic acid
@<TRIPOS>ATOM
      1 C1         -0.9007    1.7316   -3.6838 C.3       1 <0>        -0.1509
      2 C2         -0.1399    1.2093   -2.4634 C.3       1 <0>        -0.1248
      3 C3         -0.8809    1.6159   -1.1881 C.3       1 <0>        -0.1133
      4 C4         -0.1201    1.0937    0.0323 C.3       1 <0>        -0.0374
      5 C5         -0.7816    1.5964    1.2896 C.2       1 <0>         0.2020
      6 N1         -1.6712    0.9403    1.9896 N.2       1 <0>        -0.4932
      7 C6         -2.0486    1.6710    3.0386 C.2       1 <0>        -0.0151
      8 C7         -1.3493    2.8611    2.9910 C.2       1 <0>         0.0238
      9 N2         -0.5444    2.7879    1.8700 N.pl3     1 <0>        -0.4372
     10 C8          0.3887    3.8148    1.3998 C.3       1 <0>         0.1490
     11 C9          1.7623    3.5370    1.9540 C.ar      1 <0>        -0.1251
     12 C10         2.0914    3.9681    3.2270 C.ar      1 <0>        -0.1084
     13 C11         3.3453    3.7130    3.7423 C.ar      1 <0>        -0.0754
     14 C12         4.2868    3.0273    2.9721 C.ar      1 <0>        -0.1046
     15 C13         3.9497    2.5998    1.6863 C.ar      1 <0>        -0.0922
     16 C14         2.6904    2.8571    1.1854 C.ar      1 <0>        -0.1214
     17 C15         5.6333    2.7550    3.5154 C.2       1 <0>         0.4899
     18 O1          6.4501    2.1580    2.8431 O.co2     1 <0>        -0.6362
     19 C16        -1.4356    3.9372    3.9091 C.2       1 <0>        -0.0821
     20 C17        -2.1955    3.8164    5.0265 C.2       1 <0>        -0.1379
     21 C18        -2.1978    4.8462    5.9942 C.2       1 <0>         0.4734
     22 O2         -1.5181    5.8415    5.8253 O.co2     1 <0>        -0.6377
     23 H1         -0.3728    1.4419   -4.5924 H         1 <0>         0.0512
     24 H2         -1.9044    1.3065   -3.6955 H         1 <0>         0.0524
     25 H3         -0.9671    2.8183   -3.6329 H         1 <0>         0.0527
     26 H4          0.8637    1.6344   -2.4517 H         1 <0>         0.0634
     27 H5         -0.0736    0.1225   -2.5143 H         1 <0>         0.0635
     28 H6         -1.8846    1.1908   -1.1998 H         1 <0>         0.0679
     29 H7         -0.9472    2.7027   -1.1372 H         1 <0>         0.0594
     30 H8         -0.1298    0.0037    0.0275 H         1 <0>         0.0906
     31 H9          0.9101    1.4480   -0.0029 H         1 <0>         0.0812
     32 H10        -2.7702    1.3845    3.7894 H         1 <0>         0.1715
     33 H11         0.4265    3.8001    0.3106 H         1 <0>         0.0949
     34 H12         0.0516    4.7945    1.7385 H         1 <0>         0.1000
     35 H13         1.3636    4.5019    3.8200 H         1 <0>         0.1243
     36 H14         3.5995    4.0460    4.7377 H         1 <0>         0.1333
     37 H15         4.6731    2.0687    1.0855 H         1 <0>         0.1261
     38 H16         2.4282    2.5267    0.1912 H         1 <0>         0.1146
     39 H17        -0.8964    4.8535    3.7193 H         1 <0>         0.1228
     40 H18        -2.7987    2.9332    5.1763 H         1 <0>         0.1067
     41 O3          5.9553    3.1688    4.7562 O.co2     1 <0>        -0.7517
     42 O4         -2.9540    4.7260    7.1060 O.co2     1 <0>        -0.7702
@<TRIPOS>BOND
     1    1    2 1
     2    1   23 1
     3    1   24 1
     4    1   25 1
     5    2    3 1
     6    2   26 1
     7    2   27 1
     8    3    4 1
     9    3   28 1
    10    3   29 1
    11    4    5 1
    12    4   30 1
    13    4   31 1
    14    5    9 1
    15    5    6 2
    16    6    7 1
    17    7    8 2
    18    7   32 1
    19    8    9 1
    20    8   19 1
    21    9   10 1
    22   10   11 1
    23   10   33 1
    24   10   34 1
    25   11   16 ar
    26   11   12 ar
    27   12   13 ar
    28   12   35 1
    29   13   14 ar
    30   13   36 1
    31   14   15 ar
    32   14   17 1
    33   15   16 ar
    34   15   37 1
    35   16   38 1
    36   17   18 2
    37   17   41 1
    38   19   20 2
    39   19   39 1
    40   20   21 1
    41   20   40 1
    42   21   22 2
    43   21   42 1
@<TRIPOS>MOLECULE
ZINC13831927
   43    44     0     0     0
SMALL
USER_CHARGES
4-[[2-butyl-5-[(E)-3-hydroxy-3-oxo-prop-1-enyl]imidazol-1-yl]methyl]benzoic acid
@<TRIPOS>ATOM
      1 C1         -0.9007    1.7316   -3.6838 C.3       1 <0>        -0.1553
      2 C2         -0.1399    1.2093   -2.4634 C.3       1 <0>        -0.1256
      3 C3         -0.8809    1.6159   -1.1881 C.3       1 <0>        -0.1205
      4 C4         -0.1201    1.0937    0.0323 C.3       1 <0>        -0.0755
      5 C5         -0.7816    1.5964    1.2896 C.cat     1 <0>         0.2917
      6 C6         -2.0486    1.6710    3.0386 C.2       1 <0>        -0.0265
      7 C7         -1.3493    2.8611    2.9910 C.2       1 <0>         0.1345
      8 N1         -0.5444    2.7879    1.8700 N.pl3     1 <0>        -0.3935
      9 C8          0.3887    3.8148    1.3998 C.3       1 <0>         0.1428
     10 C9          1.7623    3.5370    1.9540 C.ar      1 <0>        -0.1555
     11 C10         2.0914    3.9681    3.2270 C.ar      1 <0>        -0.1018
     12 C11         3.3453    3.7130    3.7423 C.ar      1 <0>        -0.0743
     13 C12         4.2868    3.0273    2.9721 C.ar      1 <0>        -0.0835
     14 C13         3.9497    2.5998    1.6863 C.ar      1 <0>        -0.0910
     15 C14         2.6904    2.8571    1.1854 C.ar      1 <0>        -0.1170
     16 C15         5.6333    2.7550    3.5154 C.2       1 <0>         0.4827
     17 O1          6.4501    2.1580    2.8431 O.co2     1 <0>        -0.6271
     18 C16        -1.4356    3.9372    3.9091 C.2       1 <0>        -0.1504
     19 C17        -2.1955    3.8164    5.0265 C.2       1 <0>        -0.0504
     20 C18        -2.1978    4.8462    5.9942 C.2       1 <0>         0.4564
     21 O2         -1.5181    5.8415    5.8253 O.co2     1 <0>        -0.6152
     22 H1         -0.3728    1.4419   -4.5924 H         1 <0>         0.0600
     23 H2         -1.9044    1.3065   -3.6955 H         1 <0>         0.0547
     24 H3         -0.9671    2.8183   -3.6329 H         1 <0>         0.0567
     25 H4          0.8637    1.6344   -2.4517 H         1 <0>         0.0716
     26 H5         -0.0736    0.1225   -2.5143 H         1 <0>         0.0692
     27 H6         -1.8846    1.1908   -1.1998 H         1 <0>         0.0740
     28 H7         -0.9472    2.7027   -1.1372 H         1 <0>         0.0733
     29 H8         -0.1298    0.0037    0.0275 H         1 <0>         0.1144
     30 H9          0.9101    1.4480   -0.0029 H         1 <0>         0.1196
     31 H10        -2.7702    1.3845    3.7894 H         1 <0>         0.2208
     32 H11         0.4265    3.8001    0.3106 H         1 <0>         0.1179
     33 H12         0.0516    4.7945    1.7385 H         1 <0>         0.1279
     34 H13         1.3636    4.5019    3.8200 H         1 <0>         0.1283
     35 H14         3.5995    4.0460    4.7377 H         1 <0>         0.1403
     36 H15         4.6731    2.0687    1.0855 H         1 <0>         0.1331
     37 H16         2.4282    2.5267    0.1912 H         1 <0>         0.1169
     38 H17        -0.8964    4.8535    3.7193 H         1 <0>         0.1492
     39 H18        -2.7987    2.9332    5.1763 H         1 <0>         0.1157
     40 O3          5.9553    3.1688    4.7562 O.co2     1 <0>        -0.7412
     41 O4         -2.9540    4.7260    7.1060 O.co2     1 <0>        -0.7424
     42 N2         -1.6719    0.9384    1.9891 N.pl3     1 <0>        -0.4746
     43 H19        -2.0261    0.0013    1.7642 H         1 <0>         0.4694
@<TRIPOS>BOND
     1    1    2 1
     2    1   22 1
     3    1   23 1
     4    1   24 1
     5    2    3 1
     6    2   25 1
     7    2   26 1
     8    3    4 1
     9    3   27 1
    10    3   28 1
    11    4    5 1
    12    4   29 1
    13    4   30 1
    14    5    8 1
    15    5   42 2
    16    6    7 2
    17    6   31 1
    18    6   42 1
    19    7    8 1
    20    7   18 1
    21    8    9 1
    22    9   10 1
    23    9   32 1
    24    9   33 1
    25   10   15 ar
    26   10   11 ar
    27   11   12 ar
    28   11   34 1
    29   12   13 ar
    30   12   35 1
    31   13   14 ar
    32   13   16 1
    33   14   15 ar
    34   14   36 1
    35   15   37 1
    36   16   17 2
    37   16   40 1
    38   18   19 2
    39   18   38 1
    40   19   20 1
    41   19   39 1
    42   20   21 2
    43   20   41 1
    44   42   43 1
@<TRIPOS>MOLECULE
ZINC29319828
   53    55     0     0     0
SMALL
USER_CHARGES

@<TRIPOS>ATOM
      1 C1          1.9590    1.1917   -0.6016 C.3       1 <0>        -0.1585
      2 C2          1.3921   -0.2274   -0.5264 C.3       1 <0>        -0.1190
      3 C3          2.0028   -1.0802   -1.6402 C.3       1 <0>        -0.1362
      4 C4          1.4359   -2.4993   -1.5650 C.3       1 <0>        -0.0674
      5 C5          2.0375   -3.3394   -2.6620 C.cat     1 <0>         0.2948
      6 N1          3.1795   -3.9743   -2.5876 N.pl3     1 <0>        -0.4645
      7 C6          3.4127   -4.6198   -3.7296 C.2       1 <0>        -0.0489
      8 C7          2.3463   -4.3722   -4.5736 C.2       1 <0>         0.1371
      9 N2          1.4807   -3.5574   -3.8677 N.pl3     1 <0>        -0.3907
     10 C8          0.2001   -3.0284   -4.3437 C.3       1 <0>         0.1421
     11 C9          0.4390   -1.7627   -5.1259 C.ar      1 <0>        -0.1590
     12 C10         0.3256   -0.5342   -4.4991 C.ar      1 <0>        -0.1160
     13 C11         0.5424    0.6284   -5.2088 C.ar      1 <0>        -0.0900
     14 C12         0.8777    0.5636   -6.5636 C.ar      1 <0>        -0.1022
     15 C13         0.9908   -0.6804   -7.1896 C.ar      1 <0>        -0.0821
     16 C14         0.7763   -1.8348   -6.4661 C.ar      1 <0>        -0.1022
     17 C15         1.1106    1.8028   -7.3296 C.2       1 <0>         0.5143
     18 O1          0.9199    2.8909   -6.8051 O.co2     1 <0>        -0.6830
     19 O2          1.4945    1.7419   -8.4892 O.co2     1 <0>        -0.6756
     20 C16         2.1733   -4.8582   -5.8917 C.2       1 <0>        -0.1298
     21 C17         3.1938   -5.5017   -6.5182 C.2       1 <0>        -0.0088
     22 C18         4.5691   -5.5123   -5.9021 C.3       1 <0>        -0.0316
     23 C19         4.7677   -6.7962   -5.1385 C.2       1 <0>        -0.1366
     24 C20         5.3874   -7.9359   -5.5313 C.2       1 <0>        -0.1210
     25 C21         5.4515   -9.0011   -4.6528 C.2       1 <0>        -0.1442
     26 C22         4.8927   -8.8745   -3.4244 C.2       1 <0>        -0.1815
     27 S1          4.2545   -7.2081   -3.4789 S.3       1 <0>        -0.0199
     28 C23         2.9657   -6.1586   -7.7430 C.2       1 <0>         0.4426
     29 O3          1.7498   -6.1493   -8.2876 O.co2     1 <0>        -0.6774
     30 O4          3.9660   -6.7893   -8.3571 O.co2     1 <0>        -0.6757
     31 H1          3.0417    1.1574   -0.4806 H         1 <0>         0.0548
     32 H2          1.7152    1.6295   -1.5696 H         1 <0>         0.0634
     33 H3          1.5239    1.7993    0.1919 H         1 <0>         0.0588
     34 H4          1.6359   -0.6652    0.4416 H         1 <0>         0.0649
     35 H5          0.3094   -0.1930   -0.6473 H         1 <0>         0.0689
     36 H6          1.7591   -0.6424   -2.6082 H         1 <0>         0.0906
     37 H7          3.0856   -1.1146   -1.5192 H         1 <0>         0.0732
     38 H8          1.6797   -2.9371   -0.5970 H         1 <0>         0.1142
     39 H9          0.3532   -2.4650   -1.6859 H         1 <0>         0.1145
     40 H10         4.2776   -5.2259   -3.9550 H         1 <0>         0.2325
     41 H11        -0.2820   -3.7663   -4.9849 H         1 <0>         0.1270
     42 H12        -0.4433   -2.8125   -3.4908 H         1 <0>         0.1195
     43 H13         0.0664   -0.4856   -3.4518 H         1 <0>         0.1174
     44 H14         0.4529    1.5865   -4.7185 H         1 <0>         0.1315
     45 H15         1.2497   -0.7379   -8.2366 H         1 <0>         0.1358
     46 H16         0.8677   -2.7972   -6.9476 H         1 <0>         0.1262
     47 H17         1.2307   -4.7178   -6.3996 H         1 <0>         0.1596
     48 H18         5.3201   -5.4374   -6.6886 H         1 <0>         0.1243
     49 H19         4.6693   -4.6661   -5.2224 H         1 <0>         0.0927
     50 H20         5.8243   -8.0107   -6.5162 H         1 <0>         0.1487
     51 H21         5.9392   -9.9206   -4.9409 H         1 <0>         0.1355
     52 H22         4.8486   -9.5937   -2.6199 H         1 <0>         0.1824
     53 H23         3.7682   -3.9746   -1.8166 H         1 <0>         0.4545
@<TRIPOS>BOND
     1    1    2 1
     2    1   31 1
     3    1   32 1
     4    1   33 1
     5    2    3 1
     6    2   34 1
     7    2   35 1
     8    3    4 1
     9    3   36 1
    10    3   37 1
    11    4    5 1
    12    4   38 1
    13    4   39 1
    14    5    9 1
    15    5    6 2
    16    6    7 1
    17    6   53 1
    18    7    8 2
    19    7   40 1
    20    8    9 1
    21    8   20 1
    22    9   10 1
    23   10   11 1
    24   10   41 1
    25   10   42 1
    26   11   16 ar
    27   11   12 ar
    28   12   13 ar
    29   12   43 1
    30   13   14 ar
    31   13   44 1
    32   14   15 ar
    33   14   17 1
    34   15   16 ar
    35   15   45 1
    36   16   46 1
    37   17   18 2
    38   17   19 1
    39   20   21 2
    40   20   47 1
    41   21   22 1
    42   21   28 1
    43   22   23 1
    44   22   48 1
    45   22   49 1
    46   23   27 1
    47   23   24 2
    48   24   25 1
    49   24   50 1
    50   25   26 2
    51   25   51 1
    52   26   27 1
    53   26   52 1
    54   28   29 2
    55   28   30 1
@<TRIPOS>MOLECULE
ZINC29319828
   52    54     0     0     0
SMALL
USER_CHARGES

@<TRIPOS>ATOM
      1 C1          0.4744    2.4124   -0.4417 C.3       1 <0>        -0.1511
      2 C2          0.1486    0.9211   -0.5461 C.3       1 <0>        -0.1239
      3 C3          0.9581    0.3008   -1.6866 C.3       1 <0>        -0.1138
      4 C4          0.6323   -1.1904   -1.7910 C.3       1 <0>        -0.0353
      5 C5          1.4296   -1.8014   -2.9144 C.2       1 <0>         0.2051
      6 N1          1.0395   -1.8818   -4.1611 N.2       1 <0>        -0.4842
      7 C6          1.9816   -2.4768   -4.8916 C.2       1 <0>        -0.0269
      8 C7          3.0297   -2.7890   -4.0461 C.2       1 <0>         0.0257
      9 N2          2.6553   -2.3435   -2.7919 N.pl3     1 <0>        -0.4349
     10 C8          3.4431   -2.4453   -1.5610 C.3       1 <0>         0.1490
     11 C9          3.2317   -3.8021   -0.9401 C.ar      1 <0>        -0.1303
     12 C10         2.1470   -4.0172   -0.1081 C.ar      1 <0>        -0.1193
     13 C11         1.9474   -5.2561    0.4640 C.ar      1 <0>        -0.0913
     14 C12         2.8434   -6.2955    0.2015 C.ar      1 <0>        -0.1228
     15 C13         3.9361   -6.0712   -0.6398 C.ar      1 <0>        -0.0836
     16 C14         4.1201   -4.8285   -1.2091 C.ar      1 <0>        -0.1078
     17 C15         2.6370   -7.6236    0.8101 C.2       1 <0>         0.5204
     18 O1          1.7349   -7.7922    1.6184 O.co2     1 <0>        -0.6920
     19 O2          3.3679   -8.5557    0.5064 O.co2     1 <0>        -0.6844
     20 C16         4.2423   -3.4304   -4.3945 C.2       1 <0>        -0.0600
     21 C17         4.3910   -3.9782   -5.6297 C.2       1 <0>        -0.0970
     22 C18         3.2032   -4.0956   -6.5498 C.3       1 <0>        -0.0190
     23 C19         3.2026   -2.9416   -7.5190 C.2       1 <0>        -0.1090
     24 C20         3.6636   -2.8964   -8.7928 C.2       1 <0>        -0.1550
     25 C21         3.5568   -1.7152   -9.5028 C.2       1 <0>        -0.1467
     26 C22         2.9943   -0.6370   -8.9043 C.2       1 <0>        -0.2280
     27 S1          2.5872   -1.2814   -7.2899 S.3       1 <0>         0.0486
     28 C23         5.6550   -4.4360   -6.0496 C.2       1 <0>         0.4609
     29 O3          6.7052   -4.3321   -5.2361 O.co2     1 <0>        -0.7052
     30 O4          5.8007   -4.9729   -7.2603 O.co2     1 <0>        -0.7023
     31 H1          1.5386    2.5387   -0.2425 H         1 <0>         0.0526
     32 H2          0.2191    2.9066   -1.3791 H         1 <0>         0.0529
     33 H3         -0.1022    2.8543    0.3708 H         1 <0>         0.0508
     34 H4          0.4040    0.4270    0.3913 H         1 <0>         0.0624
     35 H5         -0.9156    0.7948   -0.7452 H         1 <0>         0.0634
     36 H6          0.7027    0.7950   -2.6240 H         1 <0>         0.0700
     37 H7          2.0223    0.4272   -1.4874 H         1 <0>         0.0598
     38 H8          0.8876   -1.6846   -0.8536 H         1 <0>         0.0782
     39 H9         -0.4319   -1.3167   -1.9901 H         1 <0>         0.0920
     40 H10         1.9348   -2.6788   -5.9515 H         1 <0>         0.1881
     41 H11         4.4997   -2.3130   -1.7938 H         1 <0>         0.0979
     42 H12         3.1256   -1.6721   -0.8614 H         1 <0>         0.0971
     43 H13         1.4552   -3.2128    0.0939 H         1 <0>         0.1111
     44 H14         1.1008   -5.4223    1.1137 H         1 <0>         0.1250
     45 H15         4.6327   -6.8701   -0.8472 H         1 <0>         0.1290
     46 H16         4.9618   -4.6548   -1.8631 H         1 <0>         0.1219
     47 H17         5.0495   -3.4846   -3.6790 H         1 <0>         0.1321
     48 H18         3.2626   -5.0336   -7.1019 H         1 <0>         0.1021
     49 H19         2.2853   -4.0772   -5.9623 H         1 <0>         0.0976
     50 H20         4.1079   -3.7701   -9.2462 H         1 <0>         0.1383
     51 H21         3.9166   -1.6523  -10.5192 H         1 <0>         0.1207
     52 H22         2.8311    0.3537   -9.3021 H         1 <0>         0.1712
@<TRIPOS>BOND
     1    1    2 1
     2    1   31 1
     3    1   32 1
     4    1   33 1
     5    2    3 1
     6    2   34 1
     7    2   35 1
     8    3    4 1
     9    3   36 1
    10    3   37 1
    11    4    5 1
    12    4   38 1
    13    4   39 1
    14    5    9 1
    15    5    6 2
    16    6    7 1
    17    7    8 2
    18    7   40 1
    19    8    9 1
    20    8   20 1
    21    9   10 1
    22   10   11 1
    23   10   41 1
    24   10   42 1
    25   11   16 ar
    26   11   12 ar
    27   12   13 ar
    28   12   43 1
    29   13   14 ar
    30   13   44 1
    31   14   15 ar
    32   14   17 1
    33   15   16 ar
    34   15   45 1
    35   16   46 1
    36   17   18 2
    37   17   19 1
    38   20   21 2
    39   20   47 1
    40   21   22 1
    41   21   28 1
    42   22   23 1
    43   22   48 1
    44   22   49 1
    45   23   27 1
    46   23   24 2
    47   24   25 1
    48   24   50 1
    49   25   26 2
    50   25   51 1
    51   26   27 1
    52   26   52 1
    53   28   29 2
    54   28   30 1
@<TRIPOS>MOLECULE
ZINC29396939
   67    71     0     0     0
SMALL
USER_CHARGES
2-[2-butyl-4-oxo-3-[[4-[2-(2H-tetrazol-5-yl)phenyl]phenyl]methyl]imidazo[4,5-c]pyridin-5-yl]-N,N-dimethyl-acetamide
@<TRIPOS>ATOM
      1 C1          2.3504   -1.3509    4.7833 C.3       1 <0>        -0.1532
      2 C2          1.9868    0.0894    4.4168 C.3       1 <0>        -0.1255
      3 C3          2.2586    0.3211    2.9290 C.3       1 <0>        -0.1136
      4 C4          1.8950    1.7613    2.5624 C.3       1 <0>        -0.0504
      5 C5          2.2685    2.0237    1.1262 C.2       1 <0>         0.2752
      6 N1          3.4566    2.3746    0.7132 N.2       1 <0>        -0.4876
      7 C6          3.4430    2.5320   -0.6193 C.2       1 <0>         0.1143
      8 C7          4.4422    2.9101   -1.6163 C.2       1 <0>        -0.1439
      9 C8          4.0790    2.9730   -2.9118 C.2       1 <0>         0.0986
     10 N2          2.8035    2.6917   -3.3047 N.am      1 <0>        -0.4949
     11 C9          1.8473    2.3385   -2.4254 C.2       1 <0>         0.5809
     12 O1          0.7186    2.0949   -2.8202 O.2       1 <0>        -0.5426
     13 C10         2.1436    2.2497   -1.0550 C.2       1 <0>        -0.0968
     14 N3          1.4250    1.9278    0.0767 N.pl3     1 <0>        -0.4046
     15 C11         0.0088    1.5570    0.1309 C.3       1 <0>         0.1423
     16 C12        -0.8258    2.7922    0.3515 C.ar      1 <0>        -0.1134
     17 C13        -1.2298    3.1314    1.6303 C.ar      1 <0>        -0.1126
     18 C14        -1.9894    4.2645    1.8391 C.ar      1 <0>         0.0075
     19 C15        -2.3596    5.0613    0.7568 C.ar      1 <0>        -0.0358
     20 C16        -1.9543    4.7114   -0.5303 C.ar      1 <0>        -0.1063
     21 C17        -1.1897    3.5794   -0.7262 C.ar      1 <0>        -0.1174
     22 C18        -3.1814    6.2759    0.9738 C.ar      1 <0>        -0.0407
     23 C19        -2.7881    7.4943    0.4263 C.ar      1 <0>        -0.1089
     24 C20        -3.5592    8.6214    0.6260 C.ar      1 <0>        -0.1355
     25 C21        -4.7191    8.5515    1.3788 C.ar      1 <0>        -0.1208
     26 C22        -5.1202    7.3527    1.9332 C.ar      1 <0>        -0.1042
     27 C23        -4.3571    6.2053    1.7368 C.ar      1 <0>         0.0535
     28 C24        -4.7840    4.9151    2.3311 C.2       1 <0>         0.0744
     29 N4         -5.8585    4.7034    3.0655 N.2       1 <0>        -0.3637
     30 N5         -5.8757    3.4559    3.3884 N.2       1 <0>        -0.1967
     31 N6         -4.8469    2.8705    2.8824 N.2       1 <0>        -0.1856
     32 N7         -4.1554    3.7358    2.2214 N.2       1 <0>        -0.3564
     33 C25         2.4640    2.7755   -4.7273 C.3       1 <0>         0.0830
     34 C26         2.6997    1.4377   -5.3797 C.2       1 <0>         0.4993
     35 O2          3.1108    0.5059   -4.7212 O.2       1 <0>        -0.5198
     36 N8          2.4537    1.2766   -6.6950 N.am      1 <0>        -0.6211
     37 C27         2.6828   -0.0240   -7.3292 C.3       1 <0>         0.0874
     38 C28         1.9571    2.4021   -7.4905 C.3       1 <0>         0.0703
     39 H1          2.1550   -1.5175    5.8529 H         1 <0>         0.0546
     40 H2          3.4162   -1.5246    4.5738 H         1 <0>         0.0532
     41 H3          1.7414   -2.0460    4.1867 H         1 <0>         0.0538
     42 H4          0.9210    0.2631    4.6263 H         1 <0>         0.0670
     43 H5          2.5958    0.7845    5.0134 H         1 <0>         0.0658
     44 H6          3.3244    0.1473    2.7196 H         1 <0>         0.0720
     45 H7          1.6496   -0.3740    2.3324 H         1 <0>         0.0623
     46 H8          0.8131    1.9109    2.6931 H         1 <0>         0.0911
     47 H9          2.4428    2.4556    3.2165 H         1 <0>         0.1024
     48 H10         5.4558    3.1351   -1.3192 H         1 <0>         0.1511
     49 H11         4.8123    3.2513   -3.6542 H         1 <0>         0.1624
     50 H12        -0.2825    1.0823   -0.8177 H         1 <0>         0.1100
     51 H13        -0.1541    0.8517    0.9591 H         1 <0>         0.1017
     52 H14        -0.9464    2.5107    2.4675 H         1 <0>         0.1129
     53 H15        -2.3003    4.5309    2.8385 H         1 <0>         0.1160
     54 H16        -2.2384    5.3249   -1.3725 H         1 <0>         0.1128
     55 H17        -0.8752    3.3073   -1.7229 H         1 <0>         0.1238
     56 H18        -1.8820    7.5564   -0.1581 H         1 <0>         0.1192
     57 H19        -3.2539    9.5640    0.1963 H         1 <0>         0.1170
     58 H20        -5.3133    9.4401    1.5334 H         1 <0>         0.1186
     59 H21        -6.0262    7.3050    2.5191 H         1 <0>         0.1292
     60 H22         1.4056    3.0550   -4.8358 H         1 <0>         0.1301
     61 H23         3.0953    3.5355   -5.2108 H         1 <0>         0.1220
     62 H24         2.4279    0.0390   -8.3974 H         1 <0>         0.0774
     63 H25         2.0514   -0.7840   -6.8457 H         1 <0>         0.0619
     64 H26         3.7411   -0.3035   -7.2206 H         1 <0>         0.0618
     65 H27         1.8172    2.0807   -8.5331 H         1 <0>         0.0826
     66 H28         2.6855    3.2256   -7.4553 H         1 <0>         0.0651
     67 H29         0.9958    2.7450   -7.0804 H         1 <0>         0.0674
@<TRIPOS>BOND
     1    1    2 1
     2    1   39 1
     3    1   40 1
     4    1   41 1
     5    2    3 1
     6    2   42 1
     7    2   43 1
     8    3    4 1
     9    3   44 1
    10    3   45 1
    11    4    5 1
    12    4   46 1
    13    4   47 1
    14    5   14 1
    15    5    6 2
    16    6    7 1
    17    7   13 2
    18    7    8 1
    19    8    9 2
    20    8   48 1
    21    9   10 1
    22    9   49 1
    23   10   11 am
    24   10   33 1
    25   11   12 2
    26   11   13 1
    27   13   14 1
    28   14   15 1
    29   15   16 1
    30   15   50 1
    31   15   51 1
    32   16   21 ar
    33   16   17 ar
    34   17   18 ar
    35   17   52 1
    36   18   19 ar
    37   18   53 1
    38   19   20 ar
    39   19   22 1
    40   20   21 ar
    41   20   54 1
    42   21   55 1
    43   22   27 ar
    44   22   23 ar
    45   23   24 ar
    46   23   56 1
    47   24   25 ar
    48   24   57 1
    49   25   26 ar
    50   25   58 1
    51   26   27 ar
    52   26   59 1
    53   27   28 1
    54   28   32 1
    55   28   29 2
    56   29   30 1
    57   30   31 1
    58   31   32 2
    59   33   34 1
    60   33   60 1
    61   33   61 1
    62   34   35 2
    63   34   36 am
    64   36   37 1
    65   36   38 1
    66   37   62 1
    67   37   63 1
    68   37   64 1
    69   38   65 1
    70   38   66 1
    71   38   67 1
@<TRIPOS>MOLECULE
ZINC14952767
   50    53     0     0     0
SMALL
USER_CHARGES
2-butyl-5-chloro-3-[[4-[2-(1H-tetrazol-5-yl)phenyl]phenyl]methyl]imidazole-4-carboxylic acid
@<TRIPOS>ATOM
      1 C1         -3.0849   -2.4707   -2.9197 C.3       1 <0>        -0.1509
      2 C2         -2.7736   -2.0679   -1.4768 C.3       1 <0>        -0.1258
      3 C3         -1.4760   -1.2579   -1.4421 C.3       1 <0>        -0.1125
      4 C4         -1.1647   -0.8552    0.0007 C.3       1 <0>        -0.0373
      5 C5          0.0452    0.0430    0.0216 C.2       1 <0>         0.2055
      6 N1          1.2884   -0.3644    0.0372 N.2       1 <0>        -0.4965
      7 C6          2.1083    0.6875    0.0538 C.2       1 <0>         0.0672
      8 C7          1.3268    1.8242    0.0482 C.2       1 <0>        -0.0159
      9 N2          0.0142    1.3870    0.0277 N.pl3     1 <0>        -0.4055
     10 C8         -1.1839    2.2300    0.0202 C.3       1 <0>         0.1384
     11 C9         -1.6857    2.4022    1.4308 C.ar      1 <0>        -0.0955
     12 C10        -2.7003    1.5902    1.9050 C.ar      1 <0>        -0.1212
     13 C11        -3.1600    1.7394    3.1976 C.ar      1 <0>         0.0028
     14 C12        -2.6073    2.7182    4.0224 C.ar      1 <0>        -0.0555
     15 C13        -1.5889    3.5374    3.5370 C.ar      1 <0>        -0.1075
     16 C14        -1.1338    3.3754    2.2444 C.ar      1 <0>        -0.1097
     17 C15        -3.1008    2.8876    5.4097 C.ar      1 <0>        -0.0206
     18 C16        -2.2021    2.9334    6.4719 C.ar      1 <0>        -0.1124
     19 C17        -2.6655    3.0961    7.7618 C.ar      1 <0>        -0.1320
     20 C18        -4.0237    3.2039    8.0102 C.ar      1 <0>        -0.1303
     21 C19        -4.9295    3.1554    6.9706 C.ar      1 <0>        -0.1019
     22 C20        -4.4790    2.9969    5.6611 C.ar      1 <0>         0.0415
     23 C21        -5.4453    2.9438    4.5435 C.2       1 <0>         0.1209
     24 N3         -6.7957    3.0304    4.6399 N.2       1 <0>        -0.4142
     25 N4         -7.2666    2.9324    3.3188 N.2       1 <0>        -0.2211
     26 N5         -6.2324    2.7928    2.5624 N.2       1 <0>        -0.1519
     27 N6         -5.1585    2.7977    3.2665 N.2       1 <0>        -0.3713
     28 C22         1.7922    3.2123    0.0619 C.2       1 <0>         0.5226
     29 O1          2.9841    3.4541    0.0798 O.co2     1 <0>        -0.6057
     30 O2          0.8990    4.2232    0.0546 O.co2     1 <0>        -0.7432
     31 Cl1         3.8433    0.6355    0.0788 Cl        1 <0>        -0.0173
     32 H1         -4.0178   -3.0530   -2.9447 H         1 <0>         0.0505
     33 H2         -2.2605   -3.0818   -3.3158 H         1 <0>         0.0513
     34 H3         -3.2002   -1.5668   -3.5359 H         1 <0>         0.0535
     35 H4         -3.5980   -1.4568   -1.0807 H         1 <0>         0.0658
     36 H5         -2.6583   -2.9717   -0.8605 H         1 <0>         0.0621
     37 H6         -0.6516   -1.8690   -1.8383 H         1 <0>         0.0677
     38 H7         -1.5914   -0.3540   -2.0583 H         1 <0>         0.0611
     39 H8         -2.0263   -0.3197    0.4259 H         1 <0>         0.0864
     40 H9         -0.9624   -1.7568    0.5975 H         1 <0>         0.0885
     41 H10        -0.9369    3.2144   -0.4039 H         1 <0>         0.1344
     42 H11        -1.9642    1.7528   -0.5909 H         1 <0>         0.0836
     43 H12        -3.1304    0.8350    1.2639 H         1 <0>         0.1087
     44 H13        -3.9489    1.1017    3.5683 H         1 <0>         0.1092
     45 H14        -1.1573    4.2976    4.1713 H         1 <0>         0.1097
     46 H15        -0.3450    4.0094    1.8673 H         1 <0>         0.1455
     47 H16        -1.1418    2.8459    6.2861 H         1 <0>         0.1219
     48 H17        -1.9650    3.1350    8.5829 H         1 <0>         0.1151
     49 H18        -4.3759    3.3264    9.0238 H         1 <0>         0.1152
     50 H19        -5.9873    3.2397    7.1715 H         1 <0>         0.1262
@<TRIPOS>BOND
     1    1    2 1
     2    1   32 1
     3    1   33 1
     4    1   34 1
     5    2    3 1
     6    2   35 1
     7    2   36 1
     8    3    4 1
     9    3   37 1
    10    3   38 1
    11    4    5 1
    12    4   39 1
    13    4   40 1
    14    5    9 1
    15    5    6 2
    16    6    7 1
    17    7    8 2
    18    7   31 1
    19    8    9 1
    20    8   28 1
    21    9   10 1
    22   10   11 1
    23   10   41 1
    24   10   42 1
    25   11   16 ar
    26   11   12 ar
    27   12   13 ar
    28   12   43 1
    29   13   14 ar
    30   13   44 1
    31   14   15 ar
    32   14   17 1
    33   15   16 ar
    34   15   45 1
    35   16   46 1
    36   17   22 ar
    37   17   18 ar
    38   18   19 ar
    39   18   47 1
    40   19   20 ar
    41   19   48 1
    42   20   21 ar
    43   20   49 1
    44   21   22 ar
    45   21   50 1
    46   22   23 1
    47   23   27 2
    48   23   24 1
    49   24   25 1
    50   25   26 2
    51   26   27 1
    52   28   29 2
    53   28   30 1
