@<TRIPOS>MOLECULE
ZINC00031969
   29    31     0     0     0
SMALL
USER_CHARGES

@<TRIPOS>ATOM
      1 C1         -0.0300    1.4199   -0.3254 C.3       1 <0>         0.0273
      2 O1         -0.0150   -0.0090   -0.3384 O.3       1 <0>        -0.3148
      3 C2         -1.2064   -0.6400   -0.1672 C.ar      1 <0>         0.1468
      4 C3         -2.3670    0.1020    0.0039 C.ar      1 <0>        -0.2251
      5 C4         -3.5791   -0.5381    0.1786 C.ar      1 <0>        -0.0588
      6 C5         -3.6401   -1.9183    0.1834 C.ar      1 <0>        -0.1839
      7 C6         -2.4818   -2.6662    0.0122 C.ar      1 <0>         0.1915
      8 C7         -1.2640   -2.0246   -0.1691 C.ar      1 <0>        -0.1480
      9 N1         -2.5432   -4.0625    0.0175 N.pl3     1 <0>        -0.6332
     10 C8         -1.4823   -4.8003    0.5154 C.ar      1 <0>         0.4973
     11 C9         -1.4757   -6.2027    0.4231 C.ar      1 <0>        -0.1005
     12 C10        -0.3716   -6.8966    0.9463 C.ar      1 <0>         0.3021
     13 N2         -0.6225   -8.2274    0.7263 N.pl3     1 <0>        -0.5792
     14 H1         -0.0474   -8.9684    0.9736 H         1 <0>         0.4335
     15 C11        -1.8284   -8.3173    0.0972 C.2       1 <0>         0.2614
     16 N3         -2.3272   -7.1283   -0.0797 N.2       1 <0>        -0.4660
     17 N4          0.6187   -6.2080    1.5047 N.ar      1 <0>        -0.5528
     18 C12         0.5695   -4.8942    1.5686 C.ar      1 <0>         0.3625
     19 N5         -0.4443   -4.1984    1.0867 N.ar      1 <0>        -0.5701
     20 H2          0.9827    1.7952   -0.4721 H         1 <0>         0.1005
     21 H3         -0.6721    1.7838   -1.1275 H         1 <0>         0.0556
     22 H4         -0.4122    1.7706    0.6333 H         1 <0>         0.0564
     23 H5         -2.3225    1.1810    0.0009 H         1 <0>         0.1286
     24 H6         -4.4805    0.0417    0.3118 H         1 <0>         0.1295
     25 H7         -4.5886   -2.4161    0.3208 H         1 <0>         0.1266
     26 H8         -0.3627   -2.6034   -0.3066 H         1 <0>         0.1452
     27 H9         -3.3289   -4.5147   -0.3275 H         1 <0>         0.4296
     28 H10        -2.2999   -9.2391   -0.2098 H         1 <0>         0.2293
     29 H11         1.3909   -4.3651    2.0288 H         1 <0>         0.2087
@<TRIPOS>BOND
     1    1    2 1
     2    1   20 1
     3    1   21 1
     4    1   22 1
     5    2    3 1
     6    3    8 ar
     7    3    4 ar
     8    4    5 ar
     9    4   23 1
    10    5    6 ar
    11    5   24 1
    12    6    7 ar
    13    6   25 1
    14    7    8 ar
    15    7    9 1
    16    8   26 1
    17    9   10 1
    18    9   27 1
    19   10   19 ar
    20   10   11 ar
    21   11   16 1
    22   11   12 ar
    23   12   13 1
    24   12   17 ar
    25   13   14 1
    26   13   15 1
    27   15   16 2
    28   15   28 1
    29   17   18 ar
    30   18   19 ar
    31   18   29 1
@<TRIPOS>MOLECULE
ZINC00073715
   23    24     0     0     0
SMALL
USER_CHARGES

@<TRIPOS>ATOM
      1 C1         -0.0151    1.3807    0.0319 C.ar      1 <0>        -0.1297
      2 C2          0.1400    0.2186    0.7650 C.ar      1 <0>        -0.0984
      3 C3          1.3444   -0.4572    0.7442 C.ar      1 <0>        -0.1183
      4 C4          2.4000    0.0314   -0.0144 C.ar      1 <0>         0.1527
      5 C5          2.2408    1.1985   -0.7499 C.ar      1 <0>        -0.1411
      6 C6          1.0341    1.8698   -0.7245 C.ar      1 <0>        -0.0994
      7 N1          3.6216   -0.6507   -0.0373 N.am      1 <0>        -0.6696
      8 C7          3.6448   -1.9949    0.0571 C.2       1 <0>         0.6983
      9 O1          2.6030   -2.6219    0.0646 O.2       1 <0>        -0.5331
     10 N2          4.8227   -2.6443    0.1430 N.am      1 <0>        -0.6202
     11 C8          4.8466   -4.0359    0.2407 C.2       1 <0>         0.0265
     12 C9          5.9211   -4.8721    0.3417 C.2       1 <0>        -0.0772
     13 N3          5.6546   -6.1563    0.4208 N.2       1 <0>        -0.2198
     14 N4          4.4249   -6.5463    0.3992 N.2       1 <0>        -0.2510
     15 S1          3.5597   -5.1170    0.2719 S.3       1 <0>         0.4049
     16 H1         -0.9592    1.9051    0.0465 H         1 <0>         0.1261
     17 H2         -0.6813   -0.1608    1.3548 H         1 <0>         0.1287
     18 H3          1.4652   -1.3644    1.3176 H         1 <0>         0.1363
     19 H4          3.0600    1.5812   -1.3406 H         1 <0>         0.1269
     20 H5          0.9098    2.7778   -1.2960 H         1 <0>         0.1291
     21 H6          4.4518   -0.1560   -0.1210 H         1 <0>         0.4131
     22 H7          5.6537   -2.1441    0.1370 H         1 <0>         0.4235
     23 H8          6.9344   -4.4985    0.3555 H         1 <0>         0.1916
@<TRIPOS>BOND
     1    1    6 ar
     2    1    2 ar
     3    1   16 1
     4    2    3 ar
     5    2   17 1
     6    3    4 ar
     7    3   18 1
     8    4    5 ar
     9    4    7 1
    10    5    6 ar
    11    5   19 1
    12    6   20 1
    13    7    8 am
    14    7   21 1
    15    8    9 2
    16    8   10 am
    17   10   11 1
    18   10   22 1
    19   11   15 1
    20   11   12 2
    21   12   13 1
    22   12   23 1
    23   13   14 2
    24   14   15 1
@<TRIPOS>MOLECULE
ZINC04492895
   29    30     0     0     0
SMALL
USER_CHARGES

@<TRIPOS>ATOM
      1 C1         -0.2007    1.4874    0.0183 C.3       1 <0>        -0.1211
      2 C2         -0.0876   -0.0153    0.0085 C.2       1 <0>        -0.1176
      3 C3          0.1206   -0.6637    1.1276 C.2       1 <0>        -0.1670
      4 C4          0.1232    0.0784    2.4392 C.3       1 <0>         0.1522
      5 N1         -0.8365   -0.5442    3.3544 N.pl3     1 <0>        -0.6870
      6 C5         -1.0101   -0.0323    4.6284 C.ar      1 <0>         0.5068
      7 C6         -1.9220   -0.6204    5.5216 C.ar      1 <0>        -0.1107
      8 C7         -2.0542   -0.0563    6.8015 C.ar      1 <0>         0.3007
      9 N2         -2.9943   -0.8137    7.4534 N.pl3     1 <0>        -0.5798
     10 H1         -3.3108   -0.6799    8.3604 H         1 <0>         0.4315
     11 C8         -3.4025   -1.7884    6.5922 C.2       1 <0>         0.2511
     12 N3         -2.7722   -1.6732    5.4595 N.2       1 <0>        -0.4630
     13 N4         -1.3183    1.0040    7.1194 N.ar      1 <0>        -0.5643
     14 C9         -0.4763    1.5212    6.2500 C.ar      1 <0>         0.3665
     15 N5         -0.3144    1.0234    5.0374 N.ar      1 <0>        -0.5905
     16 C10        -0.2141   -0.7721   -1.2885 C.3       1 <0>         0.1105
     17 O1         -0.0721   -2.1719   -1.0390 O.3       1 <0>        -0.5716
     18 H2          0.6854    1.9154    0.4871 H         1 <0>         0.0747
     19 H3         -0.2821    1.8523   -1.0056 H         1 <0>         0.0647
     20 H4         -1.0871    1.7815    0.5803 H         1 <0>         0.0727
     21 H5          0.2905   -1.7301    1.1102 H         1 <0>         0.1288
     22 H6          1.1206    0.0392    2.8769 H         1 <0>         0.0780
     23 H7         -0.1585    1.1176    2.2692 H         1 <0>         0.0793
     24 H8         -1.3503   -1.3154    3.0675 H         1 <0>         0.4193
     25 H9         -4.1401   -2.5446    6.8168 H         1 <0>         0.2266
     26 H10         0.1063    2.3830    6.5402 H         1 <0>         0.2049
     27 H11        -1.1926   -0.5788   -1.7280 H         1 <0>         0.0614
     28 H12         0.5647   -0.4449   -1.9775 H         1 <0>         0.0586
     29 H13        -0.1426   -2.7218   -1.8314 H         1 <0>         0.3845
@<TRIPOS>BOND
     1    1    2 1
     2    1   18 1
     3    1   19 1
     4    1   20 1
     5    2    3 2
     6    2   16 1
     7    3    4 1
     8    3   21 1
     9    4    5 1
    10    4   22 1
    11    4   23 1
    12    5    6 1
    13    5   24 1
    14    6   15 ar
    15    6    7 ar
    16    7   12 1
    17    7    8 ar
    18    8    9 1
    19    8   13 ar
    20    9   10 1
    21    9   11 1
    22   11   12 2
    23   11   25 1
    24   13   14 ar
    25   14   15 ar
    26   14   26 1
    27   16   17 1
    28   16   27 1
    29   16   28 1
    30   17   29 1
