@<TRIPOS>MOLECULE
ZINC01663731
   32    34     0     0     0
SMALL
USER_CHARGES
2-(3,4-dimethoxyphenyl)-5-fluoro-benzothiazole
@<TRIPOS>ATOM
      1 C1         -1.0739   -2.1241    0.0005 C.3       1 <0>         0.0218
      2 O1         -1.1663   -0.6981    0.0090 O.3       1 <0>        -0.2997
      3 C2          0.0021   -0.0041    0.0020 C.ar      1 <0>         0.1308
      4 C3          1.2112   -0.6842   -0.0132 C.ar      1 <0>        -0.1750
      5 C4          2.3994    0.0156   -0.0208 C.ar      1 <0>        -0.0737
      6 C5          2.3874    1.4115   -0.0136 C.ar      1 <0>        -0.0322
      7 C6          1.1709    2.0962    0.0021 C.ar      1 <0>        -0.1190
      8 C7         -0.0168    1.3890    0.0097 C.ar      1 <0>         0.0982
      9 O2         -1.2037    2.0530    0.0189 O.3       1 <0>        -0.3016
     10 C8         -1.1482    3.4809    0.0264 C.3       1 <0>         0.0227
     11 C9          3.6600    2.1629   -0.0222 C.2       1 <0>         0.2226
     12 N1          3.8498    3.4647   -0.0233 N.2       1 <0>        -0.5066
     13 C10         5.0786    4.0174   -0.0267 C.ar      1 <0>         0.1129
     14 C11         5.4182    5.3918   -0.0235 C.ar      1 <0>        -0.1042
     15 C12         6.7308    5.7886   -0.0347 C.ar      1 <0>         0.1156
     16 C13         7.7687    4.8638   -0.0490 C.ar      1 <0>        -0.1293
     17 C14         7.4726    3.5139   -0.0525 C.ar      1 <0>        -0.0331
     18 C15         6.1612    3.1067   -0.0418 C.ar      1 <0>        -0.1599
     19 S1          5.3331    1.5346   -0.0417 S.3       1 <0>         0.0136
     20 F1          7.0219    7.1078   -0.0313 F         1 <0>        -0.1307
     21 H1         -2.0759   -2.5532    0.0074 H         1 <0>         0.1049
     22 H2         -0.5458   -2.4486   -0.8961 H         1 <0>         0.0592
     23 H3         -0.5295   -2.4582    0.8837 H         1 <0>         0.0592
     24 H4          1.2219   -1.7642   -0.0187 H         1 <0>         0.1478
     25 H5          3.3393   -0.5163   -0.0326 H         1 <0>         0.1356
     26 H6          1.1577    3.1761    0.0077 H         1 <0>         0.1510
     27 H7         -0.6164    3.8191    0.9157 H         1 <0>         0.0579
     28 H8         -0.6248    3.8288   -0.8642 H         1 <0>         0.0580
     29 H9         -2.1609    3.8838    0.0334 H         1 <0>         0.1047
     30 H10         4.6352    6.1355   -0.0118 H         1 <0>         0.1473
     31 H11         8.7960    5.1969   -0.0580 H         1 <0>         0.1541
     32 H12         8.2680    2.7834   -0.0637 H         1 <0>         0.1470
@<TRIPOS>BOND
     1    1    2 1
     2    1   21 1
     3    1   22 1
     4    1   23 1
     5    2    3 1
     6    3    8 ar
     7    3    4 ar
     8    4    5 ar
     9    4   24 1
    10    5    6 ar
    11    5   25 1
    12    6    7 ar
    13    6   11 1
    14    7    8 ar
    15    7   26 1
    16    8    9 1
    17    9   10 1
    18   10   27 1
    19   10   28 1
    20   10   29 1
    21   11   19 1
    22   11   12 2
    23   12   13 1
    24   13   18 ar
    25   13   14 ar
    26   14   15 ar
    27   14   30 1
    28   15   16 ar
    29   15   20 1
    30   16   17 ar
    31   16   31 1
    32   17   18 ar
    33   17   32 1
    34   18   19 1
