@<TRIPOS>MOLECULE
ZINC00538557
   40    43     0     0     0
SMALL
USER_CHARGES
2-[4-oxo-3-[[5-(trifluoromethyl)benzothiazol-2-yl]methyl]phthalazin-1-yl]acetic acid
@<TRIPOS>ATOM
      1 C1          0.0515    4.2341    0.0251 C.ar      1 <0>        -0.0906
      2 C2         -1.1651    3.5640    0.0327 C.ar      1 <0>        -0.1257
      3 C3         -1.2097    2.1870    0.0311 C.ar      1 <0>        -0.0553
      4 C4         -0.0178    1.4639    0.0101 C.ar      1 <0>        -0.1331
      5 C5          1.2183    2.1497    0.0020 C.ar      1 <0>        -0.0432
      6 C6          1.2323    3.5457    0.0097 C.ar      1 <0>        -0.0990
      7 C7          2.4532    1.3653   -0.0140 C.2       1 <0>         0.1253
      8 N1          2.3985    0.0668   -0.0204 N.2       1 <0>        -0.1321
      9 N2          1.1938   -0.6368   -0.0127 N.am      1 <0>        -0.4399
     10 C8          0.0021   -0.0041    0.0020 C.2       1 <0>         0.5209
     11 O1         -1.0375   -0.6389    0.0081 O.2       1 <0>        -0.5340
     12 C9          1.2235   -2.1015   -0.0204 C.3       1 <0>         0.2214
     13 C10         1.2198   -2.5965   -1.4438 C.2       1 <0>         0.1329
     14 N3          2.2398   -2.8364   -2.2189 N.2       1 <0>        -0.4661
     15 C11         2.0992   -3.2855   -3.4835 C.ar      1 <0>         0.0805
     16 C12         3.0968   -3.5925   -4.4354 C.ar      1 <0>         0.0020
     17 C13         2.7594   -4.0324   -5.6777 C.ar      1 <0>        -0.1769
     18 C14         1.4343   -4.1951   -6.0576 C.ar      1 <0>        -0.0626
     19 C15         0.4286   -3.9050   -5.1550 C.ar      1 <0>        -0.0620
     20 C16         0.7591   -3.4605   -3.8978 C.ar      1 <0>        -0.1409
     21 S1         -0.1443   -2.9774   -2.4482 S.3       1 <0>         0.0636
     22 C17         3.8515   -4.3504   -6.6663 C.3       1 <0>         0.5123
     23 F1          3.2810   -4.7814   -7.8688 F         1 <0>        -0.1763
     24 F2          4.6186   -3.2037   -6.8986 F         1 <0>        -0.1720
     25 F3          4.6687   -5.3613   -6.1491 F         1 <0>        -0.1738
     26 C18         3.7888    2.0632   -0.0234 C.3       1 <0>        -0.1064
     27 C19         4.8919    1.0366   -0.0398 C.2       1 <0>         0.4557
     28 O2          4.6212   -0.1410   -0.0435 O.co2     1 <0>        -0.5905
     29 H1          0.0647    5.3140    0.0311 H         1 <0>         0.1314
     30 H2         -2.0859    4.1283    0.0449 H         1 <0>         0.1310
     31 H3         -2.1592    1.6725    0.0416 H         1 <0>         0.1389
     32 H4          2.1714    4.0791    0.0032 H         1 <0>         0.1421
     33 H5          2.1256   -2.4493    0.4829 H         1 <0>         0.1381
     34 H6          0.3460   -2.4854    0.5000 H         1 <0>         0.1252
     35 H7          4.1383   -3.4767   -4.1741 H         1 <0>         0.1482
     36 H8          1.1912   -4.5452   -7.0499 H         1 <0>         0.1524
     37 H9         -0.6073   -4.0261   -5.4355 H         1 <0>         0.1452
     38 H10         3.8641    2.6916   -0.9108 H         1 <0>         0.0930
     39 H11         3.8817    2.6821    0.8690 H         1 <0>         0.0945
     40 O3          6.1751    1.4303   -0.0504 O.co2     1 <0>        -0.7740
@<TRIPOS>BOND
     1    1    6 ar
     2    1    2 ar
     3    1   29 1
     4    2    3 ar
     5    2   30 1
     6    3    4 ar
     7    3   31 1
     8    4   10 1
     9    4    5 ar
    10    5    6 ar
    11    5    7 1
    12    6   32 1
    13    7    8 2
    14    7   26 1
    15    8    9 1
    16    9   10 am
    17    9   12 1
    18   10   11 2
    19   12   13 1
    20   12   33 1
    21   12   34 1
    22   13   21 1
    23   13   14 2
    24   14   15 1
    25   15   20 ar
    26   15   16 ar
    27   16   17 ar
    28   16   35 1
    29   17   18 ar
    30   17   22 1
    31   18   19 ar
    32   18   36 1
    33   19   20 ar
    34   19   37 1
    35   20   21 1
    36   22   23 1
    37   22   24 1
    38   22   25 1
    39   26   27 1
    40   26   38 1
    41   26   39 1
    42   27   28 2
    43   27   40 1
@<TRIPOS>MOLECULE
ZINC00596737
   36    38     0     0     0
SMALL
USER_CHARGES
2-[3-[(4-bromo-2-fluoro-phenyl)methyl]-7-chloro-2,4-dioxo-quinazolin-1-yl]acetic acid
@<TRIPOS>ATOM
      1 C1          0.3311    5.1927    2.9649 C.ar      1 <0>        -0.1614
      2 C2         -0.6668    4.4229    3.5242 C.ar      1 <0>        -0.0009
      3 C3         -1.0081    3.2078    2.9351 C.ar      1 <0>        -0.2048
      4 C4         -0.3336    2.7707    1.7808 C.ar      1 <0>         0.2401
      5 C5          0.6626    3.5596    1.2289 C.ar      1 <0>        -0.1556
      6 C6          0.9926    4.7635    1.8231 C.ar      1 <0>         0.0371
      7 Cl1         2.2458    5.7476    1.1341 Cl        1 <0>        -0.0566
      8 N1         -0.6984    1.5583    1.2133 N.am      1 <0>        -0.5072
      9 C7         -1.6712    0.8104    1.7622 C.2       1 <0>         0.7084
     10 O1         -1.9578   -0.2480    1.2370 O.2       1 <0>        -0.5330
     11 N2         -2.3399    1.1823    2.8649 N.am      1 <0>        -0.5541
     12 C8         -2.0660    2.3467    3.4920 C.2       1 <0>         0.5643
     13 O2         -2.6771    2.6761    4.4904 O.2       1 <0>        -0.4857
     14 C9         -3.3871    0.3079    3.3989 C.3       1 <0>         0.1527
     15 C10        -2.7821   -0.6532    4.3896 C.ar      1 <0>        -0.1341
     16 C11        -2.4971   -1.9508    4.0081 C.ar      1 <0>        -0.0533
     17 C12        -1.9379   -2.8314    4.9148 C.ar      1 <0>        -0.1081
     18 C13        -1.6724   -2.4181    6.2083 C.ar      1 <0>        -0.0571
     19 C14        -1.9617   -1.1220    6.5931 C.ar      1 <0>        -0.1379
     20 C15        -2.5171   -0.2381    5.6835 C.ar      1 <0>         0.1280
     21 F1         -2.8007    1.0285    6.0584 F         1 <0>        -0.1068
     22 Br1        -0.9145   -3.6261    7.4501 Br        1 <0>        -0.0402
     23 C16        -0.0127    1.0858    0.0080 C.3       1 <0>         0.0628
     24 C17        -0.7416    1.5850   -1.2129 C.2       1 <0>         0.4560
     25 O3         -1.7322    2.2656   -1.0889 O.co2     1 <0>        -0.6211
     26 H1          0.5993    6.1357    3.4180 H         1 <0>         0.1433
     27 H2         -1.1799    4.7596    4.4129 H         1 <0>         0.1511
     28 H3          1.1826    3.2331    0.3403 H         1 <0>         0.1514
     29 H4         -4.1464    0.9118    3.8957 H         1 <0>         0.1128
     30 H5         -3.8444   -0.2516    2.5828 H         1 <0>         0.1176
     31 H6         -2.7080   -2.2757    3.0000 H         1 <0>         0.1514
     32 H7         -1.7117   -3.8439    4.6147 H         1 <0>         0.1419
     33 H8         -1.7550   -0.7992    7.6028 H         1 <0>         0.1453
     34 H9          0.0021   -0.0041    0.0020 H         1 <0>         0.1087
     35 H10         1.0099    1.4631    0.0003 H         1 <0>         0.0986
     36 O4         -0.2903    1.2736   -2.4381 O.co2     1 <0>        -0.7535
@<TRIPOS>BOND
     1    1    6 ar
     2    1    2 ar
     3    1   26 1
     4    2    3 ar
     5    2   27 1
     6    3   12 1
     7    3    4 ar
     8    4    5 ar
     9    4    8 1
    10    5    6 ar
    11    5   28 1
    12    6    7 1
    13    8    9 am
    14    8   23 1
    15    9   10 2
    16    9   11 am
    17   11   12 am
    18   11   14 1
    19   12   13 2
    20   14   15 1
    21   14   29 1
    22   14   30 1
    23   15   20 ar
    24   15   16 ar
    25   16   17 ar
    26   16   31 1
    27   17   18 ar
    28   17   32 1
    29   18   19 ar
    30   18   22 1
    31   19   20 ar
    32   19   33 1
    33   20   21 1
    34   23   24 1
    35   23   34 1
    36   23   35 1
    37   24   25 2
    38   24   36 1
@<TRIPOS>MOLECULE
ZINC00002070
   26    28     0     0     0
SMALL
USER_CHARGES

@<TRIPOS>ATOM
      1 C1         -0.0167    1.3801    0.0096 C.ar      1 <0>        -0.0990
      2 C2          1.1701    2.0848    0.0021 C.ar      1 <0>        -0.1186
      3 C3          2.3855    1.4100   -0.0123 C.ar      1 <0>         0.1542
      4 C4          2.4028    0.0246   -0.0169 C.ar      1 <0>        -0.1549
      5 C5          1.2099   -0.6782   -0.0114 C.ar      1 <0>        -0.0989
      6 C6          0.0021   -0.0041    0.0020 C.ar      1 <0>         0.0694
      7 F1         -1.1583   -0.6960    0.0081 F         1 <0>        -0.1342
      8 C7          3.6992   -0.7359   -0.0229 C.3       1 <0>         0.1719
      9 C8          4.8552    0.1695   -0.4367 C.3       1 <0>        -0.1544
     10 C9          4.7464    1.4825    0.3507 C.3       1 <0>         0.0573
     11 O1          3.5337    2.1363   -0.0253 O.3       1 <0>        -0.3038
     12 C10         3.9627   -1.3398    1.3369 C.2       1 <0>         0.5371
     13 O2          4.1092   -0.7502    2.3860 O.2       1 <0>        -0.4481
     14 N1          4.0007   -2.6737    1.1374 N.am      1 <0>        -0.6781
     15 C11         3.7990   -2.9857   -0.1487 C.2       1 <0>         0.7047
     16 O3          3.7883   -4.1240   -0.5744 O.2       1 <0>        -0.5297
     17 N2          3.6097   -1.8965   -0.9179 N.am      1 <0>        -0.7116
     18 H1         -0.9588    1.9080    0.0260 H         1 <0>         0.1498
     19 H2          1.1544    3.1647    0.0070 H         1 <0>         0.1504
     20 H3          1.2225   -1.7581   -0.0176 H         1 <0>         0.1355
     21 H4          5.8031   -0.3179   -0.2088 H         1 <0>         0.1010
     22 H5          4.7955    0.3761   -1.5053 H         1 <0>         0.1057
     23 H6          4.7312    1.2686    1.4194 H         1 <0>         0.0856
     24 H7          5.5963    2.1229    0.1144 H         1 <0>         0.1255
     25 H8          4.1546   -3.3257    1.8389 H         1 <0>         0.4374
     26 H9          3.4463   -1.8817   -1.8739 H         1 <0>         0.4456
@<TRIPOS>BOND
     1    1    6 ar
     2    1    2 ar
     3    1   18 1
     4    2    3 ar
     5    2   19 1
     6    3   11 1
     7    3    4 ar
     8    4    5 ar
     9    4    8 1
    10    5    6 ar
    11    5   20 1
    12    6    7 1
    13    8   17 1
    14    8    9 1
    15    8   12 1
    16    9   10 1
    17    9   21 1
    18    9   22 1
    19   10   11 1
    20   10   23 1
    21   10   24 1
    22   12   13 2
    23   12   14 am
    24   14   15 am
    25   14   25 1
    26   15   16 2
    27   15   17 am
    28   17   26 1
@<TRIPOS>MOLECULE
ZINC00597385
   39    42     0     0     0
SMALL
USER_CHARGES
(4-bromo-2-fluoro-phenyl)methyl-fluoro-BLAHtetrone
@<TRIPOS>ATOM
      1 C1         -1.2451    3.1423    0.0294 C.ar      1 <0>        -0.1501
      2 C2         -0.0662    3.8582    0.0223 C.ar      1 <0>        -0.0062
      3 C3          1.1534    3.1821    0.0083 C.ar      1 <0>        -0.1420
      4 C4          1.1646    1.7799    0.0005 C.ar      1 <0>        -0.0083
      5 C5         -0.0126    1.0758    0.0080 C.ar      1 <0>        -0.1498
      6 C6         -1.2236    1.7561    0.0174 C.ar      1 <0>         0.1532
      7 F1         -2.3843    1.0646    0.0194 F         1 <0>        -0.1201
      8 C7          2.5045    1.0991   -0.0156 C.3       1 <0>        -0.0917
      9 C8          2.5599    0.1820   -1.2457 C.3       1 <0>        -0.1447
     10 C9          2.6593   -1.2041   -0.6423 C.2       1 <0>         0.5381
     11 O1          2.7275   -2.2399   -1.2685 O.2       1 <0>        -0.4574
     12 N1          2.6606   -1.1028    0.6938 N.am      1 <0>        -0.6717
     13 C10         2.5770    0.1543    1.1543 C.2       1 <0>         0.5582
     14 O2          2.5627    0.4771    2.3227 O.2       1 <0>        -0.4439
     15 C11         3.7451    1.9528   -0.0159 C.2       1 <0>         0.5513
     16 O3          4.8433    1.4393   -0.0230 O.2       1 <0>        -0.4400
     17 N2          3.6195    3.2947   -0.0078 N.am      1 <0>        -0.5537
     18 C12         2.4309    3.9144    0.0016 C.2       1 <0>         0.5723
     19 O4          2.4067    5.1294    0.0051 O.2       1 <0>        -0.4772
     20 C13         4.8355    4.1118   -0.0098 C.3       1 <0>         0.1361
     21 C14         5.2448    4.3999   -1.4312 C.ar      1 <0>        -0.1410
     22 C15         5.0305    5.6541   -1.9715 C.ar      1 <0>        -0.0549
     23 C16         5.4065    5.9193   -3.2748 C.ar      1 <0>        -0.1047
     24 C17         5.9972    4.9297   -4.0403 C.ar      1 <0>        -0.0546
     25 C18         6.2119    3.6745   -3.5017 C.ar      1 <0>        -0.1331
     26 C19         5.8406    3.4102   -2.1942 C.ar      1 <0>         0.1218
     27 F2          6.0548    2.1857   -1.6651 F         1 <0>        -0.1099
     28 Br1         6.5117    5.2941   -5.8231 Br        1 <0>        -0.0289
     29 H1         -2.1904    3.6646    0.0401 H         1 <0>         0.1568
     30 H2         -0.0875    4.9380    0.0272 H         1 <0>         0.1604
     31 H3          0.0021   -0.0041    0.0020 H         1 <0>         0.1470
     32 H4          1.6506    0.2789   -1.8388 H         1 <0>         0.1417
     33 H5          3.4398    0.4023   -1.8502 H         1 <0>         0.1385
     34 H6          2.7172   -1.8742    1.2792 H         1 <0>         0.4283
     35 H7          4.6434    5.0503    0.5103 H         1 <0>         0.1215
     36 H8          5.6362    3.5730    0.4968 H         1 <0>         0.1159
     37 H9          4.5695    6.4272   -1.3748 H         1 <0>         0.1498
     38 H10         5.2387    6.8995   -3.6960 H         1 <0>         0.1446
     39 H11         6.6730    2.9019   -4.0991 H         1 <0>         0.1485
@<TRIPOS>BOND
     1    1    6 ar
     2    1    2 ar
     3    1   29 1
     4    2    3 ar
     5    2   30 1
     6    3   18 1
     7    3    4 ar
     8    4    5 ar
     9    4    8 1
    10    5    6 ar
    11    5   31 1
    12    6    7 1
    13    8   13 1
    14    8    9 1
    15    8   15 1
    16    9   10 1
    17    9   32 1
    18    9   33 1
    19   10   11 2
    20   10   12 am
    21   12   13 am
    22   12   34 1
    23   13   14 2
    24   15   16 2
    25   15   17 am
    26   17   18 am
    27   17   20 1
    28   18   19 2
    29   20   21 1
    30   20   35 1
    31   20   36 1
    32   21   26 ar
    33   21   22 ar
    34   22   23 ar
    35   22   37 1
    36   23   24 ar
    37   23   38 1
    38   24   25 ar
    39   24   28 1
    40   25   26 ar
    41   25   39 1
    42   26   27 1
@<TRIPOS>MOLECULE
ZINC03780343
   37    38     0     0     0
SMALL
USER_CHARGES

@<TRIPOS>ATOM
      1 C1          2.4337   -0.6161   -1.2464 C.3       1 <0>         0.0561
      2 N1          1.1760   -1.0005   -0.6009 N.pl3     1 <0>        -0.4647
      3 C2          1.1956   -1.8358    0.6025 C.3       1 <0>         0.0136
      4 C3          1.2610   -0.9556    1.8240 C.2       1 <0>         0.5006
      5 O1          1.2886    0.2571    1.7007 O.co2     1 <0>        -0.6791
      6 O2          1.2863   -1.4562    2.9354 O.co2     1 <0>        -0.6856
      7 C4          0.0008   -0.5856   -1.1141 C.2       1 <0>         0.3683
      8 S1         -1.4605   -0.9226   -0.2883 S.2       1 <0>        -0.5802
      9 C5         -0.0262    0.1575   -2.3849 C.ar      1 <0>        -0.0334
     10 C6          0.1653    1.5335   -2.4062 C.ar      1 <0>        -0.0908
     11 C7          0.1393    2.2316   -3.6056 C.ar      1 <0>        -0.0750
     12 C8         -0.0720    1.6062   -4.7961 C.ar      1 <0>        -0.1240
     13 C9         -0.2731    0.2166   -4.8500 C.ar      1 <0>         0.0285
     14 C10        -0.2489   -0.5377   -3.6510 C.ar      1 <0>        -0.0605
     15 C11        -0.4428   -1.9239   -3.6991 C.ar      1 <0>        -0.0158
     16 C12        -0.6474   -2.5353   -4.8989 C.ar      1 <0>        -0.2023
     17 C13        -0.6665   -1.7970   -6.0856 C.ar      1 <0>         0.1946
     18 C14        -0.4927   -0.4420   -6.0714 C.ar      1 <0>        -0.2313
     19 C15        -0.5163    0.3389   -7.3601 C.3       1 <0>         0.5200
     20 F1          0.6708    1.0685   -7.4851 F         1 <0>        -0.1789
     21 F2         -0.6365   -0.5444   -8.4384 F         1 <0>        -0.1637
     22 F3         -1.6050    1.2174   -7.3533 F         1 <0>        -0.1779
     23 O3         -0.8728   -2.4340   -7.2681 O.3       1 <0>        -0.2991
     24 C16        -1.0609   -3.8497   -7.2182 C.3       1 <0>         0.0201
     25 H1          2.7474   -1.4053   -1.9297 H         1 <0>         0.0700
     26 H2          2.2883    0.3098   -1.8029 H         1 <0>         0.0820
     27 H3          3.2011   -0.4668   -0.4869 H         1 <0>         0.0912
     28 H4          0.2902   -2.4415    0.6391 H         1 <0>         0.1126
     29 H5          2.0685   -2.4882    0.5776 H         1 <0>         0.0861
     30 H6          0.3354    2.0646   -1.4813 H         1 <0>         0.1406
     31 H7          0.2906    3.3009   -3.5941 H         1 <0>         0.1360
     32 H8         -0.0855    2.1840   -5.7084 H         1 <0>         0.1314
     33 H9         -0.4298   -2.5054   -2.7891 H         1 <0>         0.1394
     34 H10        -0.7963   -3.6044   -4.9338 H         1 <0>         0.1441
     35 H11        -1.2149   -4.2316   -8.2275 H         1 <0>         0.1051
     36 H12        -0.1782   -4.3184   -6.7832 H         1 <0>         0.0604
     37 H13        -1.9330   -4.0791   -6.6060 H         1 <0>         0.0615
@<TRIPOS>BOND
     1    1    2 1
     2    1   25 1
     3    1   26 1
     4    1   27 1
     5    2    3 1
     6    2    7 1
     7    3    4 1
     8    3   28 1
     9    3   29 1
    10    4    5 2
    11    4    6 1
    12    7    8 2
    13    7    9 1
    14    9   14 ar
    15    9   10 ar
    16   10   11 ar
    17   10   30 1
    18   11   12 ar
    19   11   31 1
    20   12   13 ar
    21   12   32 1
    22   13   18 ar
    23   13   14 ar
    24   14   15 ar
    25   15   16 ar
    26   15   33 1
    27   16   17 ar
    28   16   34 1
    29   17   18 ar
    30   17   23 1
    31   18   19 1
    32   19   20 1
    33   19   21 1
    34   19   22 1
    35   23   24 1
    36   24   35 1
    37   24   36 1
    38   24   37 1
@<TRIPOS>MOLECULE
ZINC01533688
   33    34     0     0     0
SMALL
USER_CHARGES

@<TRIPOS>ATOM
      1 C1          1.3012    0.9079    0.3155 C.3       1 <0>        -0.1391
      2 C2          0.4991   -0.3678    0.3371 C.2       1 <0>        -0.1104
      3 C3          0.1102   -0.9030    1.5185 C.2       1 <0>        -0.0613
      4 C4          0.3142   -0.1544    2.7673 C.ar      1 <0>        -0.0665
      5 C5          0.1047    1.2288    2.8005 C.ar      1 <0>        -0.1005
      6 C6          0.2982    1.9233    3.9756 C.ar      1 <0>        -0.1223
      7 C7          0.6986    1.2562    5.1204 C.ar      1 <0>        -0.1141
      8 C8          0.9080   -0.1119    5.0960 C.ar      1 <0>        -0.1239
      9 C9          0.7133   -0.8221    3.9305 C.ar      1 <0>        -0.1016
     10 C10         0.1539   -1.0035   -0.8720 C.2       1 <0>         0.0519
     11 C11         0.4461   -0.4073   -2.0639 C.2       1 <0>        -0.2133
     12 C12         0.3055   -0.9298   -3.4359 C.2       1 <0>         0.5441
     13 O1         -0.1249   -2.0477   -3.6530 O.2       1 <0>        -0.4585
     14 N1          0.6699   -0.1233   -4.4185 N.am      1 <0>        -0.4829
     15 C13         1.1458    1.1146   -4.1737 C.2       1 <0>         0.2866
     16 S1          1.6639    2.2966   -5.2986 S.2       1 <0>        -0.3724
     17 S2          1.0972    1.2249   -2.3921 S.3       1 <0>         0.0579
     18 C14         0.5544   -0.5850   -5.8040 C.3       1 <0>         0.0079
     19 C15        -0.8060   -0.2236   -6.3422 C.2       1 <0>         0.4995
     20 O2         -1.6051    0.3651   -5.6341 O.co2     1 <0>        -0.6804
     21 O3         -1.1076   -0.5199   -7.4858 O.co2     1 <0>        -0.6790
     22 H1          1.8435    1.0120    1.2552 H         1 <0>         0.0857
     23 H2          2.0103    0.8772   -0.5118 H         1 <0>         0.0830
     24 H3          0.6299    1.7570    0.1873 H         1 <0>         0.0829
     25 H4         -0.3498   -1.8798    1.5435 H         1 <0>         0.1339
     26 H5         -0.2073    1.7508    1.9081 H         1 <0>         0.1312
     27 H6          0.1374    2.9909    4.0028 H         1 <0>         0.1251
     28 H7          0.8489    1.8061    6.0377 H         1 <0>         0.1215
     29 H8          1.2207   -0.6250    5.9935 H         1 <0>         0.1231
     30 H9          0.8724   -1.8902    3.9143 H         1 <0>         0.1255
     31 H10        -0.3420   -1.9628   -0.8553 H         1 <0>         0.1555
     32 H11         1.3238   -0.1082   -6.4112 H         1 <0>         0.1109
     33 H12         0.6830   -1.6669   -5.8383 H         1 <0>         0.1000
@<TRIPOS>BOND
     1    1    2 1
     2    1   22 1
     3    1   23 1
     4    1   24 1
     5    2    3 2
     6    2   10 1
     7    3    4 1
     8    3   25 1
     9    4    9 ar
    10    4    5 ar
    11    5    6 ar
    12    5   26 1
    13    6    7 ar
    14    6   27 1
    15    7    8 ar
    16    7   28 1
    17    8    9 ar
    18    8   29 1
    19    9   30 1
    20   10   11 2
    21   10   31 1
    22   11   17 1
    23   11   12 1
    24   12   13 2
    25   12   14 am
    26   14   15 1
    27   14   18 1
    28   15   16 2
    29   15   17 1
    30   18   19 1
    31   18   32 1
    32   18   33 1
    33   19   20 2
    34   19   21 1
@<TRIPOS>MOLECULE
ZINC03789766
   30    32     0     0     0
SMALL
USER_CHARGES

@<TRIPOS>ATOM
      1 C1         -0.0167    1.3801    0.0096 C.ar      1 <0>        -0.0966
      2 C2          1.1701    2.0848    0.0021 C.ar      1 <0>        -0.1122
      3 C3          2.3855    1.4100   -0.0123 C.ar      1 <0>         0.1542
      4 C4          2.4028    0.0246   -0.0169 C.ar      1 <0>        -0.1575
      5 C5          1.2099   -0.6782   -0.0114 C.ar      1 <0>        -0.0975
      6 C6          0.0021   -0.0041    0.0020 C.ar      1 <0>         0.0727
      7 F1         -1.1583   -0.6960    0.0081 F         1 <0>        -0.1328
      8 C7          3.6992   -0.7359   -0.0229 C.3       1 <0>         0.1749
      9 C8          4.8552    0.1695   -0.4367 C.3       1 <0>        -0.1454
     10 C9          4.7464    1.4825    0.3507 C.3       1 <0>         0.0713
     11 H1          4.7311    1.2686    1.4194 H         1 <0>         0.1194
     12 O1          3.5337    2.1363   -0.0253 O.3       1 <0>        -0.2767
     13 C10         5.9241    2.3657    0.0278 C.2       1 <0>         0.5299
     14 O2          5.7517    3.4213   -0.5440 O.2       1 <0>        -0.5075
     15 N1          7.1688    1.9826    0.3745 N.am      1 <0>        -0.8455
     16 C11         3.9627   -1.3398    1.3369 C.2       1 <0>         0.5367
     17 O3          4.1092   -0.7502    2.3860 O.2       1 <0>        -0.4470
     18 N2          4.0007   -2.6737    1.1374 N.am      1 <0>        -0.6760
     19 C12         3.7990   -2.9857   -0.1487 C.2       1 <0>         0.7048
     20 O4          3.7883   -4.1240   -0.5744 O.2       1 <0>        -0.5256
     21 N3          3.6097   -1.8965   -0.9179 N.am      1 <0>        -0.7097
     22 H2         -0.9588    1.9080    0.0260 H         1 <0>         0.1519
     23 H3          1.1544    3.1647    0.0070 H         1 <0>         0.1533
     24 H4          1.2225   -1.7581   -0.0176 H         1 <0>         0.1373
     25 H5          5.8031   -0.3179   -0.2088 H         1 <0>         0.1059
     26 H6          4.7955    0.3761   -1.5053 H         1 <0>         0.1146
     27 H7          7.3067    1.1383    0.8318 H         1 <0>         0.4036
     28 H8          7.9268    2.5510    0.1667 H         1 <0>         0.4136
     29 H9          4.1552   -3.3257    1.8388 H         1 <0>         0.4388
     30 H10         3.4463   -1.8817   -1.8739 H         1 <0>         0.4472
@<TRIPOS>BOND
     1    1    6 ar
     2    1    2 ar
     3    1   22 1
     4    2    3 ar
     5    2   23 1
     6    3   12 1
     7    3    4 ar
     8    4    5 ar
     9    4    8 1
    10    5    6 ar
    11    5   24 1
    12    6    7 1
    13    8   21 1
    14    8    9 1
    15    8   16 1
    16    9   10 1
    17    9   25 1
    18    9   26 1
    19   10   11 1
    20   10   12 1
    21   10   13 1
    22   13   14 2
    23   13   15 am
    24   15   27 1
    25   15   28 1
    26   16   17 2
    27   16   18 am
    28   18   19 am
    29   18   29 1
    30   19   20 2
    31   19   21 am
    32   21   30 1
@<TRIPOS>MOLECULE
ZINC03789766
   29    31     0     0     0
SMALL
USER_CHARGES

@<TRIPOS>ATOM
      1 C1         -0.0167    1.3801    0.0096 C.ar      1 <0>        -0.1197
      2 C2          1.1701    2.0848    0.0021 C.ar      1 <0>        -0.1206
      3 C3          2.3854    1.4100   -0.0127 C.ar      1 <0>         0.1375
      4 C4          2.4028    0.0245   -0.0173 C.ar      1 <0>        -0.1088
      5 C5          1.2099   -0.6782   -0.0113 C.ar      1 <0>        -0.0974
      6 C6          0.0021   -0.0041    0.0020 C.ar      1 <0>         0.0627
      7 F1         -1.1583   -0.6959    0.0081 F         1 <0>        -0.1424
      8 C7          3.6991   -0.7356   -0.0238 C.3       1 <0>         0.1385
      9 C8          4.8557    0.1693   -0.4361 C.3       1 <0>        -0.1264
     10 C9          4.7463    1.4826    0.3509 C.3       1 <0>         0.0701
     11 H1          4.7304    1.2689    1.4197 H         1 <0>         0.1294
     12 O1          3.5338    2.1362   -0.0260 O.3       1 <0>        -0.2876
     13 C10         5.9241    2.3658    0.0286 C.2       1 <0>         0.5349
     14 O2          5.7519    3.4212   -0.5436 O.2       1 <0>        -0.5264
     15 N1          7.1687    1.9828    0.3761 N.am      1 <0>        -0.8468
     16 C11         3.9618   -1.3454    1.3330 C.2       1 <0>         0.4681
     17 O3          4.1233   -0.6922    2.4952 O.3       1 <0>        -0.6321
     18 N2          3.9996   -2.6382    1.1453 N.2       1 <0>        -0.6653
     19 C12         3.8007   -2.9763   -0.1357 C.2       1 <0>         0.6600
     20 O4          3.7933   -4.1229   -0.5432 O.2       1 <0>        -0.5847
     21 N3          3.6097   -1.8961   -0.9205 N.am      1 <0>        -0.7602
     22 H2         -0.9588    1.9080    0.0260 H         1 <0>         0.1409
     23 H3          1.1545    3.1646    0.0073 H         1 <0>         0.1425
     24 H4          1.2224   -1.7581   -0.0176 H         1 <0>         0.1355
     25 H5          5.8032   -0.3183   -0.2069 H         1 <0>         0.0926
     26 H6          4.7975    0.3758   -1.5048 H         1 <0>         0.0846
     27 H7          7.3064    1.1387    0.8337 H         1 <0>         0.4074
     28 H8          7.9267    2.5513    0.1686 H         1 <0>         0.4061
     29 H9          3.4473   -1.8873   -1.8767 H         1 <0>         0.4079
@<TRIPOS>BOND
     1    1    6 ar
     2    1    2 ar
     3    1   22 1
     4    2    3 ar
     5    2   23 1
     6    3   12 1
     7    3    4 ar
     8    4    5 ar
     9    4    8 1
    10    5    6 ar
    11    5   24 1
    12    6    7 1
    13    8   21 1
    14    8    9 1
    15    8   16 1
    16    9   10 1
    17    9   25 1
    18    9   26 1
    19   10   11 1
    20   10   12 1
    21   10   13 1
    22   13   14 2
    23   13   15 am
    24   15   27 1
    25   15   28 1
    26   16   17 1
    27   16   18 2
    28   18   19 1
    29   19   20 2
    30   19   21 am
    31   21   29 1
