@<TRIPOS>MOLECULE
ZINC00538557
   40    43     0     0     0
SMALL
USER_CHARGES
2-[4-oxo-3-[[5-(trifluoromethyl)benzothiazol-2-yl]methyl]phthalazin-1-yl]acetic acid
@<TRIPOS>ATOM
      1 C1          0.0515    4.2341    0.0251 C.ar      1 <0>        -0.0906
      2 C2         -1.1651    3.5640    0.0327 C.ar      1 <0>        -0.1257
      3 C3         -1.2097    2.1870    0.0311 C.ar      1 <0>        -0.0553
      4 C4         -0.0178    1.4639    0.0101 C.ar      1 <0>        -0.1331
      5 C5          1.2183    2.1497    0.0020 C.ar      1 <0>        -0.0432
      6 C6          1.2323    3.5457    0.0097 C.ar      1 <0>        -0.0990
      7 C7          2.4532    1.3653   -0.0140 C.2       1 <0>         0.1253
      8 N1          2.3985    0.0668   -0.0204 N.2       1 <0>        -0.1321
      9 N2          1.1938   -0.6368   -0.0127 N.am      1 <0>        -0.4399
     10 C8          0.0021   -0.0041    0.0020 C.2       1 <0>         0.5209
     11 O1         -1.0375   -0.6389    0.0081 O.2       1 <0>        -0.5340
     12 C9          1.2235   -2.1015   -0.0204 C.3       1 <0>         0.2214
     13 C10         1.2198   -2.5965   -1.4438 C.2       1 <0>         0.1329
     14 N3          2.2398   -2.8364   -2.2189 N.2       1 <0>        -0.4661
     15 C11         2.0992   -3.2855   -3.4835 C.ar      1 <0>         0.0805
     16 C12         3.0968   -3.5925   -4.4354 C.ar      1 <0>         0.0020
     17 C13         2.7594   -4.0324   -5.6777 C.ar      1 <0>        -0.1769
     18 C14         1.4343   -4.1951   -6.0576 C.ar      1 <0>        -0.0626
     19 C15         0.4286   -3.9050   -5.1550 C.ar      1 <0>        -0.0620
     20 C16         0.7591   -3.4605   -3.8978 C.ar      1 <0>        -0.1409
     21 S1         -0.1443   -2.9774   -2.4482 S.3       1 <0>         0.0636
     22 C17         3.8515   -4.3504   -6.6663 C.3       1 <0>         0.5123
     23 F1          3.2810   -4.7814   -7.8688 F         1 <0>        -0.1763
     24 F2          4.6186   -3.2037   -6.8986 F         1 <0>        -0.1720
     25 F3          4.6687   -5.3613   -6.1491 F         1 <0>        -0.1738
     26 C18         3.7888    2.0632   -0.0234 C.3       1 <0>        -0.1064
     27 C19         4.8919    1.0366   -0.0398 C.2       1 <0>         0.4557
     28 O2          4.6212   -0.1410   -0.0435 O.co2     1 <0>        -0.5905
     29 H1          0.0647    5.3140    0.0311 H         1 <0>         0.1314
     30 H2         -2.0859    4.1283    0.0449 H         1 <0>         0.1310
     31 H3         -2.1592    1.6725    0.0416 H         1 <0>         0.1389
     32 H4          2.1714    4.0791    0.0032 H         1 <0>         0.1421
     33 H5          2.1256   -2.4493    0.4829 H         1 <0>         0.1381
     34 H6          0.3460   -2.4854    0.5000 H         1 <0>         0.1252
     35 H7          4.1383   -3.4767   -4.1741 H         1 <0>         0.1482
     36 H8          1.1912   -4.5452   -7.0499 H         1 <0>         0.1524
     37 H9         -0.6073   -4.0261   -5.4355 H         1 <0>         0.1452
     38 H10         3.8641    2.6916   -0.9108 H         1 <0>         0.0930
     39 H11         3.8817    2.6821    0.8690 H         1 <0>         0.0945
     40 O3          6.1751    1.4303   -0.0504 O.co2     1 <0>        -0.7740
@<TRIPOS>BOND
     1    1    6 ar
     2    1    2 ar
     3    1   29 1
     4    2    3 ar
     5    2   30 1
     6    3    4 ar
     7    3   31 1
     8    4   10 1
     9    4    5 ar
    10    5    6 ar
    11    5    7 1
    12    6   32 1
    13    7    8 2
    14    7   26 1
    15    8    9 1
    16    9   10 am
    17    9   12 1
    18   10   11 2
    19   12   13 1
    20   12   33 1
    21   12   34 1
    22   13   21 1
    23   13   14 2
    24   14   15 1
    25   15   20 ar
    26   15   16 ar
    27   16   17 ar
    28   16   35 1
    29   17   18 ar
    30   17   22 1
    31   18   19 ar
    32   18   36 1
    33   19   20 ar
    34   19   37 1
    35   20   21 1
    36   22   23 1
    37   22   24 1
    38   22   25 1
    39   26   27 1
    40   26   38 1
    41   26   39 1
    42   27   28 2
    43   27   40 1
@<TRIPOS>MOLECULE
ZINC00876714
   51    54     0     0     0
SMALL
USER_CHARGES

@<TRIPOS>ATOM
      1 C1          2.9652    0.9018   -1.0359 C.3       1 <0>         0.0208
      2 O1          2.7755   -0.4977   -0.8180 O.3       1 <0>        -0.3068
      3 C2          2.3120   -0.8751    0.4034 C.ar      1 <0>         0.1202
      4 C3          2.0408    0.0853    1.3682 C.ar      1 <0>        -0.1243
      5 C4          1.5690   -0.2900    2.6133 C.ar      1 <0>        -0.1485
      6 C5          1.3638   -1.6268    2.9047 C.ar      1 <0>         0.1304
      7 C6          1.6349   -2.6014    1.9357 C.ar      1 <0>         0.0268
      8 C7          2.1061   -2.2158    0.6800 C.ar      1 <0>        -0.0967
      9 N1          1.4340   -3.9252    2.2176 N.pl3     1 <0>        -0.4877
     10 C8          0.7425   -4.6764    1.3889 C.2       1 <0>         0.5109
     11 C9          0.5953   -6.1279    1.6151 C.2       1 <0>        -0.2815
     12 C10        -0.5218   -6.7480    1.0733 C.2       1 <0>         0.1739
     13 C11        -1.4250   -5.9588    0.3164 C.ar      1 <0>        -0.1909
     14 C12        -2.6638   -6.4838   -0.0817 C.ar      1 <0>         0.0028
     15 C13        -3.5423   -5.7027   -0.7732 C.ar      1 <0>        -0.1531
     16 C14        -3.2161   -4.3864   -1.0954 C.ar      1 <0>         0.2230
     17 C15        -1.9886   -3.8561   -0.7271 C.ar      1 <0>        -0.1566
     18 C16        -1.0819   -4.6380   -0.0316 C.ar      1 <0>         0.1600
     19 O2          0.1338   -4.1430    0.2978 O.3       1 <0>        -0.1954
     20 O3         -4.1056   -3.6184   -1.7738 O.3       1 <0>        -0.4790
     21 C17         1.5937   -6.8871    2.3841 C.2       1 <0>         0.5819
     22 O4          1.4009   -8.0607    2.6395 O.2       1 <0>        -0.4706
     23 N2          2.7220   -6.2823    2.8055 N.am      1 <0>        -0.6593
     24 C18         3.6466   -6.9888    3.5714 C.ar      1 <0>         0.3279
     25 C19         3.6349   -8.3793    3.5560 C.ar      1 <0>        -0.1773
     26 C20         4.5587   -9.0684    4.3213 C.ar      1 <0>        -0.0525
     27 C21         5.4663   -8.3403    5.0790 C.ar      1 <0>        -0.1759
     28 C22         5.4207   -6.9607    5.0467 C.ar      1 <0>         0.1294
     29 N3          4.5317   -6.3304    4.3030 N.ar      1 <0>        -0.5111
     30 O5          0.9002   -1.9939    4.1298 O.3       1 <0>        -0.3173
     31 C23         0.6462   -0.9464    5.0679 C.3       1 <0>         0.0221
     32 H1          3.6881    1.2868   -0.3165 H         1 <0>         0.0636
     33 H2          3.3371    1.0649   -2.0474 H         1 <0>         0.1127
     34 H3          2.0153    1.4212   -0.9098 H         1 <0>         0.0628
     35 H4          2.1992    1.1302    1.1460 H         1 <0>         0.1530
     36 H5          1.3607    0.4622    3.3597 H         1 <0>         0.1565
     37 H6          2.3131   -2.9619   -0.0730 H         1 <0>         0.1522
     38 H7         -0.6984   -7.8029    1.2235 H         1 <0>         0.1987
     39 H8         -2.9211   -7.5048    0.1587 H         1 <0>         0.1687
     40 H9         -4.4976   -6.1071   -1.0736 H         1 <0>         0.1642
     41 H10        -1.7405   -2.8366   -0.9825 H         1 <0>         0.1667
     42 H11        -4.7108   -3.1224   -1.2055 H         1 <0>         0.4179
     43 H12         2.8902   -5.3551    2.5755 H         1 <0>         0.3989
     44 H13         2.9143   -8.9140    2.9551 H         1 <0>         0.1728
     45 H14         4.5734  -10.1483    4.3296 H         1 <0>         0.1463
     46 H15         6.2001   -8.8478    5.6875 H         1 <0>         0.1455
     47 H16         6.1246   -6.3903    5.6344 H         1 <0>         0.1684
     48 H17         0.2816   -1.3752    6.0014 H         1 <0>         0.1143
     49 H18         1.5679   -0.3960    5.2565 H         1 <0>         0.0688
     50 H19        -0.1049   -0.2690    4.6616 H         1 <0>         0.0667
     51 H20         1.8018   -4.3096    3.0288 H         1 <0>         0.4557
@<TRIPOS>BOND
     1    1    2 1
     2    1   32 1
     3    1   33 1
     4    1   34 1
     5    2    3 1
     6    3    8 ar
     7    3    4 ar
     8    4    5 ar
     9    4   35 1
    10    5    6 ar
    11    5   36 1
    12    6    7 ar
    13    6   30 1
    14    7    8 ar
    15    7    9 1
    16    8   37 1
    17    9   10 2
    18    9   51 1
    19   10   19 1
    20   10   11 1
    21   11   12 2
    22   11   21 1
    23   12   13 1
    24   12   38 1
    25   13   18 ar
    26   13   14 ar
    27   14   15 ar
    28   14   39 1
    29   15   16 ar
    30   15   40 1
    31   16   17 ar
    32   16   20 1
    33   17   18 ar
    34   17   41 1
    35   18   19 1
    36   20   42 1
    37   21   22 2
    38   21   23 am
    39   23   24 1
    40   23   43 1
    41   24   29 ar
    42   24   25 ar
    43   25   26 ar
    44   25   44 1
    45   26   27 ar
    46   26   45 1
    47   27   28 ar
    48   27   46 1
    49   28   29 ar
    50   28   47 1
    51   30   31 1
    52   31   48 1
    53   31   49 1
    54   31   50 1
@<TRIPOS>MOLECULE
ZINC08986378
   54    57     0     0     0
SMALL
USER_CHARGES

@<TRIPOS>ATOM
      1 C1         -1.5842    1.2659   -0.0991 C.3       1 <0>        -0.1089
      2 C2         -0.9431   -0.0970   -0.0497 C.ar      1 <0>         0.1599
      3 C3         -0.4148   -0.6440   -1.2025 C.ar      1 <0>        -0.1761
      4 C4          0.1749   -1.8995   -1.1507 C.ar      1 <0>        -0.0491
      5 C5          0.2119   -2.5620    0.0637 C.ar      1 <0>        -0.1854
      6 C6         -0.3395   -1.9511    1.1843 C.ar      1 <0>         0.3319
      7 N1         -0.8889   -0.7498    1.0953 N.ar      1 <0>        -0.5108
      8 N2         -0.3094   -2.6070    2.4129 N.am      1 <0>        -0.6584
      9 C7         -0.1368   -3.9428    2.4596 C.2       1 <0>         0.5804
     10 O1          0.0527   -4.5679    1.4334 O.2       1 <0>        -0.4701
     11 C8         -0.1776   -4.6451    3.7518 C.2       1 <0>        -0.2821
     12 C9         -0.1478   -6.0308    3.8209 C.2       1 <0>         0.1738
     13 C10        -0.2220   -6.6395    5.0997 C.ar      1 <0>        -0.1906
     14 C11         0.0047   -8.0167    5.2439 C.ar      1 <0>         0.0028
     15 C12        -0.0277   -8.5846    6.4835 C.ar      1 <0>        -0.1529
     16 C13        -0.2926   -7.8081    7.6104 C.ar      1 <0>         0.2237
     17 C14        -0.5389   -6.4490    7.4853 C.ar      1 <0>        -0.1565
     18 C15        -0.5167   -5.8578    6.2334 C.ar      1 <0>         0.1578
     19 O2         -0.7986   -4.5384    6.0951 O.3       1 <0>        -0.1962
     20 C16        -0.2456   -3.9032    5.0265 C.2       1 <0>         0.5063
     21 N3          0.2080   -2.6727    5.1227 N.pl3     1 <0>        -0.4938
     22 C17        -0.0033   -1.9530    6.2674 C.ar      1 <0>         0.0166
     23 C18        -1.2610   -1.9574    6.8751 C.ar      1 <0>        -0.0768
     24 C19        -1.4718   -1.2310    8.0292 C.ar      1 <0>        -0.1622
     25 C20        -0.4378   -0.4957    8.5882 C.ar      1 <0>         0.1520
     26 C21         0.8184   -0.4862    7.9876 C.ar      1 <0>         0.1256
     27 C22         1.0393   -1.2168    6.8340 C.ar      1 <0>        -0.1523
     28 O3          1.8300    0.2366    8.5387 O.3       1 <0>        -0.2898
     29 C23         3.0922    0.2008    7.8697 C.3       1 <0>         0.0185
     30 O4         -0.6512    0.2188    9.7263 O.3       1 <0>        -0.2892
     31 C24        -1.9634    0.1651   10.2895 C.3       1 <0>         0.0169
     32 O5         -0.3099   -8.3859    8.8380 O.3       1 <0>        -0.4790
     33 H1         -0.8305    2.0293    0.0939 H         1 <0>         0.0844
     34 H2         -2.0202    1.4268   -1.0851 H         1 <0>         0.0838
     35 H3         -2.3658    1.3275    0.6582 H         1 <0>         0.0791
     36 H4         -0.4603   -0.1007   -2.1348 H         1 <0>         0.1448
     37 H5          0.5950   -2.3493   -2.0382 H         1 <0>         0.1468
     38 H6          0.6628   -3.5404    0.1399 H         1 <0>         0.1730
     39 H7         -0.4127   -2.1022    3.2347 H         1 <0>         0.3981
     40 H8         -0.0707   -6.6294    2.9252 H         1 <0>         0.1980
     41 H9          0.2042   -8.6260    4.3748 H         1 <0>         0.1687
     42 H10         0.1527   -9.6438    6.5928 H         1 <0>         0.1644
     43 H11        -0.7467   -5.8533    8.3619 H         1 <0>         0.1670
     44 H12        -2.0683   -2.5290    6.4416 H         1 <0>         0.1423
     45 H13        -2.4448   -1.2349    8.4981 H         1 <0>         0.1596
     46 H14         2.0146   -1.2141    6.3700 H         1 <0>         0.1544
     47 H15         3.4538   -0.8267    7.8309 H         1 <0>         0.0595
     48 H16         2.9770    0.5840    6.8558 H         1 <0>         0.0612
     49 H17         3.8085    0.8178    8.4121 H         1 <0>         0.1149
     50 H18        -1.9971    0.7768   11.1910 H         1 <0>         0.1148
     51 H19        -2.6851    0.5443    9.5659 H         1 <0>         0.0651
     52 H20        -2.2089   -0.8666   10.5410 H         1 <0>         0.0641
     53 H21         0.5483   -8.3890    9.2834 H         1 <0>         0.4185
     54 H22         0.6924   -2.2751    4.3823 H         1 <0>         0.4513
@<TRIPOS>BOND
     1    1    2 1
     2    1   33 1
     3    1   34 1
     4    1   35 1
     5    2    7 ar
     6    2    3 ar
     7    3    4 ar
     8    3   36 1
     9    4    5 ar
    10    4   37 1
    11    5    6 ar
    12    5   38 1
    13    6    7 ar
    14    6    8 1
    15    8    9 am
    16    8   39 1
    17    9   10 2
    18    9   11 1
    19   11   20 1
    20   11   12 2
    21   12   13 1
    22   12   40 1
    23   13   18 ar
    24   13   14 ar
    25   14   15 ar
    26   14   41 1
    27   15   16 ar
    28   15   42 1
    29   16   17 ar
    30   16   32 1
    31   17   18 ar
    32   17   43 1
    33   18   19 1
    34   19   20 1
    35   20   21 2
    36   21   22 1
    37   21   54 1
    38   22   27 ar
    39   22   23 ar
    40   23   24 ar
    41   23   44 1
    42   24   25 ar
    43   24   45 1
    44   25   26 ar
    45   25   30 1
    46   26   27 ar
    47   26   28 1
    48   27   46 1
    49   28   29 1
    50   29   47 1
    51   29   48 1
    52   29   49 1
    53   30   31 1
    54   31   50 1
    55   31   51 1
    56   31   52 1
    57   32   53 1
@<TRIPOS>MOLECULE
ZINC00876711
   50    53     0     0     0
SMALL
USER_CHARGES
2-(2,4-dimethoxyphenyl)imino-7-hydroxy-N-(2-pyridyl)chromene-3-carboxamide
@<TRIPOS>ATOM
      1 C1         -4.9543   -3.4614   -2.5923 C.3       1 <0>         0.0267
      2 O1         -4.0708   -3.9728   -1.5924 O.3       1 <0>        -0.3154
      3 C2         -2.8416   -3.3988   -1.5028 C.ar      1 <0>         0.1600
      4 C3         -2.4971   -2.3644   -2.3621 C.ar      1 <0>        -0.2291
      5 C4         -1.2512   -1.7774   -2.2772 C.ar      1 <0>        -0.0534
      6 C5         -0.3341   -2.2242   -1.3251 C.ar      1 <0>         0.0223
      7 C6         -0.6818   -3.2721   -0.4628 C.ar      1 <0>         0.1705
      8 C7         -1.9358   -3.8494   -0.5530 C.ar      1 <0>        -0.2305
      9 O2          0.2083   -3.7166    0.4636 O.3       1 <0>        -0.2962
     10 C8         -0.2155   -4.7882    1.3086 C.3       1 <0>         0.0248
     11 N1          0.9034   -1.6441   -1.2377 N.2       1 <0>        -0.4052
     12 C9          1.0683   -0.5517   -0.5257 C.2       1 <0>         0.3789
     13 C10         2.4091    0.0333   -0.3234 C.2       1 <0>        -0.1587
     14 C11         2.4777    1.3938   -0.0599 C.2       1 <0>         0.0109
     15 C12         1.2629    2.1208    0.0300 C.ar      1 <0>        -0.1684
     16 C13         1.2785    3.5228    0.0825 C.ar      1 <0>        -0.0311
     17 C14         0.1035    4.2146    0.1193 C.ar      1 <0>        -0.1717
     18 C15        -1.1153    3.5386    0.1134 C.ar      1 <0>         0.1741
     19 C16        -1.1500    2.1524    0.0867 C.ar      1 <0>        -0.1705
     20 C17         0.0336    1.4345    0.0538 C.ar      1 <0>         0.1680
     21 O3          0.0111    0.0785    0.0502 O.3       1 <0>        -0.2633
     22 O4         -2.2759    4.2414    0.1381 O.3       1 <0>        -0.4909
     23 C18         3.6236   -0.7937   -0.3979 C.2       1 <0>         0.5545
     24 O5          3.5354   -1.9845   -0.6300 O.2       1 <0>        -0.4192
     25 N2          4.8341   -0.2318   -0.2089 N.am      1 <0>        -0.6624
     26 C19         5.9891   -0.9902   -0.3853 C.ar      1 <0>         0.3644
     27 C20         7.2292   -0.4368   -0.0853 C.ar      1 <0>        -0.2091
     28 C21         8.3683   -1.2010   -0.2652 C.ar      1 <0>        -0.0471
     29 C22         8.2277   -2.4978   -0.7409 C.ar      1 <0>        -0.2053
     30 C23         6.9652   -2.9830   -1.0184 C.ar      1 <0>         0.1348
     31 N3          5.8960   -2.2327   -0.8319 N.ar      1 <0>        -0.4762
     32 H1         -5.1381   -2.4030   -2.4078 H         1 <0>         0.0568
     33 H2         -4.5007   -3.5854   -3.5757 H         1 <0>         0.0575
     34 H3         -5.8979   -4.0057   -2.5562 H         1 <0>         0.1017
     35 H4         -3.2062   -2.0183   -3.0995 H         1 <0>         0.1333
     36 H5         -0.9862   -0.9726   -2.9469 H         1 <0>         0.1301
     37 H6         -2.2083   -4.6547    0.1131 H         1 <0>         0.1412
     38 H7         -1.0958   -4.4799    1.8726 H         1 <0>         0.0563
     39 H8         -0.4612   -5.6571    0.6980 H         1 <0>         0.0586
     40 H9          0.5872   -5.0451    1.9998 H         1 <0>         0.1022
     41 H10         3.4299    1.8858    0.0728 H         1 <0>         0.1544
     42 H11         2.2191    4.0533    0.0941 H         1 <0>         0.1462
     43 H12         0.1177    5.2940    0.1529 H         1 <0>         0.1428
     44 H13        -2.0976    1.6343    0.0884 H         1 <0>         0.1482
     45 H14        -2.6190    4.4649   -0.7379 H         1 <0>         0.4021
     46 H15         4.9009    0.7006    0.0501 H         1 <0>         0.4125
     47 H16         7.3020    0.5757    0.2835 H         1 <0>         0.1356
     48 H17         9.3448   -0.7978   -0.0410 H         1 <0>         0.1382
     49 H18         9.0970   -3.1205   -0.8927 H         1 <0>         0.1362
     50 H19         6.8510   -3.9912   -1.3882 H         1 <0>         0.1596
@<TRIPOS>BOND
     1    1    2 1
     2    1   32 1
     3    1   33 1
     4    1   34 1
     5    2    3 1
     6    3    8 ar
     7    3    4 ar
     8    4    5 ar
     9    4   35 1
    10    5    6 ar
    11    5   36 1
    12    6    7 ar
    13    6   11 1
    14    7    8 ar
    15    7    9 1
    16    8   37 1
    17    9   10 1
    18   10   38 1
    19   10   39 1
    20   10   40 1
    21   11   12 2
    22   12   21 1
    23   12   13 1
    24   13   14 2
    25   13   23 1
    26   14   15 1
    27   14   41 1
    28   15   20 ar
    29   15   16 ar
    30   16   17 ar
    31   16   42 1
    32   17   18 ar
    33   17   43 1
    34   18   19 ar
    35   18   22 1
    36   19   20 ar
    37   19   44 1
    38   20   21 1
    39   22   45 1
    40   23   24 2
    41   23   25 am
    42   25   26 1
    43   25   46 1
    44   26   31 ar
    45   26   27 ar
    46   27   28 ar
    47   27   47 1
    48   28   29 ar
    49   28   48 1
    50   29   30 ar
    51   29   49 1
    52   30   31 ar
    53   30   50 1
@<TRIPOS>MOLECULE
ZINC00876708
   47    50     0     0     0
SMALL
USER_CHARGES

@<TRIPOS>ATOM
      1 C1          0.1180    3.3315    2.9152 C.3       1 <0>         0.0177
      2 O1          0.1616    2.0600    2.2646 O.3       1 <0>        -0.3004
      3 C2          0.7480    1.0386    2.9441 C.ar      1 <0>         0.1792
      4 C3          1.2646    1.2587    4.2136 C.ar      1 <0>        -0.1938
      5 C4          1.8606    0.2261    4.9064 C.ar      1 <0>        -0.0394
      6 C5          1.9437   -1.0431    4.3289 C.ar      1 <0>        -0.0275
      7 C6          1.4221   -1.2598    3.0515 C.ar      1 <0>        -0.0476
      8 C7          0.8232   -0.2223    2.3685 C.ar      1 <0>        -0.1338
      9 N1          2.5348   -2.0709    5.0126 N.pl3     1 <0>        -0.4926
     10 C8          1.9611   -3.2537    5.0467 C.2       1 <0>         0.5048
     11 C9          2.6493   -4.4200    5.6349 C.2       1 <0>        -0.2824
     12 C10         1.8565   -5.4481    6.1253 C.2       1 <0>         0.1730
     13 C11         0.4490   -5.3263    6.0009 C.ar      1 <0>        -0.1912
     14 C12        -0.4016   -6.2319    6.6529 C.ar      1 <0>         0.0027
     15 C13        -1.7539   -6.0809    6.5607 C.ar      1 <0>        -0.1532
     16 C14        -2.2998   -5.0368    5.8158 C.ar      1 <0>         0.2237
     17 C15        -1.4751   -4.1432    5.1488 C.ar      1 <0>        -0.1572
     18 C16        -0.1000   -4.2866    5.2257 C.ar      1 <0>         0.1595
     19 O2          0.7124   -3.4439    4.5470 O.3       1 <0>        -0.1965
     20 O3         -3.6471   -4.8935    5.7430 O.3       1 <0>        -0.4789
     21 C17         4.1175   -4.4897    5.6983 C.2       1 <0>         0.5807
     22 O4          4.6579   -5.3985    6.2998 O.2       1 <0>        -0.4709
     23 N2          4.8638   -3.5466    5.0899 N.am      1 <0>        -0.6585
     24 C18         6.2531   -3.6492    5.0922 C.ar      1 <0>         0.3260
     25 C19         6.8831   -4.4525    6.0365 C.ar      1 <0>        -0.1789
     26 C20         8.2634   -4.5457    6.0272 C.ar      1 <0>        -0.0530
     27 C21         8.9693   -3.8293    5.0699 C.ar      1 <0>        -0.1753
     28 C22         8.2785   -3.0510    4.1625 C.ar      1 <0>         0.1291
     29 N3          6.9611   -2.9853    4.1922 N.ar      1 <0>        -0.5096
     30 H1          1.1334    3.6659    3.1277 H         1 <0>         0.0660
     31 H2         -0.3746    4.0552    2.2659 H         1 <0>         0.1146
     32 H3         -0.4382    3.2431    3.8485 H         1 <0>         0.0649
     33 H4          1.1999    2.2404    4.6592 H         1 <0>         0.1532
     34 H5          2.2629    0.3984    5.8937 H         1 <0>         0.1467
     35 H6          1.4844   -2.2394    2.6009 H         1 <0>         0.1436
     36 H7          0.4157   -0.3900    1.3824 H         1 <0>         0.1557
     37 H8          2.2993   -6.3174    6.5886 H         1 <0>         0.1977
     38 H9          0.0138   -7.0473    7.2264 H         1 <0>         0.1685
     39 H10        -2.4067   -6.7755    7.0684 H         1 <0>         0.1642
     40 H11        -1.9041   -3.3381    4.5709 H         1 <0>         0.1671
     41 H12        -4.0211   -4.3332    6.4368 H         1 <0>         0.4183
     42 H13         4.4336   -2.7965    4.6505 H         1 <0>         0.3985
     43 H14         6.3027   -4.9961    6.7674 H         1 <0>         0.1738
     44 H15         8.7802   -5.1615    6.7484 H         1 <0>         0.1464
     45 H16        10.0475   -3.8800    5.0357 H         1 <0>         0.1457
     46 H17         8.8234   -2.4921    3.4161 H         1 <0>         0.1685
     47 H18         3.3770   -1.9269    5.4719 H         1 <0>         0.4508
@<TRIPOS>BOND
     1    1    2 1
     2    1   30 1
     3    1   31 1
     4    1   32 1
     5    2    3 1
     6    3    8 ar
     7    3    4 ar
     8    4    5 ar
     9    4   33 1
    10    5    6 ar
    11    5   34 1
    12    6    7 ar
    13    6    9 1
    14    7    8 ar
    15    7   35 1
    16    8   36 1
    17    9   10 2
    18    9   47 1
    19   10   19 1
    20   10   11 1
    21   11   12 2
    22   11   21 1
    23   12   13 1
    24   12   37 1
    25   13   18 ar
    26   13   14 ar
    27   14   15 ar
    28   14   38 1
    29   15   16 ar
    30   15   39 1
    31   16   17 ar
    32   16   20 1
    33   17   18 ar
    34   17   40 1
    35   18   19 1
    36   20   41 1
    37   21   22 2
    38   21   23 am
    39   23   24 1
    40   23   42 1
    41   24   29 ar
    42   24   25 ar
    43   25   26 ar
    44   25   43 1
    45   26   27 ar
    46   26   44 1
    47   27   28 ar
    48   27   45 1
    49   28   29 ar
    50   28   46 1
@<TRIPOS>MOLECULE
ZINC00002070
   26    28     0     0     0
SMALL
USER_CHARGES

@<TRIPOS>ATOM
      1 C1         -0.0167    1.3801    0.0096 C.ar      1 <0>        -0.0990
      2 C2          1.1701    2.0848    0.0021 C.ar      1 <0>        -0.1186
      3 C3          2.3855    1.4100   -0.0123 C.ar      1 <0>         0.1542
      4 C4          2.4028    0.0246   -0.0169 C.ar      1 <0>        -0.1549
      5 C5          1.2099   -0.6782   -0.0114 C.ar      1 <0>        -0.0989
      6 C6          0.0021   -0.0041    0.0020 C.ar      1 <0>         0.0694
      7 F1         -1.1583   -0.6960    0.0081 F         1 <0>        -0.1342
      8 C7          3.6992   -0.7359   -0.0229 C.3       1 <0>         0.1719
      9 C8          4.8552    0.1695   -0.4367 C.3       1 <0>        -0.1544
     10 C9          4.7464    1.4825    0.3507 C.3       1 <0>         0.0573
     11 O1          3.5337    2.1363   -0.0253 O.3       1 <0>        -0.3038
     12 C10         3.9627   -1.3398    1.3369 C.2       1 <0>         0.5371
     13 O2          4.1092   -0.7502    2.3860 O.2       1 <0>        -0.4481
     14 N1          4.0007   -2.6737    1.1374 N.am      1 <0>        -0.6781
     15 C11         3.7990   -2.9857   -0.1487 C.2       1 <0>         0.7047
     16 O3          3.7883   -4.1240   -0.5744 O.2       1 <0>        -0.5297
     17 N2          3.6097   -1.8965   -0.9179 N.am      1 <0>        -0.7116
     18 H1         -0.9588    1.9080    0.0260 H         1 <0>         0.1498
     19 H2          1.1544    3.1647    0.0070 H         1 <0>         0.1504
     20 H3          1.2225   -1.7581   -0.0176 H         1 <0>         0.1355
     21 H4          5.8031   -0.3179   -0.2088 H         1 <0>         0.1010
     22 H5          4.7955    0.3761   -1.5053 H         1 <0>         0.1057
     23 H6          4.7312    1.2686    1.4194 H         1 <0>         0.0856
     24 H7          5.5963    2.1229    0.1144 H         1 <0>         0.1255
     25 H8          4.1546   -3.3257    1.8389 H         1 <0>         0.4374
     26 H9          3.4463   -1.8817   -1.8739 H         1 <0>         0.4456
@<TRIPOS>BOND
     1    1    6 ar
     2    1    2 ar
     3    1   18 1
     4    2    3 ar
     5    2   19 1
     6    3   11 1
     7    3    4 ar
     8    4    5 ar
     9    4    8 1
    10    5    6 ar
    11    5   20 1
    12    6    7 1
    13    8   17 1
    14    8    9 1
    15    8   12 1
    16    9   10 1
    17    9   21 1
    18    9   22 1
    19   10   11 1
    20   10   23 1
    21   10   24 1
    22   12   13 2
    23   12   14 am
    24   14   15 am
    25   14   25 1
    26   15   16 2
    27   15   17 am
    28   17   26 1
@<TRIPOS>MOLECULE
ZINC00597385
   39    42     0     0     0
SMALL
USER_CHARGES
(4-bromo-2-fluoro-phenyl)methyl-fluoro-BLAHtetrone
@<TRIPOS>ATOM
      1 C1         -1.2451    3.1423    0.0294 C.ar      1 <0>        -0.1501
      2 C2         -0.0662    3.8582    0.0223 C.ar      1 <0>        -0.0062
      3 C3          1.1534    3.1821    0.0083 C.ar      1 <0>        -0.1420
      4 C4          1.1646    1.7799    0.0005 C.ar      1 <0>        -0.0083
      5 C5         -0.0126    1.0758    0.0080 C.ar      1 <0>        -0.1498
      6 C6         -1.2236    1.7561    0.0174 C.ar      1 <0>         0.1532
      7 F1         -2.3843    1.0646    0.0194 F         1 <0>        -0.1201
      8 C7          2.5045    1.0991   -0.0156 C.3       1 <0>        -0.0917
      9 C8          2.5599    0.1820   -1.2457 C.3       1 <0>        -0.1447
     10 C9          2.6593   -1.2041   -0.6423 C.2       1 <0>         0.5381
     11 O1          2.7275   -2.2399   -1.2685 O.2       1 <0>        -0.4574
     12 N1          2.6606   -1.1028    0.6938 N.am      1 <0>        -0.6717
     13 C10         2.5770    0.1543    1.1543 C.2       1 <0>         0.5582
     14 O2          2.5627    0.4771    2.3227 O.2       1 <0>        -0.4439
     15 C11         3.7451    1.9528   -0.0159 C.2       1 <0>         0.5513
     16 O3          4.8433    1.4393   -0.0230 O.2       1 <0>        -0.4400
     17 N2          3.6195    3.2947   -0.0078 N.am      1 <0>        -0.5537
     18 C12         2.4309    3.9144    0.0016 C.2       1 <0>         0.5723
     19 O4          2.4067    5.1294    0.0051 O.2       1 <0>        -0.4772
     20 C13         4.8355    4.1118   -0.0098 C.3       1 <0>         0.1361
     21 C14         5.2448    4.3999   -1.4312 C.ar      1 <0>        -0.1410
     22 C15         5.0305    5.6541   -1.9715 C.ar      1 <0>        -0.0549
     23 C16         5.4065    5.9193   -3.2748 C.ar      1 <0>        -0.1047
     24 C17         5.9972    4.9297   -4.0403 C.ar      1 <0>        -0.0546
     25 C18         6.2119    3.6745   -3.5017 C.ar      1 <0>        -0.1331
     26 C19         5.8406    3.4102   -2.1942 C.ar      1 <0>         0.1218
     27 F2          6.0548    2.1857   -1.6651 F         1 <0>        -0.1099
     28 Br1         6.5117    5.2941   -5.8231 Br        1 <0>        -0.0289
     29 H1         -2.1904    3.6646    0.0401 H         1 <0>         0.1568
     30 H2         -0.0875    4.9380    0.0272 H         1 <0>         0.1604
     31 H3          0.0021   -0.0041    0.0020 H         1 <0>         0.1470
     32 H4          1.6506    0.2789   -1.8388 H         1 <0>         0.1417
     33 H5          3.4398    0.4023   -1.8502 H         1 <0>         0.1385
     34 H6          2.7172   -1.8742    1.2792 H         1 <0>         0.4283
     35 H7          4.6434    5.0503    0.5103 H         1 <0>         0.1215
     36 H8          5.6362    3.5730    0.4968 H         1 <0>         0.1159
     37 H9          4.5695    6.4272   -1.3748 H         1 <0>         0.1498
     38 H10         5.2387    6.8995   -3.6960 H         1 <0>         0.1446
     39 H11         6.6730    2.9019   -4.0991 H         1 <0>         0.1485
@<TRIPOS>BOND
     1    1    6 ar
     2    1    2 ar
     3    1   29 1
     4    2    3 ar
     5    2   30 1
     6    3   18 1
     7    3    4 ar
     8    4    5 ar
     9    4    8 1
    10    5    6 ar
    11    5   31 1
    12    6    7 1
    13    8   13 1
    14    8    9 1
    15    8   15 1
    16    9   10 1
    17    9   32 1
    18    9   33 1
    19   10   11 2
    20   10   12 am
    21   12   13 am
    22   12   34 1
    23   13   14 2
    24   15   16 2
    25   15   17 am
    26   17   18 am
    27   17   20 1
    28   18   19 2
    29   20   21 1
    30   20   35 1
    31   20   36 1
    32   21   26 ar
    33   21   22 ar
    34   22   23 ar
    35   22   37 1
    36   23   24 ar
    37   23   38 1
    38   24   25 ar
    39   24   28 1
    40   25   26 ar
    41   25   39 1
    42   26   27 1
@<TRIPOS>MOLECULE
ZINC03780343
   37    38     0     0     0
SMALL
USER_CHARGES

@<TRIPOS>ATOM
      1 C1          2.4337   -0.6161   -1.2464 C.3       1 <0>         0.0561
      2 N1          1.1760   -1.0005   -0.6009 N.pl3     1 <0>        -0.4647
      3 C2          1.1956   -1.8358    0.6025 C.3       1 <0>         0.0136
      4 C3          1.2610   -0.9556    1.8240 C.2       1 <0>         0.5006
      5 O1          1.2886    0.2571    1.7007 O.co2     1 <0>        -0.6791
      6 O2          1.2863   -1.4562    2.9354 O.co2     1 <0>        -0.6856
      7 C4          0.0008   -0.5856   -1.1141 C.2       1 <0>         0.3683
      8 S1         -1.4605   -0.9226   -0.2883 S.2       1 <0>        -0.5802
      9 C5         -0.0262    0.1575   -2.3849 C.ar      1 <0>        -0.0334
     10 C6          0.1653    1.5335   -2.4062 C.ar      1 <0>        -0.0908
     11 C7          0.1393    2.2316   -3.6056 C.ar      1 <0>        -0.0750
     12 C8         -0.0720    1.6062   -4.7961 C.ar      1 <0>        -0.1240
     13 C9         -0.2731    0.2166   -4.8500 C.ar      1 <0>         0.0285
     14 C10        -0.2489   -0.5377   -3.6510 C.ar      1 <0>        -0.0605
     15 C11        -0.4428   -1.9239   -3.6991 C.ar      1 <0>        -0.0158
     16 C12        -0.6474   -2.5353   -4.8989 C.ar      1 <0>        -0.2023
     17 C13        -0.6665   -1.7970   -6.0856 C.ar      1 <0>         0.1946
     18 C14        -0.4927   -0.4420   -6.0714 C.ar      1 <0>        -0.2313
     19 C15        -0.5163    0.3389   -7.3601 C.3       1 <0>         0.5200
     20 F1          0.6708    1.0685   -7.4851 F         1 <0>        -0.1789
     21 F2         -0.6365   -0.5444   -8.4384 F         1 <0>        -0.1637
     22 F3         -1.6050    1.2174   -7.3533 F         1 <0>        -0.1779
     23 O3         -0.8728   -2.4340   -7.2681 O.3       1 <0>        -0.2991
     24 C16        -1.0609   -3.8497   -7.2182 C.3       1 <0>         0.0201
     25 H1          2.7474   -1.4053   -1.9297 H         1 <0>         0.0700
     26 H2          2.2883    0.3098   -1.8029 H         1 <0>         0.0820
     27 H3          3.2011   -0.4668   -0.4869 H         1 <0>         0.0912
     28 H4          0.2902   -2.4415    0.6391 H         1 <0>         0.1126
     29 H5          2.0685   -2.4882    0.5776 H         1 <0>         0.0861
     30 H6          0.3354    2.0646   -1.4813 H         1 <0>         0.1406
     31 H7          0.2906    3.3009   -3.5941 H         1 <0>         0.1360
     32 H8         -0.0855    2.1840   -5.7084 H         1 <0>         0.1314
     33 H9         -0.4298   -2.5054   -2.7891 H         1 <0>         0.1394
     34 H10        -0.7963   -3.6044   -4.9338 H         1 <0>         0.1441
     35 H11        -1.2149   -4.2316   -8.2275 H         1 <0>         0.1051
     36 H12        -0.1782   -4.3184   -6.7832 H         1 <0>         0.0604
     37 H13        -1.9330   -4.0791   -6.6060 H         1 <0>         0.0615
@<TRIPOS>BOND
     1    1    2 1
     2    1   25 1
     3    1   26 1
     4    1   27 1
     5    2    3 1
     6    2    7 1
     7    3    4 1
     8    3   28 1
     9    3   29 1
    10    4    5 2
    11    4    6 1
    12    7    8 2
    13    7    9 1
    14    9   14 ar
    15    9   10 ar
    16   10   11 ar
    17   10   30 1
    18   11   12 ar
    19   11   31 1
    20   12   13 ar
    21   12   32 1
    22   13   18 ar
    23   13   14 ar
    24   14   15 ar
    25   15   16 ar
    26   15   33 1
    27   16   17 ar
    28   16   34 1
    29   17   18 ar
    30   17   23 1
    31   18   19 1
    32   19   20 1
    33   19   21 1
    34   19   22 1
    35   23   24 1
    36   24   35 1
    37   24   36 1
    38   24   37 1
@<TRIPOS>MOLECULE
ZINC01533688
   33    34     0     0     0
SMALL
USER_CHARGES

@<TRIPOS>ATOM
      1 C1          1.3012    0.9079    0.3155 C.3       1 <0>        -0.1391
      2 C2          0.4991   -0.3678    0.3371 C.2       1 <0>        -0.1104
      3 C3          0.1102   -0.9030    1.5185 C.2       1 <0>        -0.0613
      4 C4          0.3142   -0.1544    2.7673 C.ar      1 <0>        -0.0665
      5 C5          0.1047    1.2288    2.8005 C.ar      1 <0>        -0.1005
      6 C6          0.2982    1.9233    3.9756 C.ar      1 <0>        -0.1223
      7 C7          0.6986    1.2562    5.1204 C.ar      1 <0>        -0.1141
      8 C8          0.9080   -0.1119    5.0960 C.ar      1 <0>        -0.1239
      9 C9          0.7133   -0.8221    3.9305 C.ar      1 <0>        -0.1016
     10 C10         0.1539   -1.0035   -0.8720 C.2       1 <0>         0.0519
     11 C11         0.4461   -0.4073   -2.0639 C.2       1 <0>        -0.2133
     12 C12         0.3055   -0.9298   -3.4359 C.2       1 <0>         0.5441
     13 O1         -0.1249   -2.0477   -3.6530 O.2       1 <0>        -0.4585
     14 N1          0.6699   -0.1233   -4.4185 N.am      1 <0>        -0.4829
     15 C13         1.1458    1.1146   -4.1737 C.2       1 <0>         0.2866
     16 S1          1.6639    2.2966   -5.2986 S.2       1 <0>        -0.3724
     17 S2          1.0972    1.2249   -2.3921 S.3       1 <0>         0.0579
     18 C14         0.5544   -0.5850   -5.8040 C.3       1 <0>         0.0079
     19 C15        -0.8060   -0.2236   -6.3422 C.2       1 <0>         0.4995
     20 O2         -1.6051    0.3651   -5.6341 O.co2     1 <0>        -0.6804
     21 O3         -1.1076   -0.5199   -7.4858 O.co2     1 <0>        -0.6790
     22 H1          1.8435    1.0120    1.2552 H         1 <0>         0.0857
     23 H2          2.0103    0.8772   -0.5118 H         1 <0>         0.0830
     24 H3          0.6299    1.7570    0.1873 H         1 <0>         0.0829
     25 H4         -0.3498   -1.8798    1.5435 H         1 <0>         0.1339
     26 H5         -0.2073    1.7508    1.9081 H         1 <0>         0.1312
     27 H6          0.1374    2.9909    4.0028 H         1 <0>         0.1251
     28 H7          0.8489    1.8061    6.0377 H         1 <0>         0.1215
     29 H8          1.2207   -0.6250    5.9935 H         1 <0>         0.1231
     30 H9          0.8724   -1.8902    3.9143 H         1 <0>         0.1255
     31 H10        -0.3420   -1.9628   -0.8553 H         1 <0>         0.1555
     32 H11         1.3238   -0.1082   -6.4112 H         1 <0>         0.1109
     33 H12         0.6830   -1.6669   -5.8383 H         1 <0>         0.1000
@<TRIPOS>BOND
     1    1    2 1
     2    1   22 1
     3    1   23 1
     4    1   24 1
     5    2    3 2
     6    2   10 1
     7    3    4 1
     8    3   25 1
     9    4    9 ar
    10    4    5 ar
    11    5    6 ar
    12    5   26 1
    13    6    7 ar
    14    6   27 1
    15    7    8 ar
    16    7   28 1
    17    8    9 ar
    18    8   29 1
    19    9   30 1
    20   10   11 2
    21   10   31 1
    22   11   17 1
    23   11   12 1
    24   12   13 2
    25   12   14 am
    26   14   15 1
    27   14   18 1
    28   15   16 2
    29   15   17 1
    30   18   19 1
    31   18   32 1
    32   18   33 1
    33   19   20 2
    34   19   21 1
