@<TRIPOS>MOLECULE
ZINC20593727
   25    26     0     0     0
SMALL
USER_CHARGES
3-chloro-2-hydroxy-5-phenyl-benzoic acid
@<TRIPOS>ATOM
      1 C1          1.2078   -0.6819   -0.0131 C.ar      1 <0>        -0.1325
      2 C2          0.0021   -0.0041    0.0020 C.ar      1 <0>        -0.1188
      3 C3         -0.0166    1.3760    0.0096 C.ar      1 <0>        -0.1220
      4 C4          1.1820    2.0864    0.0020 C.ar      1 <0>        -0.0184
      5 C5          2.3937    1.3985   -0.0124 C.ar      1 <0>        -0.1153
      6 C6          2.4006    0.0184   -0.0203 C.ar      1 <0>        -0.1142
      7 C7          1.1682    3.5702    0.0096 C.ar      1 <0>        -0.1109
      8 C8          2.3653    4.2754    0.0019 C.ar      1 <0>        -0.0155
      9 C9          2.3483    5.6707    0.0091 C.ar      1 <0>        -0.1472
     10 C10         1.1221    6.3514    0.0240 C.ar      1 <0>         0.2088
     11 C11        -0.0677    5.6354    0.0316 C.ar      1 <0>        -0.1522
     12 C12        -0.0476    4.2561    0.0187 C.ar      1 <0>        -0.0578
     13 Cl1        -1.5851    6.4786    0.0506 Cl        1 <0>        -0.0790
     14 O1          1.0984    7.7076    0.0315 O.3       1 <0>        -0.4512
     15 C13         3.6142    6.4263    0.0016 C.2       1 <0>         0.4939
     16 O2          3.5966    7.6412    0.0079 O.co2     1 <0>        -0.6075
     17 O3          4.7908    5.7696   -0.0123 O.co2     1 <0>        -0.7575
     18 H1          1.2178   -1.7618   -0.0190 H         1 <0>         0.1177
     19 H2         -0.9264   -0.5558    0.0083 H         1 <0>         0.1192
     20 H3         -0.9586    1.9042    0.0169 H         1 <0>         0.1219
     21 H4          3.3256    1.9442   -0.0173 H         1 <0>         0.1317
     22 H5          3.3392   -0.5159   -0.0318 H         1 <0>         0.1223
     23 H6          3.3061    3.7452   -0.0099 H         1 <0>         0.1463
     24 H7         -0.9762    3.7047    0.0198 H         1 <0>         0.1310
     25 H8          0.1363    8.2408    0.0432 H         1 <0>         0.4071
@<TRIPOS>BOND
     1    1    6 ar
     2    1    2 ar
     3    1   18 1
     4    2    3 ar
     5    2   19 1
     6    3    4 ar
     7    3   20 1
     8    4    5 ar
     9    4    7 1
    10    5    6 ar
    11    5   21 1
    12    6   22 1
    13    7   12 ar
    14    7    8 ar
    15    8    9 ar
    16    8   23 1
    17    9   10 ar
    18    9   15 1
    19   10   11 ar
    20   10   14 1
    21   11   12 ar
    22   11   13 1
    23   12   24 1
    24   14   25 1
    25   15   16 2
    26   15   17 1
@<TRIPOS>MOLECULE
ZINC01601737
   26    27     0     0     0
SMALL
USER_CHARGES
4-anilinobenzoic acid
@<TRIPOS>ATOM
      1 C1         -0.9283    2.4273    2.1100 C.ar      1 <0>        -0.1642
      2 C2         -1.0926    1.5985    1.0152 C.ar      1 <0>        -0.0885
      3 C3          0.0097    1.1546    0.3116 C.ar      1 <0>        -0.1763
      4 C4          1.2841    1.5504    0.6981 C.ar      1 <0>         0.1923
      5 C5          1.4451    2.3877    1.7950 C.ar      1 <0>        -0.1637
      6 C6          0.3388    2.8236    2.4972 C.ar      1 <0>        -0.0856
      7 N1          2.4012    1.1079   -0.0149 N.pl3     1 <0>        -0.6865
      8 C7          3.5445    1.8972   -0.0760 C.ar      1 <0>         0.1634
      9 C8          3.4330    3.2849   -0.0464 C.ar      1 <0>        -0.1755
     10 C9          4.5586    4.0658   -0.1008 C.ar      1 <0>        -0.0477
     11 C10         5.8190    3.4674   -0.1977 C.ar      1 <0>        -0.1400
     12 C11         5.9270    2.0734   -0.2330 C.ar      1 <0>        -0.0566
     13 C12         4.7978    1.2981   -0.1725 C.ar      1 <0>        -0.1780
     14 C13         7.0308    4.3039   -0.2620 C.2       1 <0>         0.4901
     15 O1          8.1252    3.7825   -0.3458 O.co2     1 <0>        -0.6350
     16 H1         -1.7918    2.7696    2.6609 H         1 <0>         0.1175
     17 H2         -2.0838    1.2944    0.7127 H         1 <0>         0.1197
     18 H3         -0.1190    0.5041   -0.5408 H         1 <0>         0.1198
     19 H4          2.4343    2.6976    2.0980 H         1 <0>         0.1285
     20 H5          0.4632    3.4745    3.3500 H         1 <0>         0.1221
     21 H6          2.3792    0.2501   -0.4673 H         1 <0>         0.4052
     22 H7          2.4592    3.7464    0.0240 H         1 <0>         0.1184
     23 H8          4.4718    5.1420   -0.0733 H         1 <0>         0.1324
     24 H9          6.8989    1.6082   -0.3075 H         1 <0>         0.1290
     25 H10         4.8806    0.2216   -0.1994 H         1 <0>         0.1166
     26 O2          6.9250    5.6469   -0.2279 O.co2     1 <0>        -0.7575
@<TRIPOS>BOND
     1    1    6 ar
     2    1    2 ar
     3    1   16 1
     4    2    3 ar
     5    2   17 1
     6    3    4 ar
     7    3   18 1
     8    4    5 ar
     9    4    7 1
    10    5    6 ar
    11    5   19 1
    12    6   20 1
    13    7    8 1
    14    7   21 1
    15    8   13 ar
    16    8    9 ar
    17    9   10 ar
    18    9   22 1
    19   10   11 ar
    20   10   23 1
    21   11   12 ar
    22   11   14 1
    23   12   13 ar
    24   12   24 1
    25   13   25 1
    26   14   15 2
    27   14   26 1
@<TRIPOS>MOLECULE
ZINC08418366
   28    29     0     0     0
SMALL
USER_CHARGES
3-[(4-nitrophenyl)amino]benzoic acid
@<TRIPOS>ATOM
      1 C1          3.6266    6.1986   -0.2949 C.ar      1 <0>        -0.1080
      2 C2          4.7351    5.6240    0.2934 C.ar      1 <0>        -0.0985
      3 C3          4.6635    4.3232    0.7958 C.ar      1 <0>        -0.0812
      4 C4          3.4678    3.6098    0.7041 C.ar      1 <0>        -0.1259
      5 C5          2.3615    4.1945    0.1071 C.ar      1 <0>         0.1374
      6 C6          2.4433    5.4908   -0.3892 C.ar      1 <0>        -0.1601
      7 N1          1.1626    3.4831    0.0092 N.pl3     1 <0>        -0.6742
      8 C7          1.1781    2.0861   -0.0009 C.ar      1 <0>         0.2457
      9 C8          0.1231    1.3741    0.5560 C.ar      1 <0>        -0.1754
     10 C9          0.1414   -0.0067    0.5438 C.ar      1 <0>        -0.0187
     11 C10         1.2085   -0.6807   -0.0214 C.ar      1 <0>        -0.0907
     12 C11         2.2601    0.0249   -0.5771 C.ar      1 <0>        -0.0138
     13 C12         2.2481    1.4058   -0.5688 C.ar      1 <0>        -0.1596
     14 N2          1.2249   -2.1608   -0.0322 N.pl3     1 <0>         0.0401
     15 O1          0.2992   -2.7837    0.4565 O.2       1 <0>        -0.1790
     16 O2          2.1640   -2.7559   -0.5296 O.3       1 <0>        -0.1710
     17 C13         5.8483    3.7061    1.4269 C.2       1 <0>         0.4870
     18 O3          5.7838    2.5743    1.8633 O.co2     1 <0>        -0.6265
     19 H1          3.6840    7.2050   -0.6826 H         1 <0>         0.1225
     20 H2          5.6578    6.1807    0.3654 H         1 <0>         0.1337
     21 H3          3.4051    2.6047    1.0943 H         1 <0>         0.1312
     22 H4          1.5793    5.9460   -0.8503 H         1 <0>         0.1180
     23 H5          0.3197    3.9593   -0.0517 H         1 <0>         0.4120
     24 H6         -0.7125    1.8999    0.9939 H         1 <0>         0.1455
     25 H7         -0.6784   -0.5608    0.9766 H         1 <0>         0.1521
     26 H8          3.0919   -0.5046   -1.0177 H         1 <0>         0.1548
     27 H9          3.0696    1.9562   -1.0029 H         1 <0>         0.1513
     28 O4          7.0002    4.3985    1.5183 O.co2     1 <0>        -0.7488
@<TRIPOS>BOND
     1    1    6 ar
     2    1    2 ar
     3    1   19 1
     4    2    3 ar
     5    2   20 1
     6    3    4 ar
     7    3   17 1
     8    4    5 ar
     9    4   21 1
    10    5    6 ar
    11    5    7 1
    12    6   22 1
    13    7    8 1
    14    7   23 1
    15    8   13 ar
    16    8    9 ar
    17    9   10 ar
    18    9   24 1
    19   10   11 ar
    20   10   25 1
    21   11   12 ar
    22   11   14 1
    23   12   13 ar
    24   12   26 1
    25   13   27 1
    26   14   15 2
    27   14   16 1
    28   17   18 2
    29   17   28 1
@<TRIPOS>MOLECULE
ZINC00086535
   29    30     0     0     0
SMALL
USER_CHARGES

@<TRIPOS>ATOM
      1 C1         -0.0159    1.3650   -0.0977 C.ar      1 <0>        -0.1367
      2 C2          0.4840    0.9327    1.1215 C.ar      1 <0>        -0.1228
      3 C3          1.6944    0.2747    1.1872 C.ar      1 <0>        -0.1392
      4 C4          2.4234    0.0398    0.0274 C.ar      1 <0>         0.1610
      5 C5          1.9199    0.4764   -1.2099 C.ar      1 <0>        -0.1351
      6 C6          0.6903    1.1425   -1.2582 C.ar      1 <0>        -0.0822
      7 C7          2.6802    0.2355   -2.4452 C.2       1 <0>         0.5173
      8 O1          2.2828    0.6944   -3.5076 O.co2     1 <0>        -0.6905
      9 O2          3.7104   -0.4240   -2.4107 O.co2     1 <0>        -0.6662
     10 N1          3.6417   -0.6217    0.0908 N.pl3     1 <0>        -0.6664
     11 C8          4.8344    0.1003   -0.0019 C.ar      1 <0>         0.2697
     12 C9          4.8071    1.4892   -0.0308 C.ar      1 <0>        -0.1547
     13 C10         5.9875    2.1996   -0.1225 C.ar      1 <0>        -0.0764
     14 C11         7.1962    1.5302   -0.1857 C.ar      1 <0>        -0.1473
     15 C12         7.2270    0.1481   -0.1572 C.ar      1 <0>        -0.1404
     16 C13         6.0503   -0.5686   -0.0598 C.ar      1 <0>        -0.1391
     17 C14         8.5464   -0.5769   -0.2263 C.3       1 <0>         0.5096
     18 F1          9.5864    0.3547   -0.3139 F         1 <0>        -0.1815
     19 F2          8.7122   -1.3541    0.9250 F         1 <0>        -0.1825
     20 F3          8.5653   -1.4043   -1.3542 F         1 <0>        -0.1765
     21 H1         -0.9669    1.8753   -0.1374 H         1 <0>         0.1161
     22 H2         -0.0781    1.1129    2.0259 H         1 <0>         0.1163
     23 H3          2.0762   -0.0582    2.1410 H         1 <0>         0.1176
     24 H4          0.2956    1.4812   -2.2048 H         1 <0>         0.1284
     25 H5          3.6653   -1.5853    0.1995 H         1 <0>         0.4037
     26 H6          3.8636    2.0125    0.0182 H         1 <0>         0.1210
     27 H7          5.9670    3.2792   -0.1453 H         1 <0>         0.1255
     28 H8          8.1181    2.0883   -0.2577 H         1 <0>         0.1265
     29 H9          6.0754   -1.6479   -0.0327 H         1 <0>         0.1247
@<TRIPOS>BOND
     1    1    6 ar
     2    1    2 ar
     3    1   21 1
     4    2    3 ar
     5    2   22 1
     6    3    4 ar
     7    3   23 1
     8    4    5 ar
     9    4   10 1
    10    5    6 ar
    11    5    7 1
    12    6   24 1
    13    7    8 2
    14    7    9 1
    15   10   11 1
    16   10   25 1
    17   11   16 ar
    18   11   12 ar
    19   12   13 ar
    20   12   26 1
    21   13   14 ar
    22   13   27 1
    23   14   15 ar
    24   14   28 1
    25   15   16 ar
    26   15   17 1
    27   16   29 1
    28   17   18 1
    29   17   19 1
    30   17   20 1
@<TRIPOS>MOLECULE
ZINC00154642
   26    27     0     0     0
SMALL
USER_CHARGES

@<TRIPOS>ATOM
      1 C1          4.6565    1.3964   -3.5805 C.ar      1 <0>        -0.1946
      2 C2          4.3142    2.1018   -2.4413 C.ar      1 <0>        -0.0798
      3 C3          3.9708    1.4269   -1.2865 C.ar      1 <0>        -0.1965
      4 C4          3.9694    0.0378   -1.2700 C.ar      1 <0>         0.2654
      5 C5          4.3137   -0.6677   -2.4162 C.ar      1 <0>        -0.1778
      6 C6          4.6562    0.0136   -3.5676 C.ar      1 <0>        -0.0779
      7 N1          3.6229   -0.6483   -0.1031 N.pl3     1 <0>        -0.6717
      8 C7          3.5428   -2.0338   -0.1106 C.ar      1 <0>         0.1664
      9 C8          2.3046   -2.6619   -0.1755 C.ar      1 <0>        -0.1404
     10 C9          2.2277   -4.0390   -0.1827 C.ar      1 <0>        -0.1235
     11 C10         3.3804   -4.8079   -0.1251 C.ar      1 <0>        -0.1391
     12 C11         4.6166   -4.2055   -0.0599 C.ar      1 <0>        -0.0833
     13 C12         4.7134   -2.8096   -0.0583 C.ar      1 <0>        -0.1371
     14 C13         6.0305   -2.1590    0.0045 C.2       1 <0>         0.5183
     15 O1          7.0496   -2.8320   -0.0716 O.co2     1 <0>        -0.6933
     16 O2          6.1075   -0.9446    0.1329 O.co2     1 <0>        -0.6654
     17 H1          4.9203    1.9267   -4.4836 H         1 <0>         0.1085
     18 H2          4.3158    3.1817   -2.4547 H         1 <0>         0.1118
     19 H3          3.7039    1.9784   -0.3970 H         1 <0>         0.1124
     20 H4          4.3140   -1.7477   -2.4066 H         1 <0>         0.1113
     21 H5          4.9237   -0.5342   -4.4591 H         1 <0>         0.1112
     22 H6          3.4383   -0.1563    0.7122 H         1 <0>         0.4011
     23 H7          1.4017   -2.0710   -0.2199 H         1 <0>         0.1163
     24 H8          1.2630   -4.5219   -0.2333 H         1 <0>         0.1153
     25 H9          3.3079   -5.8854   -0.1310 H         1 <0>         0.1152
     26 H10         5.5107   -4.8096   -0.0148 H         1 <0>         0.1273
@<TRIPOS>BOND
     1    1    6 ar
     2    1    2 ar
     3    1   17 1
     4    2    3 ar
     5    2   18 1
     6    3    4 ar
     7    3   19 1
     8    4    5 ar
     9    4    7 1
    10    5    6 ar
    11    5   20 1
    12    6   21 1
    13    7    8 1
    14    7   22 1
    15    8   13 ar
    16    8    9 ar
    17    9   10 ar
    18    9   23 1
    19   10   11 ar
    20   10   24 1
    21   11   12 ar
    22   11   25 1
    23   12   13 ar
    24   12   26 1
    25   13   14 1
    26   14   15 2
    27   14   16 1
@<TRIPOS>MOLECULE
ZINC27099199
   25    26     0     0     0
SMALL
USER_CHARGES
5-bromo-2-hydroxy-3-phenyl-benzoic acid
@<TRIPOS>ATOM
      1 C1          1.1702    2.0863    0.0021 C.ar      1 <0>        -0.1295
      2 C2         -0.0166    1.3759    0.0096 C.ar      1 <0>        -0.1242
      3 C3          0.0021   -0.0041    0.0020 C.ar      1 <0>        -0.1141
      4 C4          1.2198   -0.6817   -0.0133 C.ar      1 <0>        -0.0130
      5 C5          2.4124    0.0392   -0.0209 C.ar      1 <0>        -0.0899
      6 C6          2.3817    1.4190   -0.0132 C.ar      1 <0>        -0.1226
      7 C7          1.2463   -2.1648   -0.0210 C.ar      1 <0>        -0.1312
      8 C8          0.4981   -2.8808    0.9093 C.ar      1 <0>        -0.0293
      9 C9          0.5153   -4.2642    0.9021 C.ar      1 <0>        -0.1591
     10 C10         1.2821   -4.9485   -0.0186 C.ar      1 <0>         0.0056
     11 C11         2.0446   -4.2471   -0.9568 C.ar      1 <0>        -0.2263
     12 C12         2.0271   -2.8464   -0.9587 C.ar      1 <0>         0.2478
     13 O1          2.7627   -2.1562   -1.8647 O.3       1 <0>        -0.5193
     14 C13         2.8634   -4.9782   -1.9406 C.2       1 <0>         0.5100
     15 O2          3.5250   -4.3660   -2.7554 O.co2     1 <0>        -0.6225
     16 O3          2.8782   -6.3257   -1.9364 O.co2     1 <0>        -0.7267
     17 Br1        -0.5124   -5.2232    2.1669 Br        1 <0>        -0.0710
     18 H1          1.1509    3.1661    0.0078 H         1 <0>         0.1163
     19 H2         -0.9597    1.9021    0.0169 H         1 <0>         0.1185
     20 H3         -0.9252   -0.5578    0.0083 H         1 <0>         0.1205
     21 H4          3.3589   -0.4808   -0.0324 H         1 <0>         0.1238
     22 H5          3.3054    1.9787   -0.0194 H         1 <0>         0.1191
     23 H6         -0.1016   -2.3542    1.6370 H         1 <0>         0.1306
     24 H7          1.2935   -6.0285   -0.0140 H         1 <0>         0.1415
     25 H8          3.3760   -2.6961   -2.6012 H         1 <0>         0.4450
@<TRIPOS>BOND
     1    1    6 ar
     2    1    2 ar
     3    1   18 1
     4    2    3 ar
     5    2   19 1
     6    3    4 ar
     7    3   20 1
     8    4    5 ar
     9    4    7 1
    10    5    6 ar
    11    5   21 1
    12    6   22 1
    13    7   12 ar
    14    7    8 ar
    15    8    9 ar
    16    8   23 1
    17    9   10 ar
    18    9   17 1
    19   10   11 ar
    20   10   24 1
    21   11   12 ar
    22   11   14 1
    23   12   13 1
    24   13   25 1
    25   14   15 2
    26   14   16 1
@<TRIPOS>MOLECULE
ZINC01701218
   25    26     0     0     0
SMALL
USER_CHARGES
3-bromo-2-hydroxy-5-phenyl-benzoic acid
@<TRIPOS>ATOM
      1 C1          1.2078   -0.6819   -0.0127 C.ar      1 <0>        -0.1281
      2 C2          0.0021   -0.0041    0.0020 C.ar      1 <0>        -0.1198
      3 C3         -0.0166    1.3760    0.0096 C.ar      1 <0>        -0.1171
      4 C4          1.1820    2.0864    0.0020 C.ar      1 <0>        -0.0276
      5 C5          2.3937    1.3985   -0.0133 C.ar      1 <0>        -0.1110
      6 C6          2.4006    0.0184   -0.0203 C.ar      1 <0>        -0.1157
      7 C7          1.1682    3.5702    0.0096 C.ar      1 <0>        -0.0802
      8 C8          2.3653    4.2754    0.0019 C.ar      1 <0>        -0.0344
      9 C9          2.3482    5.6707    0.0087 C.ar      1 <0>        -0.1344
     10 C10         1.1218    6.3512    0.0231 C.ar      1 <0>         0.1736
     11 C11        -0.0677    5.6352    0.0306 C.ar      1 <0>        -0.1343
     12 C12        -0.0476    4.2562    0.0186 C.ar      1 <0>        -0.0691
     13 Br1        -1.7206    6.5536    0.0501 Br        1 <0>        -0.0547
     14 O1          1.0979    7.7074    0.0302 O.3       1 <0>        -0.4621
     15 C13         3.6140    6.4264    0.0011 C.2       1 <0>         0.4912
     16 O2          3.5962    7.6414    0.0070 O.co2     1 <0>        -0.6090
     17 H1          1.2178   -1.7618   -0.0179 H         1 <0>         0.1188
     18 H2         -0.9264   -0.5558    0.0079 H         1 <0>         0.1205
     19 H3         -0.9586    1.9042    0.0169 H         1 <0>         0.1233
     20 H4          3.3256    1.9442   -0.0189 H         1 <0>         0.1322
     21 H5          3.3392   -0.5159   -0.0314 H         1 <0>         0.1232
     22 H6          3.3062    3.7453   -0.0095 H         1 <0>         0.1445
     23 H7         -0.9762    3.7047    0.0200 H         1 <0>         0.1323
     24 H8          1.0831    8.1051   -0.8511 H         1 <0>         0.3901
     25 O3          4.7906    5.7699   -0.0123 O.co2     1 <0>        -0.7524
@<TRIPOS>BOND
     1    1    6 ar
     2    1    2 ar
     3    1   17 1
     4    2    3 ar
     5    2   18 1
     6    3    4 ar
     7    3   19 1
     8    4    5 ar
     9    4    7 1
    10    5    6 ar
    11    5   20 1
    12    6   21 1
    13    7   12 ar
    14    7    8 ar
    15    8    9 ar
    16    8   22 1
    17    9   10 ar
    18    9   15 1
    19   10   11 ar
    20   10   14 1
    21   11   12 ar
    22   11   13 1
    23   12   23 1
    24   14   24 1
    25   15   16 2
    26   15   25 1
@<TRIPOS>MOLECULE
ZINC00057140
   15    15     0     0     0
SMALL
USER_CHARGES
3,5-dibromo-2-hydroxy-benzoic acid
@<TRIPOS>ATOM
      1 C1          1.1628    2.5893    0.0049 C.ar      1 <0>        -0.0185
      2 C2         -0.0236    1.8867    0.0124 C.ar      1 <0>        -0.1142
      3 C3         -1.2348    2.5602    0.0218 C.ar      1 <0>        -0.0524
      4 C4         -1.2663    3.9414    0.0353 C.ar      1 <0>        -0.1344
      5 C5         -0.0820    4.6641    0.0279 C.ar      1 <0>         0.1851
      6 C6          1.1452    3.9866    0.0125 C.ar      1 <0>        -0.1304
      7 C7          2.4099    4.7438    0.0050 C.2       1 <0>         0.4918
      8 O1          2.3906    5.9588    0.0117 O.co2     1 <0>        -0.6062
      9 O2         -0.1115    6.0205    0.0359 O.3       1 <0>        -0.4600
     10 Br1        -2.9257    4.8479    0.0567 Br        1 <0>        -0.0442
     11 Br2         0.0021   -0.0041    0.0020 Br        1 <0>        -0.0532
     12 H1          2.1044    2.0604   -0.0066 H         1 <0>         0.1515
     13 H2         -2.1594    2.0021    0.0232 H         1 <0>         0.1392
     14 H3         -0.1283    6.4188   -0.8451 H         1 <0>         0.3934
     15 O3          3.5874    4.0888   -0.0093 O.co2     1 <0>        -0.7476
@<TRIPOS>BOND
     1    1    6 ar
     2    1    2 ar
     3    1   12 1
     4    2    3 ar
     5    2   11 1
     6    3    4 ar
     7    3   13 1
     8    4    5 ar
     9    4   10 1
    10    5    6 ar
    11    5    9 1
    12    6    7 1
    13    7    8 2
    14    7   15 1
    15    9   14 1
@<TRIPOS>MOLECULE
ZINC00409156
   15    15     0     0     0
SMALL
USER_CHARGES
3,5-dichloro-2-hydroxy-benzoic acid
@<TRIPOS>ATOM
      1 C1          1.1651    2.4344    0.0040 C.ar      1 <0>        -0.0479
      2 C2         -0.0215    1.7317    0.0116 C.ar      1 <0>        -0.0511
      3 C3         -1.2329    2.4054    0.0210 C.ar      1 <0>        -0.0932
      4 C4         -1.2642    3.7867    0.0345 C.ar      1 <0>        -0.0711
      5 C5         -0.0796    4.5094    0.0270 C.ar      1 <0>         0.1568
      6 C6          1.1475    3.8319    0.0117 C.ar      1 <0>        -0.1187
      7 C7          2.4121    4.5890    0.0042 C.2       1 <0>         0.4919
      8 O1          2.3929    5.8040    0.0109 O.co2     1 <0>        -0.6057
      9 O2         -0.1089    5.8659    0.0350 O.3       1 <0>        -0.4608
     10 Cl1        -2.7875    4.6192    0.0535 Cl        1 <0>        -0.0633
     11 Cl2         0.0021   -0.0041    0.0020 Cl        1 <0>        -0.0724
     12 H1          2.1066    1.9056   -0.0075 H         1 <0>         0.1517
     13 H2         -2.1576    1.8473    0.0220 H         1 <0>         0.1404
     14 H3         -0.1257    6.2642   -0.8460 H         1 <0>         0.3910
     15 O3          3.5896    3.9339   -0.0102 O.co2     1 <0>        -0.7475
@<TRIPOS>BOND
     1    1    6 ar
     2    1    2 ar
     3    1   12 1
     4    2    3 ar
     5    2   11 1
     6    3    4 ar
     7    3   13 1
     8    4    5 ar
     9    4   10 1
    10    5    6 ar
    11    5    9 1
    12    6    7 1
    13    7    8 2
    14    7   15 1
    15    9   14 1
