@<TRIPOS>MOLECULE
ZINC00001281
   29    30     0     0     0
SMALL
USER_CHARGES

@<TRIPOS>ATOM
      1 C1         -0.1806    1.0357    0.2000 C.ar      1 <0>        -0.1222
      2 C2          0.9245    1.8481    0.0217 C.ar      1 <0>        -0.1361
      3 C3          2.1862    1.2928   -0.0570 C.ar      1 <0>        -0.1180
      4 C4          2.3450   -0.0840    0.0433 C.ar      1 <0>         0.1573
      5 C5          1.2329   -0.8970    0.2224 C.ar      1 <0>        -0.0156
      6 C6         -0.0262   -0.3347    0.3002 C.ar      1 <0>        -0.1119
      7 C7          1.4001   -2.3907    0.3312 C.3       1 <0>        -0.1565
      8 C8          1.7182   -2.7580    1.7577 C.2       1 <0>         0.5052
      9 O1          1.8014   -1.8875    2.6073 O.co2     1 <0>        -0.6883
     10 O2          1.8923   -3.9257    2.0622 O.co2     1 <0>        -0.7010
     11 N1          3.6199   -0.6493   -0.0363 N.pl3     1 <0>        -0.6799
     12 C9          3.9705   -1.4310   -1.1417 C.ar      1 <0>         0.2371
     13 C10         3.3529   -1.2194   -2.3686 C.ar      1 <0>        -0.0923
     14 C11         3.7019   -1.9940   -3.4588 C.ar      1 <0>        -0.0712
     15 C12         4.6640   -2.9789   -3.3298 C.ar      1 <0>        -0.1540
     16 C13         5.2803   -3.1928   -2.1105 C.ar      1 <0>        -0.0674
     17 C14         4.9413   -2.4177   -1.0174 C.ar      1 <0>        -0.0897
     18 Cl1         5.7217   -2.6815    0.5107 Cl        1 <0>        -0.0512
     19 Cl2         2.1442    0.0160   -2.5315 Cl        1 <0>        -0.0473
     20 H1         -1.1659    1.4731    0.2657 H         1 <0>         0.1132
     21 H2          0.8003    2.9181   -0.0565 H         1 <0>         0.1137
     22 H3          3.0486    1.9277   -0.1966 H         1 <0>         0.1147
     23 H4         -0.8913   -0.9662    0.4394 H         1 <0>         0.1149
     24 H5          0.4765   -2.8828    0.0266 H         1 <0>         0.0630
     25 H6          2.2146   -2.7133   -0.3173 H         1 <0>         0.0663
     26 H7          4.2621   -0.4997    0.6751 H         1 <0>         0.4125
     27 H8          3.2224   -1.8301   -4.4125 H         1 <0>         0.1341
     28 H9          4.9344   -3.5828   -4.1833 H         1 <0>         0.1345
     29 H10         6.0307   -3.9634   -2.0133 H         1 <0>         0.1361
@<TRIPOS>BOND
     1    1    6 ar
     2    1    2 ar
     3    1   20 1
     4    2    3 ar
     5    2   21 1
     6    3    4 ar
     7    3   22 1
     8    4    5 ar
     9    4   11 1
    10    5    6 ar
    11    5    7 1
    12    6   23 1
    13    7    8 1
    14    7   24 1
    15    7   25 1
    16    8    9 2
    17    8   10 1
    18   11   12 1
    19   11   26 1
    20   12   17 ar
    21   12   13 ar
    22   13   14 ar
    23   13   19 1
    24   14   15 ar
    25   14   27 1
    26   15   16 ar
    27   15   28 1
    28   16   17 ar
    29   16   29 1
    30   17   18 1
@<TRIPOS>MOLECULE
ZINC00105216
   30    31     0     0     0
SMALL
USER_CHARGES

@<TRIPOS>ATOM
      1 C1         -0.0187    1.5258    0.0104 C.3       1 <0>        -0.1185
      2 C2          0.0021   -0.0041    0.0020 C.3       1 <0>        -0.1364
      3 H1         -1.0205   -0.3814    0.0098 H         1 <0>         0.0713
      4 C3          0.7074   -0.4901   -1.2379 C.ar      1 <0>        -0.0233
      5 C4          2.0367   -0.1325   -1.4560 C.ar      1 <0>        -0.0492
      6 C5          2.7027   -0.5545   -2.5653 C.ar      1 <0>        -0.1340
      7 C6          2.0432   -1.3636   -3.5068 C.ar      1 <0>        -0.0210
      8 C7          2.6987   -1.8182   -4.6628 C.ar      1 <0>        -0.1462
      9 C8          2.0264   -2.6031   -5.5556 C.ar      1 <0>         0.1082
     10 C9          0.6925   -2.9604   -5.3345 C.ar      1 <0>        -0.2006
     11 C10         0.0299   -2.5361   -4.2254 C.ar      1 <0>        -0.0655
     12 C11         0.6914   -1.7275   -3.2846 C.ar      1 <0>        -0.0750
     13 C12         0.0385   -1.2762   -2.1250 C.ar      1 <0>        -0.1205
     14 O1          2.6617   -3.0423   -6.6736 O.3       1 <0>        -0.3228
     15 C13         1.9067   -3.8599   -7.5700 C.3       1 <0>         0.0296
     16 C14         0.7309   -0.5033    1.2229 C.2       1 <0>         0.5002
     17 O2          0.3210   -0.2204    2.3358 O.co2     1 <0>        -0.6976
     18 O3          1.7305   -1.1901    1.0978 O.co2     1 <0>        -0.6861
     19 H2          1.0039    1.9031    0.0027 H         1 <0>         0.0479
     20 H3         -0.5459    1.8868   -0.8726 H         1 <0>         0.0406
     21 H4         -0.5289    1.8773    0.9072 H         1 <0>         0.0604
     22 H5          2.5458    0.4890   -0.7342 H         1 <0>         0.1214
     23 H6          3.7325   -0.2690   -2.7216 H         1 <0>         0.1221
     24 H7          3.7285   -1.5483   -4.8448 H         1 <0>         0.1285
     25 H8          0.1814   -3.5818   -6.0549 H         1 <0>         0.1229
     26 H9         -1.0004   -2.8192   -4.0679 H         1 <0>         0.1257
     27 H10        -0.9902   -1.5485   -1.9405 H         1 <0>         0.1191
     28 H11         2.5306   -4.1410   -8.4184 H         1 <0>         0.0948
     29 H12         1.5744   -4.7583   -7.0499 H         1 <0>         0.0524
     30 H13         1.0391   -3.3040   -7.9254 H         1 <0>         0.0519
@<TRIPOS>BOND
     1    1    2 1
     2    1   19 1
     3    1   20 1
     4    1   21 1
     5    2    3 1
     6    2    4 1
     7    2   16 1
     8    4   13 ar
     9    4    5 ar
    10    5    6 ar
    11    5   22 1
    12    6    7 ar
    13    6   23 1
    14    7   12 ar
    15    7    8 ar
    16    8    9 ar
    17    8   24 1
    18    9   10 ar
    19    9   14 1
    20   10   11 ar
    21   10   25 1
    22   11   12 ar
    23   11   26 1
    24   12   13 ar
    25   13   27 1
    26   14   15 1
    27   15   28 1
    28   15   29 1
    29   15   30 1
    30   16   17 2
    31   16   18 1
@<TRIPOS>MOLECULE
ZINC39316388
   26    27     0     0     0
SMALL
USER_CHARGES

@<TRIPOS>ATOM
      1 C1          0.3973    1.3635    1.6664 C.ar      1 <0>        -0.1711
      2 C2          0.7705    0.1233    2.1513 C.ar      1 <0>        -0.0837
      3 C3          1.8387   -0.5469    1.5886 C.ar      1 <0>        -0.1723
      4 C4          2.5385    0.0259    0.5339 C.ar      1 <0>         0.2007
      5 C5          2.1606    1.2717    0.0490 C.ar      1 <0>        -0.1822
      6 C6          1.0916    1.9366    0.6166 C.ar      1 <0>        -0.0849
      7 N1          3.6200   -0.6492   -0.0374 N.pl3     1 <0>        -0.6860
      8 C7          3.6964   -2.0422    0.0445 C.ar      1 <0>         0.1455
      9 C8          2.5329   -2.8038    0.0406 C.ar      1 <0>        -0.1644
     10 C9          2.6025   -4.1819    0.1210 C.ar      1 <0>        -0.1125
     11 C10         3.8271   -4.8122    0.2061 C.ar      1 <0>        -0.1096
     12 C11         5.0026   -4.0569    0.2108 C.ar      1 <0>        -0.1055
     13 C12         4.9323   -2.6651    0.1238 C.ar      1 <0>        -0.1204
     14 C13         6.3136   -4.7279    0.3022 C.2       1 <0>         0.5196
     15 O1          6.3727   -5.9473    0.3740 O.co2     1 <0>        -0.6849
     16 O2          7.3410   -4.0646    0.3061 O.co2     1 <0>        -0.6867
     17 H1         -0.4411    1.8837    2.1056 H         1 <0>         0.1162
     18 H2          0.2260   -0.3214    2.9712 H         1 <0>         0.1202
     19 H3          2.1301   -1.5151    1.9682 H         1 <0>         0.1285
     20 H4          2.7026    1.7200   -0.7706 H         1 <0>         0.1199
     21 H5          0.7975    2.9053    0.2404 H         1 <0>         0.1191
     22 H6          4.3179   -0.1510   -0.4910 H         1 <0>         0.4072
     23 H7          1.5713   -2.3166   -0.0251 H         1 <0>         0.1164
     24 H8          1.6951   -4.7675    0.1175 H         1 <0>         0.1169
     25 H9          3.8770   -5.8892    0.2694 H         1 <0>         0.1267
     26 H10         5.8373   -2.0757    0.1225 H         1 <0>         0.1273
@<TRIPOS>BOND
     1    1    6 ar
     2    1    2 ar
     3    1   17 1
     4    2    3 ar
     5    2   18 1
     6    3    4 ar
     7    3   19 1
     8    4    5 ar
     9    4    7 1
    10    5    6 ar
    11    5   20 1
    12    6   21 1
    13    7    8 1
    14    7   22 1
    15    8   13 ar
    16    8    9 ar
    17    9   10 ar
    18    9   23 1
    19   10   11 ar
    20   10   24 1
    21   11   12 ar
    22   11   25 1
    23   12   13 ar
    24   12   14 1
    25   13   26 1
    26   14   15 2
    27   14   16 1
@<TRIPOS>MOLECULE
ZINC01601737
   26    27     0     0     0
SMALL
USER_CHARGES
4-anilinobenzoic acid
@<TRIPOS>ATOM
      1 C1         -0.9283    2.4273    2.1100 C.ar      1 <0>        -0.1642
      2 C2         -1.0926    1.5985    1.0152 C.ar      1 <0>        -0.0885
      3 C3          0.0097    1.1546    0.3116 C.ar      1 <0>        -0.1763
      4 C4          1.2841    1.5504    0.6981 C.ar      1 <0>         0.1923
      5 C5          1.4451    2.3877    1.7950 C.ar      1 <0>        -0.1637
      6 C6          0.3388    2.8236    2.4972 C.ar      1 <0>        -0.0856
      7 N1          2.4012    1.1079   -0.0149 N.pl3     1 <0>        -0.6865
      8 C7          3.5445    1.8972   -0.0760 C.ar      1 <0>         0.1634
      9 C8          3.4330    3.2849   -0.0464 C.ar      1 <0>        -0.1755
     10 C9          4.5586    4.0658   -0.1008 C.ar      1 <0>        -0.0477
     11 C10         5.8190    3.4674   -0.1977 C.ar      1 <0>        -0.1400
     12 C11         5.9270    2.0734   -0.2330 C.ar      1 <0>        -0.0566
     13 C12         4.7978    1.2981   -0.1725 C.ar      1 <0>        -0.1780
     14 C13         7.0308    4.3039   -0.2620 C.2       1 <0>         0.4901
     15 O1          8.1252    3.7825   -0.3458 O.co2     1 <0>        -0.6350
     16 H1         -1.7918    2.7696    2.6609 H         1 <0>         0.1175
     17 H2         -2.0838    1.2944    0.7127 H         1 <0>         0.1197
     18 H3         -0.1190    0.5041   -0.5408 H         1 <0>         0.1198
     19 H4          2.4343    2.6976    2.0980 H         1 <0>         0.1285
     20 H5          0.4632    3.4745    3.3500 H         1 <0>         0.1221
     21 H6          2.3792    0.2501   -0.4673 H         1 <0>         0.4052
     22 H7          2.4592    3.7464    0.0240 H         1 <0>         0.1184
     23 H8          4.4718    5.1420   -0.0733 H         1 <0>         0.1324
     24 H9          6.8989    1.6082   -0.3075 H         1 <0>         0.1290
     25 H10         4.8806    0.2216   -0.1994 H         1 <0>         0.1166
     26 O2          6.9250    5.6469   -0.2279 O.co2     1 <0>        -0.7575
@<TRIPOS>BOND
     1    1    6 ar
     2    1    2 ar
     3    1   16 1
     4    2    3 ar
     5    2   17 1
     6    3    4 ar
     7    3   18 1
     8    4    5 ar
     9    4    7 1
    10    5    6 ar
    11    5   19 1
    12    6   20 1
    13    7    8 1
    14    7   21 1
    15    8   13 ar
    16    8    9 ar
    17    9   10 ar
    18    9   22 1
    19   10   11 ar
    20   10   23 1
    21   11   12 ar
    22   11   14 1
    23   12   13 ar
    24   12   24 1
    25   13   25 1
    26   14   15 2
    27   14   26 1
@<TRIPOS>MOLECULE
ZINC08418366
   28    29     0     0     0
SMALL
USER_CHARGES
3-[(4-nitrophenyl)amino]benzoic acid
@<TRIPOS>ATOM
      1 C1          3.6266    6.1986   -0.2949 C.ar      1 <0>        -0.1080
      2 C2          4.7351    5.6240    0.2934 C.ar      1 <0>        -0.0985
      3 C3          4.6635    4.3232    0.7958 C.ar      1 <0>        -0.0812
      4 C4          3.4678    3.6098    0.7041 C.ar      1 <0>        -0.1259
      5 C5          2.3615    4.1945    0.1071 C.ar      1 <0>         0.1374
      6 C6          2.4433    5.4908   -0.3892 C.ar      1 <0>        -0.1601
      7 N1          1.1626    3.4831    0.0092 N.pl3     1 <0>        -0.6742
      8 C7          1.1781    2.0861   -0.0009 C.ar      1 <0>         0.2457
      9 C8          0.1231    1.3741    0.5560 C.ar      1 <0>        -0.1754
     10 C9          0.1414   -0.0067    0.5438 C.ar      1 <0>        -0.0187
     11 C10         1.2085   -0.6807   -0.0214 C.ar      1 <0>        -0.0907
     12 C11         2.2601    0.0249   -0.5771 C.ar      1 <0>        -0.0138
     13 C12         2.2481    1.4058   -0.5688 C.ar      1 <0>        -0.1596
     14 N2          1.2249   -2.1608   -0.0322 N.pl3     1 <0>         0.0401
     15 O1          0.2992   -2.7837    0.4565 O.2       1 <0>        -0.1790
     16 O2          2.1640   -2.7559   -0.5296 O.3       1 <0>        -0.1710
     17 C13         5.8483    3.7061    1.4269 C.2       1 <0>         0.4870
     18 O3          5.7838    2.5743    1.8633 O.co2     1 <0>        -0.6265
     19 H1          3.6840    7.2050   -0.6826 H         1 <0>         0.1225
     20 H2          5.6578    6.1807    0.3654 H         1 <0>         0.1337
     21 H3          3.4051    2.6047    1.0943 H         1 <0>         0.1312
     22 H4          1.5793    5.9460   -0.8503 H         1 <0>         0.1180
     23 H5          0.3197    3.9593   -0.0517 H         1 <0>         0.4120
     24 H6         -0.7125    1.8999    0.9939 H         1 <0>         0.1455
     25 H7         -0.6784   -0.5608    0.9766 H         1 <0>         0.1521
     26 H8          3.0919   -0.5046   -1.0177 H         1 <0>         0.1548
     27 H9          3.0696    1.9562   -1.0029 H         1 <0>         0.1513
     28 O4          7.0002    4.3985    1.5183 O.co2     1 <0>        -0.7488
@<TRIPOS>BOND
     1    1    6 ar
     2    1    2 ar
     3    1   19 1
     4    2    3 ar
     5    2   20 1
     6    3    4 ar
     7    3   17 1
     8    4    5 ar
     9    4   21 1
    10    5    6 ar
    11    5    7 1
    12    6   22 1
    13    7    8 1
    14    7   23 1
    15    8   13 ar
    16    8    9 ar
    17    9   10 ar
    18    9   24 1
    19   10   11 ar
    20   10   25 1
    21   11   12 ar
    22   11   14 1
    23   12   13 ar
    24   12   26 1
    25   13   27 1
    26   14   15 2
    27   14   16 1
    28   17   18 2
    29   17   28 1
@<TRIPOS>MOLECULE
ZINC38340145
   31    32     0     0     0
SMALL
USER_CHARGES

@<TRIPOS>ATOM
      1 C1          0.0525    1.4147   -0.2473 C.3       1 <0>        -0.2007
      2 C2          0.0475   -0.0917   -0.2054 C.2       1 <0>         0.4000
      3 O1          1.0955   -0.7024   -0.2230 O.2       1 <0>        -0.4759
      4 C3         -1.2251   -0.8198   -0.1432 C.ar      1 <0>        -0.2355
      5 C4         -2.4369   -0.1165   -0.1286 C.ar      1 <0>        -0.0291
      6 C5         -3.6188   -0.7978   -0.0712 C.ar      1 <0>        -0.1906
      7 C6         -3.6209   -2.1904   -0.0267 C.ar      1 <0>         0.2410
      8 C7         -2.4182   -2.8937   -0.0405 C.ar      1 <0>        -0.1993
      9 C8         -1.2321   -2.2204   -0.1041 C.ar      1 <0>        -0.0168
     10 N1         -4.8258   -2.8797    0.0322 N.pl3     1 <0>        -0.6741
     11 C9         -5.9910   -2.2943   -0.4704 C.ar      1 <0>         0.1350
     12 C10        -5.9227   -1.4360   -1.5624 C.ar      1 <0>        -0.1602
     13 C11        -7.0719   -0.8541   -2.0636 C.ar      1 <0>        -0.1128
     14 C12        -8.2955   -1.1203   -1.4839 C.ar      1 <0>        -0.1042
     15 C13        -8.3758   -1.9811   -0.3863 C.ar      1 <0>        -0.1058
     16 C14        -7.2155   -2.5736    0.1161 C.ar      1 <0>        -0.1147
     17 C15        -9.6827   -2.2673    0.2363 C.2       1 <0>         0.5193
     18 O2        -10.6980   -1.7507   -0.2084 O.co2     1 <0>        -0.6835
     19 O3         -9.7504   -3.0211    1.1968 O.co2     1 <0>        -0.6856
     20 H1          1.0808    1.7736   -0.2912 H         1 <0>         0.0805
     21 H2         -0.4892    1.7554   -1.1297 H         1 <0>         0.0918
     22 H3         -0.4305    1.8047    0.6486 H         1 <0>         0.0919
     23 H4         -2.4361    0.9630   -0.1623 H         1 <0>         0.1306
     24 H5         -4.5533   -0.2565   -0.0599 H         1 <0>         0.1359
     25 H6         -2.4243   -3.9731   -0.0056 H         1 <0>         0.1277
     26 H7         -0.3004   -2.7664   -0.1197 H         1 <0>         0.1307
     27 H8         -4.8582   -3.7673    0.4220 H         1 <0>         0.4108
     28 H9         -4.9681   -1.2229   -2.0203 H         1 <0>         0.1178
     29 H10        -7.0119   -0.1884   -2.9120 H         1 <0>         0.1188
     30 H11        -9.1909   -0.6630   -1.8782 H         1 <0>         0.1282
     31 H12        -7.2713   -3.2434    0.9615 H         1 <0>         0.1289
@<TRIPOS>BOND
     1    1    2 1
     2    1   20 1
     3    1   21 1
     4    1   22 1
     5    2    3 2
     6    2    4 1
     7    4    9 ar
     8    4    5 ar
     9    5    6 ar
    10    5   23 1
    11    6    7 ar
    12    6   24 1
    13    7    8 ar
    14    7   10 1
    15    8    9 ar
    16    8   25 1
    17    9   26 1
    18   10   11 1
    19   10   27 1
    20   11   16 ar
    21   11   12 ar
    22   12   13 ar
    23   12   28 1
    24   13   14 ar
    25   13   29 1
    26   14   15 ar
    27   14   30 1
    28   15   16 ar
    29   15   17 1
    30   16   31 1
    31   17   18 2
    32   17   19 1
@<TRIPOS>MOLECULE
ZINC54186689
   29    30     0     0     0
SMALL
USER_CHARGES

@<TRIPOS>ATOM
      1 C1          2.2368    1.3792   -0.7368 C.ar      1 <0>        -0.1085
      2 C2          1.1911    2.0865   -0.1796 C.ar      1 <0>        -0.1117
      3 C3          0.1397    1.4064    0.4401 C.ar      1 <0>        -0.1019
      4 C4          0.1523    0.0111    0.4927 C.ar      1 <0>        -0.1258
      5 C5          1.2078   -0.6891   -0.0704 C.ar      1 <0>         0.1455
      6 C6          2.2491   -0.0019   -0.6847 C.ar      1 <0>        -0.1701
      7 N1          1.2256   -2.0856   -0.0207 N.pl3     1 <0>        -0.6834
      8 C7          0.0278   -2.7958    0.0924 C.ar      1 <0>         0.2233
      9 C8         -1.1324   -2.3015   -0.4903 C.ar      1 <0>        -0.1577
     10 C9         -2.3146   -3.0063   -0.3770 C.ar      1 <0>        -0.0316
     11 C10        -2.3443   -4.2030    0.3155 C.ar      1 <0>        -0.2285
     12 C11        -1.1912   -4.6980    0.8968 C.ar      1 <0>        -0.0379
     13 C12        -0.0045   -4.0009    0.7829 C.ar      1 <0>        -0.1760
     14 C13        -3.6363   -4.9691    0.4375 C.3       1 <0>         0.5127
     15 F1         -3.7552   -5.8569   -0.6372 F         1 <0>        -0.1824
     16 F2         -3.6412   -5.6870    1.6382 F         1 <0>        -0.1813
     17 F3         -4.7118   -4.0746    0.4246 F         1 <0>        -0.1770
     18 C14        -0.9797    2.1598    1.0373 C.2       1 <0>         0.5184
     19 O1         -0.9883    3.3818    0.9904 O.co2     1 <0>        -0.6847
     20 O2         -1.8988    1.5623    1.5792 O.co2     1 <0>        -0.6827
     21 H1          3.0463    1.9067   -1.2194 H         1 <0>         0.1180
     22 H2          1.1856    3.1657   -0.2222 H         1 <0>         0.1273
     23 H3         -0.6572   -0.5206    0.9706 H         1 <0>         0.1316
     24 H4          3.0704   -0.5495   -1.1230 H         1 <0>         0.1143
     25 H5          2.0695   -2.5618   -0.0647 H         1 <0>         0.4074
     26 H6         -1.1100   -1.3668   -1.0310 H         1 <0>         0.1396
     27 H7         -3.2170   -2.6224   -0.8294 H         1 <0>         0.1367
     28 H8         -1.2179   -5.6328    1.4369 H         1 <0>         0.1336
     29 H9          0.8965   -4.3901    1.2335 H         1 <0>         0.1325
@<TRIPOS>BOND
     1    1    6 ar
     2    1    2 ar
     3    1   21 1
     4    2    3 ar
     5    2   22 1
     6    3    4 ar
     7    3   18 1
     8    4    5 ar
     9    4   23 1
    10    5    6 ar
    11    5    7 1
    12    6   24 1
    13    7    8 1
    14    7   25 1
    15    8   13 ar
    16    8    9 ar
    17    9   10 ar
    18    9   26 1
    19   10   11 ar
    20   10   27 1
    21   11   12 ar
    22   11   14 1
    23   12   13 ar
    24   12   28 1
    25   13   29 1
    26   14   15 1
    27   14   16 1
    28   14   17 1
    29   18   19 2
    30   18   20 1
@<TRIPOS>MOLECULE
ZINC66078766
   26    27     0     0     0
SMALL
USER_CHARGES

@<TRIPOS>ATOM
      1 C1          2.2371    1.3796   -0.7357 C.ar      1 <0>        -0.1082
      2 C2          1.1915    2.0866   -0.1780 C.ar      1 <0>        -0.1144
      3 C3          0.1400    1.4063    0.4414 C.ar      1 <0>        -0.1018
      4 C4          0.1524    0.0110    0.4930 C.ar      1 <0>        -0.1275
      5 C5          1.2078   -0.6890   -0.0706 C.ar      1 <0>         0.1503
      6 C6          2.2492   -0.0016   -0.6845 C.ar      1 <0>        -0.1732
      7 N1          1.2256   -2.0855   -0.0214 N.pl3     1 <0>        -0.6862
      8 C7          0.0273   -2.7961    0.0918 C.ar      1 <0>         0.1954
      9 C8         -1.1328   -2.3013   -0.4905 C.ar      1 <0>        -0.1426
     10 C9         -2.3153   -3.0055   -0.3771 C.ar      1 <0>        -0.0715
     11 C10        -2.3454   -4.2029    0.3162 C.ar      1 <0>        -0.0724
     12 C11        -1.1913   -4.6980    0.8977 C.ar      1 <0>        -0.0791
     13 C12        -0.0045   -4.0013    0.7818 C.ar      1 <0>        -0.1620
     14 Cl1        -3.8338   -5.0851    0.4573 Cl        1 <0>        -0.0832
     15 C13        -0.9793    2.1595    1.0391 C.2       1 <0>         0.5185
     16 O1         -0.9877    3.3815    0.9929 O.co2     1 <0>        -0.6854
     17 O2         -1.8985    1.5617    1.5806 O.co2     1 <0>        -0.6834
     18 H1          3.0467    1.9072   -1.2178 H         1 <0>         0.1171
     19 H2          1.1862    3.1658   -0.2199 H         1 <0>         0.1265
     20 H3         -0.6572   -0.5209    0.9706 H         1 <0>         0.1312
     21 H4          3.0703   -0.5491   -1.1232 H         1 <0>         0.1134
     22 H5          2.0695   -2.5617   -0.0657 H         1 <0>         0.4055
     23 H6         -1.1101   -1.3666   -1.0310 H         1 <0>         0.1372
     24 H7         -3.2176   -2.6213   -0.8295 H         1 <0>         0.1346
     25 H8         -1.2178   -5.6325    1.4384 H         1 <0>         0.1313
     26 H9          0.8969   -4.3906    1.2317 H         1 <0>         0.1298
@<TRIPOS>BOND
     1    1    6 ar
     2    1    2 ar
     3    1   18 1
     4    2    3 ar
     5    2   19 1
     6    3    4 ar
     7    3   15 1
     8    4    5 ar
     9    4   20 1
    10    5    6 ar
    11    5    7 1
    12    6   21 1
    13    7    8 1
    14    7   22 1
    15    8   13 ar
    16    8    9 ar
    17    9   10 ar
    18    9   23 1
    19   10   11 ar
    20   10   24 1
    21   11   12 ar
    22   11   14 1
    23   12   13 ar
    24   12   25 1
    25   13   26 1
    26   15   16 2
    27   15   17 1
@<TRIPOS>MOLECULE
ZINC34546938
   30    31     0     0     0
SMALL
USER_CHARGES

@<TRIPOS>ATOM
      1 C1          0.0494    1.2522    0.8712 C.3       1 <0>         0.0297
      2 O1          0.0079   -0.0221    0.2258 O.3       1 <0>        -0.3220
      3 C2         -1.1967   -0.6514    0.1789 C.ar      1 <0>         0.0766
      4 C3         -2.3149   -0.0504    0.7378 C.ar      1 <0>        -0.1699
      5 C4         -3.5386   -0.6887    0.6906 C.ar      1 <0>        -0.1422
      6 C5         -3.6494   -1.9328    0.0833 C.ar      1 <0>         0.1685
      7 C6         -2.5293   -2.5337   -0.4761 C.ar      1 <0>        -0.1314
      8 C7         -1.3076   -1.8914   -0.4330 C.ar      1 <0>        -0.1114
      9 N1         -4.8891   -2.5807    0.0353 N.pl3     1 <0>        -0.6864
     10 C8         -4.9462   -3.9727   -0.0713 C.ar      1 <0>         0.1482
     11 C9         -3.9597   -4.7563    0.5177 C.ar      1 <0>        -0.1671
     12 C10        -4.0112   -6.1337    0.4154 C.ar      1 <0>        -0.1115
     13 C11        -5.0418   -6.7416   -0.2720 C.ar      1 <0>        -0.1109
     14 C12        -6.0383   -5.9642   -0.8677 C.ar      1 <0>        -0.1046
     15 C13        -5.9892   -4.5729   -0.7594 C.ar      1 <0>        -0.1217
     16 C14        -7.1413   -6.6112   -1.6039 C.2       1 <0>         0.5193
     17 O2         -7.1845   -7.8301   -1.6934 O.co2     1 <0>        -0.6850
     18 O3         -8.0123   -5.9286   -2.1244 O.co2     1 <0>        -0.6869
     19 H1          1.0664    1.6430    0.8386 H         1 <0>         0.0954
     20 H2         -0.6213    1.9414    0.3581 H         1 <0>         0.0519
     21 H3         -0.2652    1.1442    1.9092 H         1 <0>         0.0519
     22 H4         -2.2285    0.9168    1.2104 H         1 <0>         0.1258
     23 H5         -4.4091   -0.2208    1.1262 H         1 <0>         0.1241
     24 H6         -2.6144   -3.5013   -0.9484 H         1 <0>         0.1369
     25 H7         -0.4373   -2.3564   -0.8721 H         1 <0>         0.1302
     26 H8         -5.7086   -2.0634    0.0762 H         1 <0>         0.4067
     27 H9         -3.1502   -4.2867    1.0568 H         1 <0>         0.1162
     28 H10        -3.2417   -6.7364    0.8748 H         1 <0>         0.1166
     29 H11        -5.0780   -7.8182   -0.3498 H         1 <0>         0.1262
     30 H12        -6.7587   -3.9665   -1.2138 H         1 <0>         0.1270
@<TRIPOS>BOND
     1    1    2 1
     2    1   19 1
     3    1   20 1
     4    1   21 1
     5    2    3 1
     6    3    8 ar
     7    3    4 ar
     8    4    5 ar
     9    4   22 1
    10    5    6 ar
    11    5   23 1
    12    6    7 ar
    13    6    9 1
    14    7    8 ar
    15    7   24 1
    16    8   25 1
    17    9   10 1
    18    9   26 1
    19   10   15 ar
    20   10   11 ar
    21   11   12 ar
    22   11   27 1
    23   12   13 ar
    24   12   28 1
    25   13   14 ar
    26   13   29 1
    27   14   15 ar
    28   14   16 1
    29   15   30 1
    30   16   17 2
    31   16   18 1
@<TRIPOS>MOLECULE
ZINC00086535
   29    30     0     0     0
SMALL
USER_CHARGES

@<TRIPOS>ATOM
      1 C1         -0.0159    1.3650   -0.0977 C.ar      1 <0>        -0.1367
      2 C2          0.4840    0.9327    1.1215 C.ar      1 <0>        -0.1228
      3 C3          1.6944    0.2747    1.1872 C.ar      1 <0>        -0.1392
      4 C4          2.4234    0.0398    0.0274 C.ar      1 <0>         0.1610
      5 C5          1.9199    0.4764   -1.2099 C.ar      1 <0>        -0.1351
      6 C6          0.6903    1.1425   -1.2582 C.ar      1 <0>        -0.0822
      7 C7          2.6802    0.2355   -2.4452 C.2       1 <0>         0.5173
      8 O1          2.2828    0.6944   -3.5076 O.co2     1 <0>        -0.6905
      9 O2          3.7104   -0.4240   -2.4107 O.co2     1 <0>        -0.6662
     10 N1          3.6417   -0.6217    0.0908 N.pl3     1 <0>        -0.6664
     11 C8          4.8344    0.1003   -0.0019 C.ar      1 <0>         0.2697
     12 C9          4.8071    1.4892   -0.0308 C.ar      1 <0>        -0.1547
     13 C10         5.9875    2.1996   -0.1225 C.ar      1 <0>        -0.0764
     14 C11         7.1962    1.5302   -0.1857 C.ar      1 <0>        -0.1473
     15 C12         7.2270    0.1481   -0.1572 C.ar      1 <0>        -0.1404
     16 C13         6.0503   -0.5686   -0.0598 C.ar      1 <0>        -0.1391
     17 C14         8.5464   -0.5769   -0.2263 C.3       1 <0>         0.5096
     18 F1          9.5864    0.3547   -0.3139 F         1 <0>        -0.1815
     19 F2          8.7122   -1.3541    0.9250 F         1 <0>        -0.1825
     20 F3          8.5653   -1.4043   -1.3542 F         1 <0>        -0.1765
     21 H1         -0.9669    1.8753   -0.1374 H         1 <0>         0.1161
     22 H2         -0.0781    1.1129    2.0259 H         1 <0>         0.1163
     23 H3          2.0762   -0.0582    2.1410 H         1 <0>         0.1176
     24 H4          0.2956    1.4812   -2.2048 H         1 <0>         0.1284
     25 H5          3.6653   -1.5853    0.1995 H         1 <0>         0.4037
     26 H6          3.8636    2.0125    0.0182 H         1 <0>         0.1210
     27 H7          5.9670    3.2792   -0.1453 H         1 <0>         0.1255
     28 H8          8.1181    2.0883   -0.2577 H         1 <0>         0.1265
     29 H9          6.0754   -1.6479   -0.0327 H         1 <0>         0.1247
@<TRIPOS>BOND
     1    1    6 ar
     2    1    2 ar
     3    1   21 1
     4    2    3 ar
     5    2   22 1
     6    3    4 ar
     7    3   23 1
     8    4    5 ar
     9    4   10 1
    10    5    6 ar
    11    5    7 1
    12    6   24 1
    13    7    8 2
    14    7    9 1
    15   10   11 1
    16   10   25 1
    17   11   16 ar
    18   11   12 ar
    19   12   13 ar
    20   12   26 1
    21   13   14 ar
    22   13   27 1
    23   14   15 ar
    24   14   28 1
    25   15   16 ar
    26   15   17 1
    27   16   29 1
    28   17   18 1
    29   17   19 1
    30   17   20 1
@<TRIPOS>MOLECULE
ZINC00154642
   26    27     0     0     0
SMALL
USER_CHARGES

@<TRIPOS>ATOM
      1 C1          4.6565    1.3964   -3.5805 C.ar      1 <0>        -0.1946
      2 C2          4.3142    2.1018   -2.4413 C.ar      1 <0>        -0.0798
      3 C3          3.9708    1.4269   -1.2865 C.ar      1 <0>        -0.1965
      4 C4          3.9694    0.0378   -1.2700 C.ar      1 <0>         0.2654
      5 C5          4.3137   -0.6677   -2.4162 C.ar      1 <0>        -0.1778
      6 C6          4.6562    0.0136   -3.5676 C.ar      1 <0>        -0.0779
      7 N1          3.6229   -0.6483   -0.1031 N.pl3     1 <0>        -0.6717
      8 C7          3.5428   -2.0338   -0.1106 C.ar      1 <0>         0.1664
      9 C8          2.3046   -2.6619   -0.1755 C.ar      1 <0>        -0.1404
     10 C9          2.2277   -4.0390   -0.1827 C.ar      1 <0>        -0.1235
     11 C10         3.3804   -4.8079   -0.1251 C.ar      1 <0>        -0.1391
     12 C11         4.6166   -4.2055   -0.0599 C.ar      1 <0>        -0.0833
     13 C12         4.7134   -2.8096   -0.0583 C.ar      1 <0>        -0.1371
     14 C13         6.0305   -2.1590    0.0045 C.2       1 <0>         0.5183
     15 O1          7.0496   -2.8320   -0.0716 O.co2     1 <0>        -0.6933
     16 O2          6.1075   -0.9446    0.1329 O.co2     1 <0>        -0.6654
     17 H1          4.9203    1.9267   -4.4836 H         1 <0>         0.1085
     18 H2          4.3158    3.1817   -2.4547 H         1 <0>         0.1118
     19 H3          3.7039    1.9784   -0.3970 H         1 <0>         0.1124
     20 H4          4.3140   -1.7477   -2.4066 H         1 <0>         0.1113
     21 H5          4.9237   -0.5342   -4.4591 H         1 <0>         0.1112
     22 H6          3.4383   -0.1563    0.7122 H         1 <0>         0.4011
     23 H7          1.4017   -2.0710   -0.2199 H         1 <0>         0.1163
     24 H8          1.2630   -4.5219   -0.2333 H         1 <0>         0.1153
     25 H9          3.3079   -5.8854   -0.1310 H         1 <0>         0.1152
     26 H10         5.5107   -4.8096   -0.0148 H         1 <0>         0.1273
@<TRIPOS>BOND
     1    1    6 ar
     2    1    2 ar
     3    1   17 1
     4    2    3 ar
     5    2   18 1
     6    3    4 ar
     7    3   19 1
     8    4    5 ar
     9    4    7 1
    10    5    6 ar
    11    5   20 1
    12    6   21 1
    13    7    8 1
    14    7   22 1
    15    8   13 ar
    16    8    9 ar
    17    9   10 ar
    18    9   23 1
    19   10   11 ar
    20   10   24 1
    21   11   12 ar
    22   11   25 1
    23   12   13 ar
    24   12   26 1
    25   13   14 1
    26   14   15 2
    27   14   16 1
@<TRIPOS>MOLECULE
ZINC01701218
   25    26     0     0     0
SMALL
USER_CHARGES
3-bromo-2-hydroxy-5-phenyl-benzoic acid
@<TRIPOS>ATOM
      1 C1          1.2078   -0.6819   -0.0127 C.ar      1 <0>        -0.1281
      2 C2          0.0021   -0.0041    0.0020 C.ar      1 <0>        -0.1198
      3 C3         -0.0166    1.3760    0.0096 C.ar      1 <0>        -0.1171
      4 C4          1.1820    2.0864    0.0020 C.ar      1 <0>        -0.0276
      5 C5          2.3937    1.3985   -0.0133 C.ar      1 <0>        -0.1110
      6 C6          2.4006    0.0184   -0.0203 C.ar      1 <0>        -0.1157
      7 C7          1.1682    3.5702    0.0096 C.ar      1 <0>        -0.0802
      8 C8          2.3653    4.2754    0.0019 C.ar      1 <0>        -0.0344
      9 C9          2.3482    5.6707    0.0087 C.ar      1 <0>        -0.1344
     10 C10         1.1218    6.3512    0.0231 C.ar      1 <0>         0.1736
     11 C11        -0.0677    5.6352    0.0306 C.ar      1 <0>        -0.1343
     12 C12        -0.0476    4.2562    0.0186 C.ar      1 <0>        -0.0691
     13 Br1        -1.7206    6.5536    0.0501 Br        1 <0>        -0.0547
     14 O1          1.0979    7.7074    0.0302 O.3       1 <0>        -0.4621
     15 C13         3.6140    6.4264    0.0011 C.2       1 <0>         0.4912
     16 O2          3.5962    7.6414    0.0070 O.co2     1 <0>        -0.6090
     17 H1          1.2178   -1.7618   -0.0179 H         1 <0>         0.1188
     18 H2         -0.9264   -0.5558    0.0079 H         1 <0>         0.1205
     19 H3         -0.9586    1.9042    0.0169 H         1 <0>         0.1233
     20 H4          3.3256    1.9442   -0.0189 H         1 <0>         0.1322
     21 H5          3.3392   -0.5159   -0.0314 H         1 <0>         0.1232
     22 H6          3.3062    3.7453   -0.0095 H         1 <0>         0.1445
     23 H7         -0.9762    3.7047    0.0200 H         1 <0>         0.1323
     24 H8          1.0831    8.1051   -0.8511 H         1 <0>         0.3901
     25 O3          4.7906    5.7699   -0.0123 O.co2     1 <0>        -0.7524
@<TRIPOS>BOND
     1    1    6 ar
     2    1    2 ar
     3    1   17 1
     4    2    3 ar
     5    2   18 1
     6    3    4 ar
     7    3   19 1
     8    4    5 ar
     9    4    7 1
    10    5    6 ar
    11    5   20 1
    12    6   21 1
    13    7   12 ar
    14    7    8 ar
    15    8    9 ar
    16    8   22 1
    17    9   10 ar
    18    9   15 1
    19   10   11 ar
    20   10   14 1
    21   11   12 ar
    22   11   13 1
    23   12   23 1
    24   14   24 1
    25   15   16 2
    26   15   25 1
@<TRIPOS>MOLECULE
ZINC00284966
   25    26     0     0     0
SMALL
USER_CHARGES
3-phenoxybenzoic acid
@<TRIPOS>ATOM
      1 C1          1.6470    1.2175    3.5826 C.ar      1 <0>        -0.1616
      2 C2          2.2509    1.5700    2.3897 C.ar      1 <0>        -0.0868
      3 C3          1.7022    1.1623    1.1894 C.ar      1 <0>        -0.1528
      4 C4          0.5441    0.3979    1.1814 C.ar      1 <0>         0.1293
      5 C5         -0.0626    0.0496    2.3797 C.ar      1 <0>        -0.1915
      6 C6          0.4929    0.4559    3.5775 C.ar      1 <0>        -0.0818
      7 O1          0.0021   -0.0041    0.0020 O.3       1 <0>        -0.2577
      8 C7         -1.1375   -0.7433    0.0427 C.ar      1 <0>         0.0543
      9 C8         -2.3749   -0.1131    0.0206 C.ar      1 <0>        -0.1286
     10 C9         -3.5376   -0.8598    0.0622 C.ar      1 <0>        -0.1271
     11 C10        -3.4766   -2.2370    0.1251 C.ar      1 <0>        -0.0723
     12 C11        -2.2374   -2.8798    0.1473 C.ar      1 <0>        -0.1011
     13 C12        -1.0644   -2.1249    0.1004 C.ar      1 <0>        -0.0882
     14 C13        -2.1680   -4.3541    0.2141 C.2       1 <0>         0.4895
     15 O2         -1.0887   -4.9111    0.2333 O.co2     1 <0>        -0.6264
     16 H1          2.0772    1.5379    4.5200 H         1 <0>         0.1211
     17 H2          3.1522    2.1650    2.3965 H         1 <0>         0.1268
     18 H3          2.1739    1.4385    0.2580 H         1 <0>         0.1296
     19 H4         -0.9662   -0.5419    2.3761 H         1 <0>         0.1308
     20 H5          0.0230    0.1822    4.5105 H         1 <0>         0.1238
     21 H6         -2.4290    0.9644   -0.0289 H         1 <0>         0.1227
     22 H7         -4.4968   -0.3637    0.0450 H         1 <0>         0.1259
     23 H8         -4.3869   -2.8172    0.1567 H         1 <0>         0.1371
     24 H9         -0.1029   -2.6164    0.1132 H         1 <0>         0.1346
     25 O3         -3.3017   -5.0806    0.2536 O.co2     1 <0>        -0.7496
@<TRIPOS>BOND
     1    1    6 ar
     2    1    2 ar
     3    1   16 1
     4    2    3 ar
     5    2   17 1
     6    3    4 ar
     7    3   18 1
     8    4    5 ar
     9    4    7 1
    10    5    6 ar
    11    5   19 1
    12    6   20 1
    13    7    8 1
    14    8   13 ar
    15    8    9 ar
    16    9   10 ar
    17    9   21 1
    18   10   11 ar
    19   10   22 1
    20   11   12 ar
    21   11   23 1
    22   12   13 ar
    23   12   14 1
    24   13   24 1
    25   14   15 2
    26   14   25 1
