@<TRIPOS>MOLECULE
ZINC02043204
   48    50     0     0     0
SMALL
USER_CHARGES

@<TRIPOS>ATOM
      1 C1          2.5162    0.9496    1.4171 C.ar      1 <0>        -0.1558
      2 C2          1.8179    1.8754    0.7027 C.ar      1 <0>        -0.0089
      3 C3          0.8924    1.4496   -0.2625 C.ar      1 <0>        -0.1400
      4 C4          0.1441    2.3570   -1.0300 C.ar      1 <0>         0.1716
      5 N1         -0.7096    1.9109   -1.9214 N.ar      1 <0>        -0.4887
      6 C5         -0.9082    0.6184   -2.1416 C.ar      1 <0>         0.1175
      7 C6         -0.2327   -0.3410   -1.4505 C.ar      1 <0>        -0.1972
      8 C7          0.7007    0.0595   -0.4769 C.ar      1 <0>         0.0581
      9 C8          1.4373   -0.8645    0.2774 C.ar      1 <0>        -0.6935
     10 C9          2.3271   -0.4146    1.2059 C.ar      1 <0>         0.0350
     11 S1          1.2137   -2.5943    0.0269 S.o2      1 <0>         2.6977
     12 O1          2.1244   -3.2517    0.8974 O.2       1 <0>        -0.9448
     13 O2         -0.1865   -2.8329    0.0680 O.2       1 <0>        -0.9312
     14 N2          1.7064   -2.9332   -1.5173 N.pl3     1 <0>        -1.1162
     15 C10         3.1062   -2.7326   -1.9002 C.3       1 <0>         0.0916
     16 C11         3.3893   -3.4769   -3.2066 C.3       1 <0>        -0.0177
     17 N3          4.7929   -3.2757   -3.5905 N.4       1 <0>        -0.5066
     18 C12         5.0647   -3.9903   -4.8449 C.3       1 <0>         0.0395
     19 C13         6.5046   -3.7840   -5.2387 C.2       1 <0>        -0.2534
     20 C14         7.2882   -4.8305   -5.4586 C.2       1 <0>        -0.0124
     21 C15         8.7005   -4.6281   -5.8449 C.ar      1 <0>        -0.0865
     22 C16         9.2134   -3.3367   -5.9733 C.ar      1 <0>        -0.0932
     23 C17        10.5324   -3.1541   -6.3336 C.ar      1 <0>        -0.0930
     24 C18        11.3467   -4.2489   -6.5682 C.ar      1 <0>        -0.0711
     25 C19        10.8435   -5.5324   -6.4424 C.ar      1 <0>        -0.0912
     26 C20         9.5277   -5.7277   -6.0770 C.ar      1 <0>        -0.0822
     27 Br1        13.1533   -3.9899   -7.0630 Br        1 <0>        -0.0276
     28 H1          3.2315    1.2784    2.1565 H         1 <0>         0.1450
     29 H2          1.9750    2.9294    0.8779 H         1 <0>         0.1486
     30 H3          0.2706    3.4199   -0.8866 H         1 <0>         0.1731
     31 H4         -1.6264    0.3180   -2.8902 H         1 <0>         0.1633
     32 H5         -0.4102   -1.3883   -1.6456 H         1 <0>         0.1411
     33 H6          2.8949   -1.1263    1.7868 H         1 <0>         0.1512
     34 H7          1.0683   -3.2645   -2.1683 H         1 <0>         0.4272
     35 H8          3.2957   -1.6683   -2.0399 H         1 <0>         0.0890
     36 H9          3.7565   -3.1173   -1.1145 H         1 <0>         0.1050
     37 H10         3.1998   -4.5411   -3.0669 H         1 <0>         0.1445
     38 H11         2.7390   -3.0921   -3.9922 H         1 <0>         0.1424
     39 H12         4.9683   -2.2905   -3.7199 H         1 <0>         0.4308
     40 H13         4.8752   -5.0546   -4.7051 H         1 <0>         0.1348
     41 H14         4.4144   -3.6056   -5.6305 H         1 <0>         0.1403
     42 H15         6.8982   -2.7835   -5.3419 H         1 <0>         0.1396
     43 H16         6.8946   -5.8309   -5.3555 H         1 <0>         0.1348
     44 H17         8.5789   -2.4819   -5.7913 H         1 <0>         0.1337
     45 H18        10.9305   -2.1552   -6.4334 H         1 <0>         0.1407
     46 H19        11.4834   -6.3826   -6.6269 H         1 <0>         0.1428
     47 H20         9.1374   -6.7295   -5.9748 H         1 <0>         0.1397
     48 H21         5.3949   -3.6319   -2.8633 H         1 <0>         0.4327
@<TRIPOS>BOND
     1    1   10 ar
     2    1    2 ar
     3    1   28 1
     4    2    3 ar
     5    2   29 1
     6    3    8 ar
     7    3    4 ar
     8    4    5 ar
     9    4   30 1
    10    5    6 ar
    11    6    7 ar
    12    6   31 1
    13    7    8 ar
    14    7   32 1
    15    8    9 ar
    16    9   10 ar
    17    9   11 1
    18   10   33 1
    19   11   12 2
    20   11   13 2
    21   11   14 1
    22   14   15 1
    23   14   34 1
    24   15   16 1
    25   15   35 1
    26   15   36 1
    27   16   17 1
    28   16   37 1
    29   16   38 1
    30   17   18 1
    31   17   39 1
    32   17   48 1
    33   18   19 1
    34   18   40 1
    35   18   41 1
    36   19   20 2
    37   19   42 1
    38   20   21 1
    39   20   43 1
    40   21   26 ar
    41   21   22 ar
    42   22   23 ar
    43   22   44 1
    44   23   24 ar
    45   23   45 1
    46   24   25 ar
    47   24   27 1
    48   25   26 ar
    49   25   46 1
    50   26   47 1
@<TRIPOS>MOLECULE
ZINC36382821
   53    58     0     0     0
SMALL
USER_CHARGES

@<TRIPOS>ATOM
      1 C1         -0.0167    1.3792    0.0096 C.ar      1 <0>        -0.1098
      2 C2          1.1686    2.0926    0.0021 C.ar      1 <0>        -0.1129
      3 C3          2.3774    1.4273   -0.0130 C.ar      1 <0>        -0.1018
      4 C4          2.4027    0.0331   -0.0207 C.ar      1 <0>        -0.0532
      5 C5          1.2048   -0.6804   -0.0131 C.ar      1 <0>        -0.0972
      6 C6          0.0021   -0.0041    0.0020 C.ar      1 <0>        -0.1217
      7 C7          3.6976   -0.6873   -0.0375 C.ar      1 <0>        -0.0895
      8 C8          4.6832   -0.3453   -0.9637 C.ar      1 <0>        -0.0030
      9 C9          5.8807   -1.0537   -0.9352 C.ar      1 <0>        -0.0817
     10 C10         6.0621   -2.0835    0.0163 C.ar      1 <0>         0.2098
     11 C11         7.3365   -2.8113    0.0182 C.2       1 <0>        -0.1560
     12 C12         8.2922   -2.4985   -0.8622 C.2       1 <0>         0.1454
     13 N1          8.1430   -1.5000   -1.7996 N.am      1 <0>        -0.4929
     14 C13         6.9753   -0.7619   -1.8753 C.2       1 <0>         0.3089
     15 N2          7.0941    0.1108   -2.8403 N.2       1 <0>        -0.2482
     16 N3          8.3615   -0.0506   -3.4156 N.am      1 <0>        -0.5283
     17 H1          8.7252    0.4618   -4.1545 H         1 <0>         0.4679
     18 C14         8.9833   -1.0478   -2.7556 C.2       1 <0>         0.6564
     19 O1         10.1052   -1.4664   -2.9807 O.2       1 <0>        -0.5212
     20 N4          5.0992   -2.3771    0.8804 N.ar      1 <0>        -0.4545
     21 C15         3.9492   -1.7199    0.8843 C.ar      1 <0>         0.1979
     22 C16         2.9074   -2.0823    1.8731 C.ar      1 <0>        -0.0255
     23 C17         2.0785   -1.0974    2.4096 C.ar      1 <0>        -0.0664
     24 C18         1.1099   -1.4411    3.3303 C.ar      1 <0>        -0.1341
     25 C19         0.9603   -2.7596    3.7214 C.ar      1 <0>        -0.1011
     26 C20         1.7795   -3.7411    3.1928 C.ar      1 <0>        -0.0980
     27 C21         2.7478   -3.4106    2.2670 C.ar      1 <0>        -0.0610
     28 C22        -0.0992   -3.1282    4.7278 C.3       1 <0>         0.0637
     29 C23         0.4698   -3.6059    6.0743 C.3       1 <0>        -0.1268
     30 C24        -0.6447   -4.6656    6.0798 C.3       1 <0>        -0.1586
     31 C25        -0.6528   -4.5514    4.5462 C.3       1 <0>        -0.1320
     32 N5         -1.1431   -2.1030    4.8585 N.4       1 <0>        -0.6175
     33 H2         -0.9603    1.9042    0.0260 H         1 <0>         0.1263
     34 H3          1.1477    3.1723    0.0078 H         1 <0>         0.1304
     35 H4          3.3021    1.9852   -0.0192 H         1 <0>         0.1293
     36 H5          1.2182   -1.7603   -0.0191 H         1 <0>         0.1222
     37 H6         -0.9264   -0.5557    0.0083 H         1 <0>         0.1241
     38 H7          4.5215    0.4452   -1.6816 H         1 <0>         0.1595
     39 H8          7.5029   -3.6026    0.7341 H         1 <0>         0.1729
     40 H9          9.2198   -3.0510   -0.8374 H         1 <0>         0.1807
     41 H10         2.1946   -0.0677    2.1053 H         1 <0>         0.1437
     42 H11         0.4676   -0.6792    3.7467 H         1 <0>         0.1184
     43 H12         1.6579   -4.7688    3.5020 H         1 <0>         0.1392
     44 H13         3.3839   -4.1783    1.8517 H         1 <0>         0.1450
     45 H14         1.4723   -4.0271    5.9999 H         1 <0>         0.1262
     46 H15         0.3768   -2.8703    6.8732 H         1 <0>         0.0946
     47 H16        -0.3188   -5.6401    6.4433 H         1 <0>         0.1018
     48 H17        -1.5684   -4.3253    6.5478 H         1 <0>         0.0931
     49 H18        -1.6520   -4.5791    4.1116 H         1 <0>         0.0957
     50 H19         0.0429   -5.2310    4.0541 H         1 <0>         0.1275
     51 H20        -1.7011   -2.0821    4.0181 H         1 <0>         0.4388
     52 H21        -1.7322   -2.3215    5.6481 H         1 <0>         0.4379
     53 H22        -0.7131   -1.2011    4.9992 H         1 <0>         0.4354
@<TRIPOS>BOND
     1    1    6 ar
     2    1    2 ar
     3    1   33 1
     4    2    3 ar
     5    2   34 1
     6    3    4 ar
     7    3   35 1
     8    4    5 ar
     9    4    7 1
    10    5    6 ar
    11    5   36 1
    12    6   37 1
    13    7   21 ar
    14    7    8 ar
    15    8    9 ar
    16    8   38 1
    17    9   14 1
    18    9   10 ar
    19   10   11 1
    20   10   20 ar
    21   11   12 2
    22   11   39 1
    23   12   13 1
    24   12   40 1
    25   13   18 am
    26   13   14 1
    27   14   15 2
    28   15   16 1
    29   16   17 1
    30   16   18 am
    31   18   19 2
    32   20   21 ar
    33   21   22 1
    34   22   27 ar
    35   22   23 ar
    36   23   24 ar
    37   23   41 1
    38   24   25 ar
    39   24   42 1
    40   25   26 ar
    41   25   28 1
    42   26   27 ar
    43   26   43 1
    44   27   44 1
    45   28   31 1
    46   28   29 1
    47   28   32 1
    48   29   30 1
    49   29   45 1
    50   29   46 1
    51   30   31 1
    52   30   47 1
    53   30   48 1
    54   31   49 1
    55   31   50 1
    56   32   51 1
    57   32   52 1
    58   32   53 1
@<TRIPOS>MOLECULE
ZINC43178353
   52    55     0     0     0
SMALL
USER_CHARGES

@<TRIPOS>ATOM
      1 C1          0.7202   -3.1310   -2.6806 C.3       1 <0>        -0.1540
      2 C2         -0.3986   -3.1799   -3.7231 C.3       1 <0>        -0.0409
      3 C3         -1.7325   -3.2513   -3.0254 C.2       1 <0>        -0.1517
      4 C4         -2.4141   -4.3656   -2.7132 C.2       1 <0>         0.0741
      5 N1         -3.5858   -4.0326   -2.0841 N.pl3     1 <0>        -0.5679
      6 H1         -4.2451   -4.6679   -1.7636 H         1 <0>         0.4298
      7 C5         -3.6885   -2.6731   -1.9744 C.ar      1 <0>         0.3263
      8 C6         -2.5303   -2.1214   -2.5528 C.ar      1 <0>        -0.1938
      9 C7         -2.3831   -0.7262   -2.5647 C.ar      1 <0>         0.4782
     10 N2         -3.3461    0.0146   -2.0240 N.ar      1 <0>        -0.5412
     11 C8         -4.4159   -0.5449   -1.4882 C.ar      1 <0>         0.3335
     12 N3         -4.5996   -1.8473   -1.4623 N.ar      1 <0>        -0.5214
     13 N4         -1.2642   -0.1360   -3.1244 N.pl3     1 <0>        -0.6552
     14 C9         -0.0473    0.2632   -2.3942 C.3       1 <0>         0.1354
     15 C10         1.0732    0.2684   -3.4639 C.3       1 <0>        -0.1473
     16 C11         0.3160    0.8091   -4.7055 C.3       1 <0>         0.0299
     17 C12        -1.0891    0.1912   -4.5470 C.3       1 <0>         0.1338
     18 C13         0.2477    2.3372   -4.6748 C.3       1 <0>         0.1157
     19 N5          1.5959    2.8895   -4.8274 N.am      1 <0>        -0.7500
     20 C14         1.7810    4.2245   -4.8298 C.2       1 <0>         0.5718
     21 O1          0.8290    4.9705   -4.7052 O.2       1 <0>        -0.4908
     22 C15         3.1391    4.7809   -4.9836 C.ar      1 <0>        -0.2021
     23 C16         4.2347    3.9264   -5.1327 C.ar      1 <0>        -0.0306
     24 C17         5.5002    4.4509   -5.2758 C.ar      1 <0>        -0.1714
     25 C18         5.6904    5.8254   -5.2723 C.ar      1 <0>         0.1752
     26 C19         4.6102    6.6796   -5.1251 C.ar      1 <0>        -0.1995
     27 C20         3.3346    6.1662   -4.9864 C.ar      1 <0>         0.2025
     28 F1          2.2802    6.9995   -4.8484 F         1 <0>        -0.0998
     29 F2          6.9346    6.3326   -5.4128 F         1 <0>        -0.1149
     30 N6          0.9496    0.3405   -5.9453 N.4       1 <0>        -0.6284
     31 H2          1.6763   -2.9762   -3.1807 H         1 <0>         0.0545
     32 H3          0.5355   -2.3101   -1.9877 H         1 <0>         0.0567
     33 H4          0.7459   -4.0718   -2.1308 H         1 <0>         0.0621
     34 H5         -0.3592   -2.2826   -4.3407 H         1 <0>         0.0562
     35 H6         -0.2703   -4.0603   -4.3528 H         1 <0>         0.0744
     36 H7         -2.0880   -5.3730   -2.9258 H         1 <0>         0.1855
     37 H8         -5.1744    0.0935   -1.0598 H         1 <0>         0.2071
     38 H9         -0.1699    1.2590   -1.9684 H         1 <0>         0.0754
     39 H10         0.1794   -0.4600   -1.6108 H         1 <0>         0.0899
     40 H11         1.8834    0.9390   -3.1777 H         1 <0>         0.1146
     41 H12         1.4473   -0.7397   -3.6427 H         1 <0>         0.1082
     42 H13        -1.1678   -0.7146   -5.1482 H         1 <0>         0.0814
     43 H14        -1.8459    0.9116   -4.8575 H         1 <0>         0.0933
     44 H15        -0.3837    2.6892   -5.4907 H         1 <0>         0.1049
     45 H16        -0.1729    2.6630   -3.7234 H         1 <0>         0.1238
     46 H17         2.3555    2.2944   -4.9268 H         1 <0>         0.3926
     47 H18         4.0894    2.8562   -5.1353 H         1 <0>         0.1393
     48 H19         6.3470    3.7905   -5.3907 H         1 <0>         0.1551
     49 H20         4.7644    7.7486   -5.1228 H         1 <0>         0.1637
     50 H21         0.9579   -0.6683   -5.9583 H         1 <0>         0.4405
     51 H22         0.4291    0.6828   -6.7391 H         1 <0>         0.4422
     52 H23         1.8968    0.6854   -5.9901 H         1 <0>         0.4335
@<TRIPOS>BOND
     1    1    2 1
     2    1   31 1
     3    1   32 1
     4    1   33 1
     5    2    3 1
     6    2   34 1
     7    2   35 1
     8    3    8 1
     9    3    4 2
    10    4    5 1
    11    4   36 1
    12    5    6 1
    13    5    7 1
    14    7   12 ar
    15    7    8 ar
    16    8    9 ar
    17    9   10 ar
    18    9   13 1
    19   10   11 ar
    20   11   12 ar
    21   11   37 1
    22   13   17 1
    23   13   14 1
    24   14   15 1
    25   14   38 1
    26   14   39 1
    27   15   16 1
    28   15   40 1
    29   15   41 1
    30   16   17 1
    31   16   18 1
    32   16   30 1
    33   17   42 1
    34   17   43 1
    35   18   19 1
    36   18   44 1
    37   18   45 1
    38   19   20 am
    39   19   46 1
    40   20   21 2
    41   20   22 1
    42   22   27 ar
    43   22   23 ar
    44   23   24 ar
    45   23   47 1
    46   24   25 ar
    47   24   48 1
    48   25   26 ar
    49   25   29 1
    50   26   27 ar
    51   26   49 1
    52   27   28 1
    53   30   50 1
    54   30   51 1
    55   30   52 1
@<TRIPOS>MOLECULE
ZINC64744203
   44    47     0     0     0
SMALL
USER_CHARGES

@<TRIPOS>ATOM
      1 C1         -0.0055    1.4955    0.4053 C.3       1 <0>        -0.1666
      2 C2          0.0135   -0.0104    0.3513 C.2       1 <0>         0.5025
      3 O1          1.0712   -0.6032    0.3340 O.2       1 <0>        -0.4720
      4 N1         -1.1451   -0.6983    0.3221 N.am      1 <0>        -0.6203
      5 C3         -1.1277   -2.0825    0.2725 C.2       1 <0>         0.3552
      6 N2         -0.0949   -2.8927    0.2531 N.2       1 <0>        -0.4984
      7 C4         -0.2257   -4.2354    0.2035 C.ar      1 <0>         0.0890
      8 C5          0.7997   -5.2108    0.1777 C.ar      1 <0>        -0.0571
      9 C6          0.5046   -6.5350    0.1263 C.ar      1 <0>        -0.0952
     10 C7         -0.8178   -6.9885    0.0974 C.ar      1 <0>         0.0025
     11 C8         -1.8543   -6.0561    0.1220 C.ar      1 <0>        -0.0583
     12 C9         -1.5546   -4.7198    0.1734 C.ar      1 <0>        -0.1363
     13 S1         -2.5055   -3.2199    0.2263 S.3       1 <0>        -0.0053
     14 C10        -1.1138   -8.4409    0.0408 C.ar      1 <0>        -0.0495
     15 C11        -0.0755   -9.3759    0.0214 C.ar      1 <0>        -0.2045
     16 C12        -0.4055  -10.7247   -0.0319 C.ar      1 <0>         0.2566
     17 C13        -1.7471  -11.0932   -0.0639 C.ar      1 <0>         0.1229
     18 N3         -2.7004  -10.1820   -0.0446 N.ar      1 <0>        -0.4446
     19 C14        -2.4313   -8.8932    0.0120 C.ar      1 <0>         0.0216
     20 Cl1        -2.1716  -12.7752   -0.1306 Cl        1 <0>        -0.0448
     21 N4          0.5971  -11.6987   -0.0537 N.2       1 <0>        -1.0618
     22 S2          2.1861  -11.2488   -0.1759 S.o2      1 <0>         2.6037
     23 O2          2.3229  -10.5748   -1.4194 O.2       1 <0>        -1.0221
     24 O3          2.5327  -10.6422    1.0615 O.2       1 <0>        -1.0212
     25 C15         3.1382  -12.7265   -0.2965 C.ar      1 <0>        -0.6279
     26 C16         3.6074  -13.3412    0.8493 C.ar      1 <0>         0.0065
     27 C17         4.3539  -14.5005    0.7560 C.ar      1 <0>        -0.1789
     28 C18         4.6317  -15.0463   -0.4859 C.ar      1 <0>         0.1347
     29 C19         4.1612  -14.4296   -1.6328 C.ar      1 <0>        -0.1789
     30 C20         3.4105  -13.2733   -1.5367 C.ar      1 <0>         0.0067
     31 F1          5.3617  -16.1793   -0.5784 F         1 <0>        -0.1387
     32 H1          1.0175    1.8714    0.4227 H         1 <0>         0.1008
     33 H2         -0.5205    1.8842   -0.4733 H         1 <0>         0.0946
     34 H3         -0.5273    1.8203    1.3055 H         1 <0>         0.0946
     35 H4         -1.9912   -0.2241    0.3359 H         1 <0>         0.4279
     36 H5          1.8329   -4.8968    0.1988 H         1 <0>         0.1353
     37 H6          1.3097   -7.2546    0.1070 H         1 <0>         0.1393
     38 H7         -2.8832   -6.3837    0.1001 H         1 <0>         0.1410
     39 H8          0.9565   -9.0585    0.0469 H         1 <0>         0.1226
     40 H9         -3.2413   -8.1791    0.0311 H         1 <0>         0.1487
     41 H10         3.3909  -12.9152    1.8178 H         1 <0>         0.1477
     42 H11         4.7207  -14.9804    1.6512 H         1 <0>         0.1402
     43 H12         4.3776  -14.8542   -2.6020 H         1 <0>         0.1402
     44 H13         3.0396  -12.7946   -2.4309 H         1 <0>         0.1477
@<TRIPOS>BOND
     1    1    2 1
     2    1   32 1
     3    1   33 1
     4    1   34 1
     5    2    3 2
     6    2    4 am
     7    4    5 1
     8    4   35 1
     9    5   13 1
    10    5    6 2
    11    6    7 1
    12    7   12 ar
    13    7    8 ar
    14    8    9 ar
    15    8   36 1
    16    9   10 ar
    17    9   37 1
    18   10   11 ar
    19   10   14 1
    20   11   12 ar
    21   11   38 1
    22   12   13 1
    23   14   19 ar
    24   14   15 ar
    25   15   16 ar
    26   15   39 1
    27   16   17 ar
    28   16   21 1
    29   17   18 ar
    30   17   20 1
    31   18   19 ar
    32   19   40 1
    33   21   22 1
    34   22   23 2
    35   22   24 2
    36   22   25 1
    37   25   30 ar
    38   25   26 ar
    39   26   27 ar
    40   26   41 1
    41   27   28 ar
    42   27   42 1
    43   28   29 ar
    44   28   31 1
    45   29   30 ar
    46   29   43 1
    47   30   44 1
@<TRIPOS>MOLECULE
ZINC03814434
   62    69     0     0     0
SMALL
USER_CHARGES

@<TRIPOS>ATOM
      1 C1         -0.1295    1.5952   -0.2973 C.3       1 <0>        -0.1687
      2 C2         -0.0862    0.0696   -0.1900 C.3       1 <0>         0.3342
      3 C3          0.5692   -0.4501   -1.4637 C.3       1 <0>         0.0405
      4 H1          1.4796    0.1159   -1.6612 H         1 <0>         0.1372
      5 C4          0.9167   -1.9328   -1.2889 C.3       1 <0>        -0.0061
      6 H2          1.3963   -2.3075   -2.1932 H         1 <0>         0.1555
      7 C5          1.8785   -2.0596   -0.1021 C.3       1 <0>        -0.1827
      8 C6          1.2061   -1.5198    1.1541 C.3       1 <0>         0.2999
      9 H3          1.9797   -1.4243    1.9161 H         1 <0>         0.1550
     10 O1          0.6555   -0.2442    0.9666 O.3       1 <0>        -0.3234
     11 N1          0.2189   -2.4746    1.6600 N.pl3     1 <0>        -0.5366
     12 C7          0.4705   -3.5508    2.4739 C.ar      1 <0>         0.1469
     13 C8          1.6649   -4.0152    3.0240 C.ar      1 <0>        -0.1522
     14 C9          1.5948   -5.1456    3.8201 C.ar      1 <0>        -0.0582
     15 C10         0.4006   -5.7997    4.0696 C.ar      1 <0>        -0.1457
     16 C11        -0.7984   -5.3597    3.5358 C.ar      1 <0>        -0.0280
     17 C12        -0.7487   -4.2198    2.7307 C.ar      1 <0>        -0.1131
     18 C13        -1.7893   -3.4830    2.0197 C.ar      1 <0>         0.0276
     19 C14        -1.1442   -2.4197    1.3841 C.ar      1 <0>         0.0376
     20 C15        -1.8806   -1.5095    0.6175 C.ar      1 <0>         0.0894
     21 N2         -1.4718   -0.3951   -0.1095 N.pl3     1 <0>        -0.5183
     22 C16        -2.5611    0.1913   -0.7090 C.ar      1 <0>         0.1618
     23 C17        -2.6521    1.3277   -1.5118 C.ar      1 <0>        -0.1305
     24 C18        -3.9109    1.6745   -1.9733 C.ar      1 <0>        -0.0737
     25 C19        -5.0393    0.9368   -1.6616 C.ar      1 <0>        -0.1358
     26 C20        -4.9745   -0.1955   -0.8662 C.ar      1 <0>        -0.0503
     27 C21        -3.7147   -0.5596   -0.3919 C.ar      1 <0>        -0.1042
     28 C22        -3.2693   -1.6660    0.4845 C.ar      1 <0>        -0.0360
     29 C23        -3.9084   -2.7313    1.1102 C.ar      1 <0>        -0.0288
     30 C24        -3.1873   -3.6421    1.8754 C.ar      1 <0>        -0.1255
     31 C25        -4.1221   -4.6480    2.4030 C.2       1 <0>         0.5632
     32 O2         -3.8062   -5.5851    3.1110 O.2       1 <0>        -0.5106
     33 N3         -5.3744   -4.3851    1.9926 N.am      1 <0>        -0.7162
     34 C26        -5.3495   -3.1771    1.1601 C.3       1 <0>         0.1358
     35 N4         -0.3067   -2.7008   -1.0216 N.4       1 <0>        -0.5252
     36 C27         0.0145   -4.1336   -0.9773 C.3       1 <0>        -0.0497
     37 O3         -0.3340   -0.2979   -2.5607 O.3       1 <0>        -0.3614
     38 C28         0.3101   -0.0933   -3.8198 C.3       1 <0>         0.0162
     39 H4          0.8261    2.0094    0.0240 H         1 <0>         0.0984
     40 H5         -0.3202    1.8814   -1.3317 H         1 <0>         0.1036
     41 H6         -0.9255    1.9818    0.3392 H         1 <0>         0.0921
     42 H7          2.1370   -3.1081    0.0458 H         1 <0>         0.1233
     43 H8          2.7835   -1.4869   -0.3048 H         1 <0>         0.1455
     44 H9          2.6036   -3.5149    2.8368 H         1 <0>         0.1365
     45 H10         2.5026   -5.5304    4.2610 H         1 <0>         0.1359
     46 H11         0.4045   -6.6780    4.6980 H         1 <0>         0.1352
     47 H12        -1.7278   -5.8736    3.7323 H         1 <0>         0.1600
     48 H13        -1.7792    1.9122   -1.7624 H         1 <0>         0.1440
     49 H14        -4.0153    2.5500   -2.5970 H         1 <0>         0.1336
     50 H15        -5.9967    1.2527   -2.0488 H         1 <0>         0.1332
     51 H16        -5.8575   -0.7687   -0.6249 H         1 <0>         0.1415
     52 H17        -6.1628   -4.9065    2.2103 H         1 <0>         0.4348
     53 H18        -5.9671   -2.3994    1.6094 H         1 <0>         0.1115
     54 H19        -5.7060   -3.4063    0.1559 H         1 <0>         0.1103
     55 H20        -0.6958   -2.4158   -0.1353 H         1 <0>         0.4186
     56 H21         0.4349   -4.4415   -1.9347 H         1 <0>         0.1256
     57 H22         0.7403   -4.3189   -0.1854 H         1 <0>         0.1191
     58 H23        -0.8932   -4.7035   -0.7789 H         1 <0>         0.1256
     59 H24         0.9168    0.8112   -3.7748 H         1 <0>         0.0633
     60 H25         0.9482   -0.9479   -4.0446 H         1 <0>         0.0514
     61 H26        -0.4433    0.0130   -4.6003 H         1 <0>         0.1100
     62 H27        -0.9785   -2.5293   -1.7546 H         1 <0>         0.4274
@<TRIPOS>BOND
     1    1    2 1
     2    1   39 1
     3    1   40 1
     4    1   41 1
     5    2   10 1
     6    2   21 1
     7    2    3 1
     8    3    4 1
     9    3    5 1
    10    3   37 1
    11    5    6 1
    12    5    7 1
    13    5   35 1
    14    7    8 1
    15    7   42 1
    16    7   43 1
    17    8    9 1
    18    8   10 1
    19    8   11 1
    20   11   19 1
    21   11   12 1
    22   12   17 ar
    23   12   13 ar
    24   13   14 ar
    25   13   44 1
    26   14   15 ar
    27   14   45 1
    28   15   16 ar
    29   15   46 1
    30   16   17 ar
    31   16   47 1
    32   17   18 1
    33   18   30 ar
    34   18   19 ar
    35   19   20 ar
    36   20   28 ar
    37   20   21 1
    38   21   22 1
    39   22   27 ar
    40   22   23 ar
    41   23   24 ar
    42   23   48 1
    43   24   25 ar
    44   24   49 1
    45   25   26 ar
    46   25   50 1
    47   26   27 ar
    48   26   51 1
    49   27   28 1
    50   28   29 ar
    51   29   34 1
    52   29   30 ar
    53   30   31 1
    54   31   32 2
    55   31   33 am
    56   33   34 1
    57   33   52 1
    58   34   53 1
    59   34   54 1
    60   35   36 1
    61   35   55 1
    62   35   62 1
    63   36   56 1
    64   36   57 1
    65   36   58 1
    66   37   38 1
    67   38   59 1
    68   38   60 1
    69   38   61 1
@<TRIPOS>MOLECULE
ZINC43202512
   48    51     0     0     0
SMALL
USER_CHARGES

@<TRIPOS>ATOM
      1 C1         -0.0055    1.4955    0.4053 C.3       1 <0>        -0.1666
      2 C2          0.0135   -0.0104    0.3513 C.2       1 <0>         0.5024
      3 O1          1.0712   -0.6032    0.3340 O.2       1 <0>        -0.4721
      4 N1         -1.1451   -0.6983    0.3221 N.am      1 <0>        -0.6203
      5 C3         -1.1277   -2.0825    0.2725 C.2       1 <0>         0.3547
      6 N2         -0.0949   -2.8927    0.2531 N.2       1 <0>        -0.4981
      7 C4         -0.2257   -4.2354    0.2035 C.ar      1 <0>         0.0883
      8 C5          0.7997   -5.2108    0.1777 C.ar      1 <0>        -0.0569
      9 C6          0.5046   -6.5350    0.1263 C.ar      1 <0>        -0.0954
     10 C7         -0.8178   -6.9885    0.0974 C.ar      1 <0>         0.0035
     11 C8         -1.8543   -6.0561    0.1220 C.ar      1 <0>        -0.0588
     12 C9         -1.5546   -4.7198    0.1734 C.ar      1 <0>        -0.1359
     13 S1         -2.5055   -3.2199    0.2263 S.3       1 <0>        -0.0058
     14 C10        -1.1138   -8.4409    0.0408 C.ar      1 <0>        -0.0498
     15 C11        -0.0755   -9.3759    0.0214 C.ar      1 <0>        -0.2050
     16 C12        -0.4055  -10.7247   -0.0319 C.ar      1 <0>         0.2573
     17 C13        -1.7471  -11.0932   -0.0639 C.ar      1 <0>         0.1218
     18 N3         -2.7004  -10.1820   -0.0446 N.ar      1 <0>        -0.4448
     19 C14        -2.4313   -8.8932    0.0120 C.ar      1 <0>         0.0198
     20 Cl1        -2.1716  -12.7752   -0.1306 Cl        1 <0>        -0.0456
     21 N4          0.5971  -11.6987   -0.0537 N.2       1 <0>        -1.0628
     22 S2          2.1861  -11.2488   -0.1759 S.o2      1 <0>         2.6068
     23 O2          2.3229  -10.5748   -1.4194 O.2       1 <0>        -1.0263
     24 O3          2.5327  -10.6422    1.0615 O.2       1 <0>        -1.0246
     25 C15         3.1382  -12.7265   -0.2965 C.ar      1 <0>        -0.6508
     26 C16         3.6073  -13.3408    0.8499 C.ar      1 <0>         0.0160
     27 C17         4.3543  -14.4992    0.7580 C.ar      1 <0>        -0.1755
     28 C18         4.6334  -15.0463   -0.4860 C.ar      1 <0>         0.1619
     29 C19         4.1612  -14.4282   -1.6348 C.ar      1 <0>        -0.2324
     30 C20         3.4102  -13.2728   -1.5372 C.ar      1 <0>         0.0179
     31 O4          5.3685  -16.1855   -0.5791 O.3       1 <0>        -0.3169
     32 C21         5.6168  -16.6919   -1.8921 C.3       1 <0>         0.0251
     33 H1          1.0175    1.8714    0.4227 H         1 <0>         0.1008
     34 H2         -0.5205    1.8842   -0.4733 H         1 <0>         0.0946
     35 H3         -0.5273    1.8203    1.3055 H         1 <0>         0.0946
     36 H4         -1.9912   -0.2241    0.3359 H         1 <0>         0.4278
     37 H5          1.8329   -4.8968    0.1988 H         1 <0>         0.1352
     38 H6          1.3097   -7.2546    0.1070 H         1 <0>         0.1394
     39 H7         -2.8832   -6.3837    0.1001 H         1 <0>         0.1409
     40 H8          0.9565   -9.0585    0.0469 H         1 <0>         0.1224
     41 H9         -3.2413   -8.1791    0.0311 H         1 <0>         0.1482
     42 H10         3.3897  -12.9145    1.8181 H         1 <0>         0.1444
     43 H11         4.7211  -14.9782    1.6537 H         1 <0>         0.1352
     44 H12         4.3771  -14.8522   -2.6043 H         1 <0>         0.1321
     45 H13         3.0386  -12.7937   -2.4309 H         1 <0>         0.1397
     46 H14         6.1586  -15.9454   -2.4729 H         1 <0>         0.0566
     47 H15         6.2128  -17.6020   -1.8238 H         1 <0>         0.0994
     48 H16         4.6684  -16.9145   -2.3810 H         1 <0>         0.0578
@<TRIPOS>BOND
     1    1    2 1
     2    1   33 1
     3    1   34 1
     4    1   35 1
     5    2    3 2
     6    2    4 am
     7    4    5 1
     8    4   36 1
     9    5   13 1
    10    5    6 2
    11    6    7 1
    12    7   12 ar
    13    7    8 ar
    14    8    9 ar
    15    8   37 1
    16    9   10 ar
    17    9   38 1
    18   10   11 ar
    19   10   14 1
    20   11   12 ar
    21   11   39 1
    22   12   13 1
    23   14   19 ar
    24   14   15 ar
    25   15   16 ar
    26   15   40 1
    27   16   17 ar
    28   16   21 1
    29   17   18 ar
    30   17   20 1
    31   18   19 ar
    32   19   41 1
    33   21   22 1
    34   22   23 2
    35   22   24 2
    36   22   25 1
    37   25   30 ar
    38   25   26 ar
    39   26   27 ar
    40   26   42 1
    41   27   28 ar
    42   27   43 1
    43   28   29 ar
    44   28   31 1
    45   29   30 ar
    46   29   44 1
    47   30   45 1
    48   31   32 1
    49   32   46 1
    50   32   47 1
    51   32   48 1
@<TRIPOS>MOLECULE
ZINC13998530
   48    51     0     0     0
SMALL
USER_CHARGES
N-[[2-(4-amino-1,2,5-oxadiazol-3-yl)-1-ethyl-imidazo[5,4-d]pyridin-7-yl]methyl]piperidin-4-amine
@<TRIPOS>ATOM
      1 C1          1.5587    0.3111   -0.1080 C.3       1 <0>        -0.1729
      2 C2          0.2652    1.0542   -0.4478 C.3       1 <0>         0.0990
      3 N1         -0.4854    1.3157    0.7828 N.pl3     1 <0>        -0.4686
      4 C3         -0.4224    2.4543    1.5497 C.ar      1 <0>         0.0959
      5 C4          0.2805    3.6520    1.4788 C.ar      1 <0>        -0.1364
      6 C5          0.0830    4.5977    2.4615 C.ar      1 <0>         0.1287
      7 N2         -0.7570    4.3848    3.4610 N.ar      1 <0>        -0.4799
      8 C6         -1.4527    3.2734    3.5731 C.ar      1 <0>         0.1941
      9 C7         -1.3129    2.2569    2.6252 C.ar      1 <0>         0.0004
     10 N3         -1.8585    1.0289    2.4690 N.2       1 <0>        -0.4499
     11 C8         -1.3766    0.4683    1.3870 C.2       1 <0>         0.3728
     12 C9         -1.7401   -0.8779    0.8921 C.2       1 <0>         0.0023
     13 C10        -2.6825   -1.8587    1.4795 C.2       1 <0>         0.3357
     14 N4         -2.6148   -2.8606    0.6343 N.2       1 <0>        -0.4153
     15 O1         -1.8331   -2.5921   -0.2473 O.3       1 <0>         0.3396
     16 N5         -1.3034   -1.5081   -0.1774 N.2       1 <0>        -0.3271
     17 N6         -3.4473   -1.7455    2.6331 N.pl3     1 <0>        -0.8250
     18 C11         1.2410    3.9115    0.3469 C.3       1 <0>         0.0915
     19 N7          0.4927    4.3449   -0.8406 N.3       1 <0>        -0.6619
     20 C12         1.3822    4.4840   -2.0015 C.3       1 <0>         0.0601
     21 C13         2.0249    5.8738   -1.9900 C.3       1 <0>        -0.1386
     22 C14         2.9024    6.0349   -3.2334 C.3       1 <0>        -0.0005
     23 N8          2.0812    5.8656   -4.4389 N.4       1 <0>        -0.5357
     24 C15         1.4918    4.5218   -4.4955 C.3       1 <0>         0.0005
     25 C16         0.5721    4.3156   -3.2899 C.3       1 <0>        -0.1532
     26 H1          2.1223    0.1147   -1.0320 H         1 <0>         0.0835
     27 H2          1.3154   -0.6428    0.3829 H         1 <0>         0.0718
     28 H3          2.1683    0.9271    0.5695 H         1 <0>         0.0631
     29 H4          0.5085    2.0081   -0.9386 H         1 <0>         0.0828
     30 H5         -0.3444    0.4382   -1.1253 H         1 <0>         0.1085
     31 H6          0.6248    5.5308    2.4149 H         1 <0>         0.1643
     32 H7         -2.1261    3.1422    4.4072 H         1 <0>         0.1735
     33 H8         -4.1062   -2.5714    2.9394 H         1 <0>         0.4441
     34 H9         -3.3942   -0.8300    3.2405 H         1 <0>         0.4554
     35 H10         1.9502    4.6992    0.6411 H         1 <0>         0.0956
     36 H11         1.7932    2.9887    0.1157 H         1 <0>         0.0477
     37 H12        -0.2824    3.6011   -1.0772 H         1 <0>         0.3446
     38 H13         2.1485    3.6993   -1.9174 H         1 <0>         0.0618
     39 H14         1.2375    6.6419   -1.9927 H         1 <0>         0.0991
     40 H15         2.6423    5.9848   -1.0864 H         1 <0>         0.1091
     41 H16         3.3541    7.0379   -3.2359 H         1 <0>         0.1357
     42 H17         3.6974    5.2747   -3.2221 H         1 <0>         0.1252
     43 H18         1.2675    6.6058   -4.4351 H         1 <0>         0.4517
     44 H19         0.9095    4.4156   -5.4227 H         1 <0>         0.1362
     45 H20         2.2934    3.7687   -4.4776 H         1 <0>         0.1264
     46 H21         0.1423    3.3036   -3.3232 H         1 <0>         0.1068
     47 H22        -0.2383    5.0590   -3.3133 H         1 <0>         0.1012
     48 H23         2.7063    6.0125   -5.3320 H         1 <0>         0.4559
@<TRIPOS>BOND
     1    1    2 1
     2    1   26 1
     3    1   27 1
     4    1   28 1
     5    2    3 1
     6    2   29 1
     7    2   30 1
     8    3   11 1
     9    3    4 1
    10    4    9 ar
    11    4    5 ar
    12    5    6 ar
    13    5   18 1
    14    6    7 ar
    15    6   31 1
    16    7    8 ar
    17    8    9 ar
    18    8   32 1
    19    9   10 1
    20   10   11 2
    21   11   12 1
    22   12   16 2
    23   12   13 1
    24   13   14 2
    25   13   17 1
    26   14   15 1
    27   15   16 1
    28   17   33 1
    29   17   34 1
    30   18   19 1
    31   18   35 1
    32   18   36 1
    33   19   20 1
    34   19   37 1
    35   20   25 1
    36   20   21 1
    37   20   38 1
    38   21   22 1
    39   21   39 1
    40   21   40 1
    41   22   23 1
    42   22   41 1
    43   22   42 1
    44   23   24 1
    45   23   43 1
    46   23   48 1
    47   24   25 1
    48   24   44 1
    49   24   45 1
    50   25   46 1
    51   25   47 1
@<TRIPOS>MOLECULE
ZINC13998530
   50    53     0     0     0
SMALL
USER_CHARGES
N-[[2-(4-amino-1,2,5-oxadiazol-3-yl)-1-ethyl-imidazo[5,4-d]pyridin-7-yl]methyl]piperidin-4-amine
@<TRIPOS>ATOM
      1 C1          1.5587    0.3111   -0.1080 C.3       1 <0>        -0.1879
      2 C2          0.2652    1.0542   -0.4478 C.3       1 <0>         0.0907
      3 N1         -0.4854    1.3157    0.7828 N.pl3     1 <0>        -0.4320
      4 C3         -0.4224    2.4543    1.5497 C.ar      1 <0>         0.1403
      5 C4          0.2805    3.6520    1.4788 C.ar      1 <0>        -0.2050
      6 C5          0.0830    4.5977    2.4615 C.ar      1 <0>         0.2011
      7 N2         -0.7570    4.3848    3.4610 N.ar      1 <0>        -0.4354
      8 C6         -1.4527    3.2734    3.5731 C.ar      1 <0>         0.2433
      9 C7         -1.3129    2.2569    2.6252 C.ar      1 <0>         0.0004
     10 C8         -1.3766    0.4683    1.3870 C.cat     1 <0>         0.5282
     11 C9         -1.7401   -0.8779    0.8921 C.2       1 <0>        -0.0864
     12 C10        -2.6825   -1.8587    1.4795 C.2       1 <0>         0.3373
     13 N3         -2.6148   -2.8606    0.6343 N.2       1 <0>        -0.3540
     14 O1         -1.8331   -2.5921   -0.2473 O.3       1 <0>         0.4261
     15 N4         -1.3034   -1.5081   -0.1774 N.2       1 <0>        -0.2841
     16 N5         -3.4473   -1.7455    2.6331 N.pl3     1 <0>        -0.7914
     17 C11         1.2410    3.9115    0.3469 C.3       1 <0>         0.0409
     18 C12         1.3822    4.4840   -2.0015 C.3       1 <0>         0.0090
     19 C13         2.0249    5.8738   -1.9900 C.3       1 <0>        -0.1710
     20 C14         2.9024    6.0349   -3.2334 C.3       1 <0>         0.0014
     21 C15         1.4918    4.5218   -4.4955 C.3       1 <0>         0.0029
     22 C16         0.5721    4.3156   -3.2899 C.3       1 <0>        -0.1754
     23 H1          2.1915    0.9474    0.5107 H         1 <0>         0.0766
     24 H2          1.3205   -0.6031    0.4356 H         1 <0>         0.0880
     25 H3          2.0858    0.0597   -1.0284 H         1 <0>         0.1156
     26 H4          0.5062    1.9994   -0.9342 H         1 <0>         0.0840
     27 H5         -0.3389    0.4438   -1.1190 H         1 <0>         0.1418
     28 H6          0.6248    5.5308    2.4149 H         1 <0>         0.2015
     29 H7         -2.1261    3.1422    4.4072 H         1 <0>         0.2090
     30 H8         -3.4005   -0.9382    3.1687 H         1 <0>         0.4102
     31 H9         -4.0283   -2.4737    2.9032 H         1 <0>         0.4460
     32 H10         1.9437    4.6920    0.6384 H         1 <0>         0.1710
     33 H11         1.7882    2.9970    0.1179 H         1 <0>         0.1475
     34 H12         2.1599    3.7216   -1.9579 H         1 <0>         0.1609
     35 H13         1.2451    6.6354   -1.9938 H         1 <0>         0.1184
     36 H14         2.6377    5.9839   -1.0953 H         1 <0>         0.1392
     37 H15         3.6903    5.2817   -3.2219 H         1 <0>         0.1457
     38 H16         3.3501    7.0287   -3.2354 H         1 <0>         0.1589
     39 H17         2.2862    3.7758   -4.4782 H         1 <0>         0.1457
     40 H18         0.9150    4.4169   -5.4145 H         1 <0>         0.1578
     41 H19         0.1469    3.3125   -3.3239 H         1 <0>         0.1333
     42 H20        -0.2310    5.0522   -3.3137 H         1 <0>         0.1182
     43 N6          0.4822    4.3468   -0.8408 N.4       1 <0>        -0.5258
     44 H21         0.0394    5.2526   -0.6466 H         1 <0>         0.4455
     45 H22        -0.2418    3.6507   -1.0540 H         1 <0>         0.4274
     46 N7          2.0795    5.8742   -4.4473 N.4       1 <0>        -0.5237
     47 H23         2.6682    6.0169   -5.2763 H         1 <0>         0.4578
     48 H24         1.3252    6.5707   -4.4392 H         1 <0>         0.4401
     49 N8         -1.8590    1.0286    2.4695 N.pl3     1 <0>        -0.4723
     50 H25        -2.5457    0.6011    3.1020 H         1 <0>         0.4828
@<TRIPOS>BOND
     1    1    2 1
     2    1   23 1
     3    1   24 1
     4    1   25 1
     5    2    3 1
     6    2   26 1
     7    2   27 1
     8    3   10 1
     9    3    4 1
    10    4    9 ar
    11    4    5 ar
    12    5    6 ar
    13    5   17 1
    14    6    7 ar
    15    6   28 1
    16    7    8 ar
    17    8    9 ar
    18    8   29 1
    19    9   49 1
    20   10   11 1
    21   10   49 2
    22   11   15 2
    23   11   12 1
    24   12   13 2
    25   12   16 1
    26   13   14 1
    27   14   15 1
    28   16   30 1
    29   16   31 1
    30   17   32 1
    31   17   33 1
    32   17   43 1
    33   18   22 1
    34   18   19 1
    35   18   34 1
    36   18   43 1
    37   19   20 1
    38   19   35 1
    39   19   36 1
    40   20   37 1
    41   20   38 1
    42   20   46 1
    43   21   22 1
    44   21   39 1
    45   21   40 1
    46   21   46 1
    47   22   41 1
    48   22   42 1
    49   43   44 1
    50   43   45 1
    51   46   47 1
    52   46   48 1
    53   49   50 1
@<TRIPOS>MOLECULE
ZINC13998530
   48    51     0     0     0
SMALL
USER_CHARGES
N-[[2-(4-amino-1,2,5-oxadiazol-3-yl)-1-ethyl-imidazo[5,4-d]pyridin-7-yl]methyl]piperidin-4-amine
@<TRIPOS>ATOM
      1 C1          1.5587    0.3111   -0.1080 C.3       1 <0>        -0.1786
      2 C2          0.2652    1.0542   -0.4478 C.3       1 <0>         0.0984
      3 N1         -0.4854    1.3157    0.7828 N.pl3     1 <0>        -0.4740
      4 C3         -0.4224    2.4543    1.5497 C.ar      1 <0>         0.0984
      5 C4          0.2805    3.6520    1.4788 C.ar      1 <0>        -0.2089
      6 C5          0.0830    4.5977    2.4615 C.ar      1 <0>         0.1545
      7 N2         -0.7570    4.3848    3.4610 N.ar      1 <0>        -0.4785
      8 C6         -1.4527    3.2734    3.5731 C.ar      1 <0>         0.2265
      9 C7         -1.3129    2.2569    2.6252 C.ar      1 <0>         0.0045
     10 N3         -1.8585    1.0289    2.4690 N.2       1 <0>        -0.4438
     11 C8         -1.3766    0.4683    1.3870 C.2       1 <0>         0.3923
     12 C9         -1.7401   -0.8779    0.8921 C.2       1 <0>        -0.0123
     13 C10        -2.6825   -1.8587    1.4795 C.2       1 <0>         0.3390
     14 N4         -2.6148   -2.8606    0.6343 N.2       1 <0>        -0.4099
     15 O1         -1.8331   -2.5921   -0.2473 O.3       1 <0>         0.3511
     16 N5         -1.3034   -1.5081   -0.1774 N.2       1 <0>        -0.3239
     17 N6         -3.4473   -1.7455    2.6331 N.pl3     1 <0>        -0.8239
     18 C11         1.2410    3.9115    0.3469 C.3       1 <0>         0.0492
     19 N7          0.4927    4.3449   -0.8406 N.4       1 <0>        -0.5443
     20 C12         1.3822    4.4840   -2.0015 C.3       1 <0>         0.0286
     21 C13         2.0249    5.8738   -1.9900 C.3       1 <0>        -0.1779
     22 C14         2.9024    6.0349   -3.2334 C.3       1 <0>         0.0501
     23 N8          2.0812    5.8656   -4.4389 N.3       1 <0>        -0.6639
     24 C15         1.4918    4.5218   -4.4955 C.3       1 <0>         0.0503
     25 C16         0.5721    4.3156   -3.2899 C.3       1 <0>        -0.1817
     26 H1          2.1223    0.1147   -1.0320 H         1 <0>         0.0939
     27 H2          1.3154   -0.6428    0.3829 H         1 <0>         0.0792
     28 H3          2.1683    0.9271    0.5695 H         1 <0>         0.0650
     29 H4          0.5085    2.0081   -0.9386 H         1 <0>         0.0660
     30 H5         -0.3444    0.4382   -1.1253 H         1 <0>         0.1214
     31 H6          0.6248    5.5308    2.4149 H         1 <0>         0.1741
     32 H7         -2.1261    3.1422    4.4072 H         1 <0>         0.1835
     33 H8         -4.1062   -2.5714    2.9394 H         1 <0>         0.4473
     34 H9         -3.3942   -0.8300    3.2405 H         1 <0>         0.4545
     35 H10         1.9502    4.6992    0.6411 H         1 <0>         0.1484
     36 H11         1.7932    2.9887    0.1157 H         1 <0>         0.1304
     37 H12        -0.2824    3.6011   -1.0772 H         1 <0>         0.4360
     38 H13         2.1485    3.6993   -1.9174 H         1 <0>         0.1334
     39 H14         1.2375    6.6419   -1.9927 H         1 <0>         0.0911
     40 H15         2.6423    5.9848   -1.0864 H         1 <0>         0.0950
     41 H16         3.3541    7.0379   -3.2359 H         1 <0>         0.1018
     42 H17         3.6974    5.2747   -3.2221 H         1 <0>         0.0861
     43 H18         0.9095    4.4156   -5.4227 H         1 <0>         0.1017
     44 H19         2.2934    3.7687   -4.4776 H         1 <0>         0.0861
     45 H20         0.1423    3.3036   -3.3232 H         1 <0>         0.0920
     46 H21        -0.2383    5.0590   -3.3133 H         1 <0>         0.0912
     47 H22         1.2675    6.6058   -4.4351 H         1 <0>         0.3507
     48 H23         0.0189    5.3173   -0.6407 H         1 <0>         0.4498
@<TRIPOS>BOND
     1    1    2 1
     2    1   26 1
     3    1   27 1
     4    1   28 1
     5    2    3 1
     6    2   29 1
     7    2   30 1
     8    3   11 1
     9    3    4 1
    10    4    9 ar
    11    4    5 ar
    12    5    6 ar
    13    5   18 1
    14    6    7 ar
    15    6   31 1
    16    7    8 ar
    17    8    9 ar
    18    8   32 1
    19    9   10 1
    20   10   11 2
    21   11   12 1
    22   12   16 2
    23   12   13 1
    24   13   14 2
    25   13   17 1
    26   14   15 1
    27   15   16 1
    28   17   33 1
    29   17   34 1
    30   18   19 1
    31   18   35 1
    32   18   36 1
    33   19   20 1
    34   19   37 1
    35   19   48 1
    36   20   25 1
    37   20   21 1
    38   20   38 1
    39   21   22 1
    40   21   39 1
    41   21   40 1
    42   22   23 1
    43   22   41 1
    44   22   42 1
    45   23   24 1
    46   23   47 1
    47   24   25 1
    48   24   43 1
    49   24   44 1
    50   25   45 1
    51   25   46 1
@<TRIPOS>MOLECULE
ZINC13641346
   47    51     0     0     0
SMALL
USER_CHARGES
3-[(E)-3-(1H-benzimidazol-2-yl)prop-2-enoyl]-6-chloro-4-phenyl-1H-quinolin-2-one
@<TRIPOS>ATOM
      1 C1         -2.5962   -3.1566   -0.7890 C.ar      1 <0>        -0.1009
      2 C2         -3.1749   -2.3070   -1.7158 C.ar      1 <0>        -0.1172
      3 C3         -3.1512   -0.9430   -1.5149 C.ar      1 <0>        -0.0578
      4 C4         -2.5408   -0.4189   -0.3721 C.ar      1 <0>        -0.0726
      5 C5         -1.9538   -1.2826    0.5567 C.ar      1 <0>        -0.0932
      6 C6         -1.9899   -2.6449    0.3451 C.ar      1 <0>        -0.1205
      7 C7         -2.5109    1.0401   -0.1502 C.2       1 <0>         0.1400
      8 C8         -1.2402    1.7760   -0.1457 C.ar      1 <0>        -0.1246
      9 C9         -0.0282    1.1033   -0.3408 C.ar      1 <0>        -0.0322
     10 C10         1.1535    1.8091   -0.3277 C.ar      1 <0>        -0.0702
     11 C11         1.1479    3.1826   -0.1168 C.ar      1 <0>        -0.0415
     12 C12        -0.0361    3.8578    0.0823 C.ar      1 <0>        -0.1535
     13 C13        -1.2440    3.1653    0.0738 C.ar      1 <0>         0.2094
     14 N1         -2.4309    3.8405    0.2740 N.am      1 <0>        -0.6272
     15 H1         -2.4092    4.7993    0.4197 H         1 <0>         0.4227
     16 C14        -3.6156    3.2069    0.2723 C.2       1 <0>         0.5553
     17 O1         -4.6379    3.8439    0.4524 O.2       1 <0>        -0.5031
     18 C15        -3.6944    1.7606    0.0562 C.2       1 <0>        -0.2525
     19 C16        -4.9942    1.0761    0.0555 C.2       1 <0>         0.4357
     20 O2         -5.0440   -0.1365   -0.0506 O.2       1 <0>        -0.4364
     21 C17        -6.2319    1.8525    0.1826 C.2       1 <0>        -0.1662
     22 C18        -7.4186    1.2181    0.2918 C.2       1 <0>        -0.0339
     23 C19        -8.6574    1.9953    0.4190 C.2       1 <0>         0.2969
     24 N2         -9.9171    1.4625    0.5308 N.pl3     1 <0>        -0.5934
     25 H2        -10.1531    0.4908    0.5388 H         1 <0>         0.4317
     26 C20       -10.7955    2.5199    0.6300 C.ar      1 <0>         0.0537
     27 C21       -12.1744    2.6184    0.7631 C.ar      1 <0>        -0.1148
     28 C22       -12.7673    3.8607    0.8312 C.ar      1 <0>        -0.0958
     29 C23       -11.9966    5.0146    0.7670 C.ar      1 <0>        -0.1285
     30 C24       -10.6404    4.9408    0.6359 C.ar      1 <0>        -0.0599
     31 C25       -10.0129    3.6896    0.5647 C.ar      1 <0>         0.0476
     32 N3         -8.7296    3.3065    0.4375 N.2       1 <0>        -0.4609
     33 Cl1         2.6581    0.9793   -0.5753 Cl        1 <0>        -0.0535
     34 H3         -2.6181   -4.2241   -0.9514 H         1 <0>         0.1247
     35 H4         -3.6460   -2.7134   -2.5986 H         1 <0>         0.1263
     36 H5         -3.6035   -0.2812   -2.2388 H         1 <0>         0.1193
     37 H6         -1.4768   -0.8845    1.4400 H         1 <0>         0.1241
     38 H7         -1.5403   -3.3138    1.0640 H         1 <0>         0.1274
     39 H8         -0.0207    0.0359   -0.5053 H         1 <0>         0.1507
     40 H9          2.0812    3.7261   -0.1086 H         1 <0>         0.1485
     41 H10        -0.0275    4.9254    0.2456 H         1 <0>         0.1501
     42 H11        -6.1941    2.9319    0.1888 H         1 <0>         0.1829
     43 H12        -7.4564    0.1388    0.2857 H         1 <0>         0.1438
     44 H13       -12.7796    1.7253    0.8129 H         1 <0>         0.1244
     45 H14       -13.8396    3.9377    0.9351 H         1 <0>         0.1319
     46 H15       -12.4760    5.9808    0.8218 H         1 <0>         0.1314
     47 H16       -10.0516    5.8448    0.5874 H         1 <0>         0.1316
@<TRIPOS>BOND
     1    1    6 ar
     2    1    2 ar
     3    1   34 1
     4    2    3 ar
     5    2   35 1
     6    3    4 ar
     7    3   36 1
     8    4    5 ar
     9    4    7 1
    10    5    6 ar
    11    5   37 1
    12    6   38 1
    13    7   18 2
    14    7    8 1
    15    8   13 ar
    16    8    9 ar
    17    9   10 ar
    18    9   39 1
    19   10   11 ar
    20   10   33 1
    21   11   12 ar
    22   11   40 1
    23   12   13 ar
    24   12   41 1
    25   13   14 1
    26   14   15 1
    27   14   16 am
    28   16   17 2
    29   16   18 1
    30   18   19 1
    31   19   20 2
    32   19   21 1
    33   21   22 2
    34   21   42 1
    35   22   23 1
    36   22   43 1
    37   23   32 2
    38   23   24 1
    39   24   25 1
    40   24   26 1
    41   26   31 ar
    42   26   27 ar
    43   27   28 ar
    44   27   44 1
    45   28   29 ar
    46   28   45 1
    47   29   30 ar
    48   29   46 1
    49   30   31 ar
    50   30   47 1
    51   31   32 1
@<TRIPOS>MOLECULE
ZINC19853794
   46    49     0     0     0
SMALL
USER_CHARGES
4-[5-[(E)-(2-amino-3,7-dicyano-4,6-dimethyl-cyclopenta[e]pyridin-5-ylidene)methyl]-2-furyl]-2-chloro-benzoic acid
@<TRIPOS>ATOM
      1 C1          4.5608    2.1715    0.1861 C.3       1 <0>        -0.1367
      2 C2          3.7875    0.9016    0.4317 C.ar      1 <0>         0.0876
      3 C3          4.4271   -0.3423    0.4219 C.ar      1 <0>        -0.1743
      4 C4          3.6676   -1.5057    0.6565 C.ar      1 <0>         0.4795
      5 N1          2.3693   -1.4364    0.8835 N.ar      1 <0>        -0.5380
      6 C5          1.7228   -0.2726    0.9017 C.ar      1 <0>         0.2690
      7 C6          2.4196    0.9347    0.6746 C.ar      1 <0>        -0.1911
      8 C7          1.4322    2.0276    0.7601 C.2       1 <0>        -0.0692
      9 C8          1.6954    3.3842    0.5985 C.2       1 <0>         0.0430
     10 C9          0.6853    4.3283    0.8382 C.2       1 <0>        -0.0495
     11 C10         0.8115    5.4800    1.6048 C.2       1 <0>        -0.1340
     12 C11        -0.4254    6.1206    1.5751 C.2       1 <0>        -0.2037
     13 C12        -1.2630    5.3469    0.7975 C.2       1 <0>         0.0751
     14 O1         -0.5758    4.2777    0.3592 O.3       1 <0>        -0.1416
     15 C13        -2.6741    5.6466    0.4925 C.ar      1 <0>        -0.0390
     16 C14        -3.2729    6.7990    1.0132 C.ar      1 <0>        -0.1009
     17 C15        -4.5778    7.0821    0.7288 C.ar      1 <0>        -0.0671
     18 C16        -5.3253    6.2160   -0.0753 C.ar      1 <0>        -0.0861
     19 C17        -4.7343    5.0589   -0.5950 C.ar      1 <0>        -0.0092
     20 C18        -3.4155    4.7761   -0.3123 C.ar      1 <0>        -0.1057
     21 Cl1        -5.6601    3.9825   -1.5939 Cl        1 <0>        -0.0370
     22 C19        -6.7368    6.5224   -0.3762 C.2       1 <0>         0.4813
     23 O2         -7.3861    5.7701   -1.0752 O.co2     1 <0>        -0.5995
     24 O3         -7.3059    7.6366    0.1243 O.co2     1 <0>        -0.7497
     25 C20         0.1764    1.4535    1.0344 C.2       1 <0>         0.0518
     26 C21         0.3119    0.0797    1.1258 C.2       1 <0>        -0.0665
     27 C22        -0.7466   -0.8468    1.3939 C.1       1 <0>         0.2747
     28 N2         -1.5863   -1.5817    1.6066 N.1       1 <0>        -0.4118
     29 C23        -1.1138    2.2152    1.1966 C.3       1 <0>        -0.1380
     30 N3          4.2932   -2.7413    0.6490 N.pl3     1 <0>        -0.8585
     31 C24         5.8350   -0.4323    0.1761 C.1       1 <0>         0.2687
     32 N4          6.9519   -0.5037   -0.0188 N.1       1 <0>        -0.4272
     33 H1          5.6201    1.9287    0.0162 H         1 <0>         0.0726
     34 H2          4.4716    2.8304    1.0624 H         1 <0>         0.0926
     35 H3          4.1551    2.6823   -0.6996 H         1 <0>         0.0919
     36 H4          2.6953    3.7167    0.2828 H         1 <0>         0.1674
     37 H5          1.6977    5.8143    2.1238 H         1 <0>         0.1589
     38 H6         -0.6804    7.0477    2.0671 H         1 <0>         0.1583
     39 H7         -2.7002    7.4683    1.6380 H         1 <0>         0.1305
     40 H8         -5.0351    7.9747    1.1293 H         1 <0>         0.1470
     41 H9         -2.9555    3.8843   -0.7117 H         1 <0>         0.1325
     42 H10        -1.9321    1.5102    1.4046 H         1 <0>         0.0767
     43 H11        -1.3322    2.7677    0.2709 H         1 <0>         0.1194
     44 H12        -1.0187    2.9236    2.0327 H         1 <0>         0.0903
     45 H13         3.7084   -3.6550    0.8312 H         1 <0>         0.4346
     46 H14         5.3749   -2.8090    0.4609 H         1 <0>         0.4309
@<TRIPOS>BOND
     1    1    2 1
     2    1   33 1
     3    1   34 1
     4    1   35 1
     5    2    7 ar
     6    2    3 ar
     7    3    4 ar
     8    3   31 1
     9    4    5 ar
    10    4   30 1
    11    5    6 ar
    12    6   26 1
    13    6    7 ar
    14    7    8 1
    15    8    9 2
    16    8   25 1
    17    9   10 1
    18    9   36 1
    19   10   14 1
    20   10   11 2
    21   11   12 1
    22   11   37 1
    23   12   13 2
    24   12   38 1
    25   13   14 1
    26   13   15 1
    27   15   20 ar
    28   15   16 ar
    29   16   17 ar
    30   16   39 1
    31   17   18 ar
    32   17   40 1
    33   18   19 ar
    34   18   22 1
    35   19   20 ar
    36   19   21 1
    37   20   41 1
    38   22   23 2
    39   22   24 1
    40   25   26 2
    41   25   29 1
    42   26   27 1
    43   27   28 3
    44   29   42 1
    45   29   43 1
    46   29   44 1
    47   30   45 1
    48   30   46 1
    49   31   32 3
@<TRIPOS>MOLECULE
ZINC14962724
   35    37     0     0     0
SMALL
USER_CHARGES
[(3Z)-2-oxo-3-[1-(1H-pyrrol-2-yl)ethylidene]indolin-5-yl]urea
@<TRIPOS>ATOM
      1 C1         -2.8483    0.4831    0.9153 C.3       1 <0>        -0.1282
      2 C2         -2.3064   -0.9019    0.6720 C.2       1 <0>         0.0899
      3 C3         -0.9459   -1.0961    0.5290 C.2       1 <0>        -0.1682
      4 C4          0.1288   -0.0925    0.6963 C.ar      1 <0>        -0.0845
      5 C5          0.1269    1.2594    1.0237 C.ar      1 <0>        -0.0928
      6 C6          1.3274    1.9469    1.1062 C.ar      1 <0>         0.1398
      7 C7          2.5253    1.2839    0.8621 C.ar      1 <0>        -0.0782
      8 C8          2.5315   -0.0566    0.5373 C.ar      1 <0>        -0.1177
      9 C9          1.3356   -0.7611    0.4501 C.ar      1 <0>         0.1340
     10 N1          1.0658   -2.0921    0.1473 N.am      1 <0>        -0.6551
     11 C10        -0.2539   -2.3431    0.1791 C.2       1 <0>         0.5551
     12 O1         -0.7837   -3.4173   -0.0441 O.2       1 <0>        -0.4932
     13 N2          1.3342    3.3094    1.4349 N.am      1 <0>        -0.6836
     14 C11         2.3284    3.8151    2.1915 C.2       1 <0>         0.7061
     15 O2          3.2622    3.1088    2.5195 O.2       1 <0>        -0.5759
     16 N3          2.2874    5.1037    2.5844 N.am      1 <0>        -0.8609
     17 C12        -3.1878   -1.9997    0.5904 C.2       1 <0>         0.0044
     18 C13        -4.1519   -2.2073   -0.3841 C.2       1 <0>        -0.1492
     19 C14        -4.7894   -3.4113   -0.0793 C.2       1 <0>        -0.2035
     20 C15        -4.2226   -3.9113    1.0470 C.2       1 <0>         0.0117
     21 N4         -3.2451   -3.0666    1.4613 N.pl3     1 <0>        -0.5257
     22 H1         -2.6820   -3.1915    2.2412 H         1 <0>         0.4140
     23 H2         -2.5999    1.1242    0.0695 H         1 <0>         0.0885
     24 H3         -3.9313    0.4347    1.0287 H         1 <0>         0.0811
     25 H4         -2.4058    0.8921    1.8236 H         1 <0>         0.0863
     26 H5         -0.8057    1.7718    1.2083 H         1 <0>         0.1351
     27 H6          3.4587    1.8233    0.9272 H         1 <0>         0.1496
     28 H7          3.4680   -0.5607    0.3499 H         1 <0>         0.1331
     29 H8          1.7437   -2.7539   -0.0609 H         1 <0>         0.4178
     30 H9          0.6235    3.8884    1.1179 H         1 <0>         0.4083
     31 H10         1.5425    5.6671    2.3227 H         1 <0>         0.3996
     32 H11         3.0029    5.4676    3.1289 H         1 <0>         0.4200
     33 H12        -4.3685   -1.5601   -1.2211 H         1 <0>         0.1385
     34 H13        -5.5924   -3.8648   -0.6413 H         1 <0>         0.1384
     35 H14        -4.5015   -4.8346    1.5330 H         1 <0>         0.1655
@<TRIPOS>BOND
     1    1    2 1
     2    1   23 1
     3    1   24 1
     4    1   25 1
     5    2    3 2
     6    2   17 1
     7    3   11 1
     8    3    4 1
     9    4    9 ar
    10    4    5 ar
    11    5    6 ar
    12    5   26 1
    13    6    7 ar
    14    6   13 1
    15    7    8 ar
    16    7   27 1
    17    8    9 ar
    18    8   28 1
    19    9   10 1
    20   10   11 am
    21   10   29 1
    22   11   12 2
    23   13   14 am
    24   13   30 1
    25   14   15 2
    26   14   16 am
    27   16   31 1
    28   16   32 1
    29   17   21 1
    30   17   18 2
    31   18   19 1
    32   18   33 1
    33   19   20 2
    34   19   34 1
    35   20   21 1
    36   20   35 1
    37   21   22 1
@<TRIPOS>MOLECULE
ZINC29127351
   55    59     0     0     0
SMALL
USER_CHARGES
2-methyl-2-[4-[3-methyl-2-oxo-8-[2-(3-pyridyl)ethynyl]imidazo[4,5-c]quinolin-1-yl]phenyl]propanenitrile
@<TRIPOS>ATOM
      1 C1         -4.7269    5.3815    1.3628 C.3       1 <0>        -0.1524
      2 C2         -4.6650    4.5971    0.0506 C.3       1 <0>         0.0804
      3 C3         -4.6138    5.5742   -1.1257 C.3       1 <0>        -0.1452
      4 C4         -5.8605    3.7468   -0.0696 C.1       1 <0>         0.2086
      5 N1         -6.7831    3.0905   -0.1624 N.1       1 <0>        -0.4152
      6 C5         -3.4306    3.7328    0.0397 C.ar      1 <0>        -0.0669
      7 C6         -3.1611    2.9284   -1.0523 C.ar      1 <0>        -0.0949
      8 C7         -2.0303    2.1354   -1.0654 C.ar      1 <0>        -0.0925
      9 C8         -1.1637    2.1465    0.0195 C.ar      1 <0>         0.1317
     10 C9         -1.4399    2.9513    1.1168 C.ar      1 <0>        -0.0961
     11 C10        -2.5695    3.7460    1.1217 C.ar      1 <0>        -0.0965
     12 N2         -0.0162    1.3429    0.0094 N.am      1 <0>        -0.4789
     13 C11         1.2476    1.7435   -0.3821 C.ar      1 <0>         0.1394
     14 C12         1.8016    2.9527   -0.8539 C.ar      1 <0>        -0.0685
     15 C13         1.0184    4.1001   -1.0187 C.ar      1 <0>        -0.0715
     16 C14         1.6065    5.2671   -1.4867 C.ar      1 <0>         0.0248
     17 C15         2.9796    5.2966   -1.7927 C.ar      1 <0>        -0.0785
     18 C16         3.7511    4.1910   -1.6376 C.ar      1 <0>        -0.0792
     19 C17         3.1843    2.9925   -1.1655 C.ar      1 <0>         0.1403
     20 N3          3.9373    1.8974   -1.0103 N.ar      1 <0>        -0.4576
     21 C18         3.4379    0.7657   -0.5728 C.ar      1 <0>         0.1754
     22 C19         2.0881    0.6439   -0.2446 C.ar      1 <0>         0.0245
     23 N4          1.3028   -0.4032    0.2310 N.am      1 <0>        -0.5231
     24 C20         0.0413    0.0474    0.3741 C.2       1 <0>         0.6771
     25 O1         -0.9002   -0.6134    0.7712 O.2       1 <0>        -0.5337
     26 C21         1.7684   -1.7607    0.5254 C.3       1 <0>         0.0896
     27 C22         0.8124    6.4463   -1.6584 C.1       1 <0>        -0.1046
     28 C23         0.1614    7.4131   -1.7992 C.1       1 <0>        -0.1065
     29 C24        -0.6327    8.5923   -1.9709 C.ar      1 <0>        -0.0378
     30 C25        -2.0029    8.5784   -1.6759 C.ar      1 <0>        -0.0528
     31 C26        -2.7236    9.7453   -1.8552 C.ar      1 <0>        -0.1690
     32 C27        -2.0776   10.8755   -2.3245 C.ar      1 <0>         0.1087
     33 N5         -0.7874   10.8588   -2.5990 N.ar      1 <0>        -0.4804
     34 C28        -0.0564    9.7751   -2.4410 C.ar      1 <0>         0.1285
     35 H1         -4.7637    4.6790    2.2085 H         1 <0>         0.0724
     36 H2         -5.6280    6.0124    1.3707 H         1 <0>         0.0755
     37 H3         -3.8335    6.0170    1.4526 H         1 <0>         0.0850
     38 H4         -4.5693    5.0103   -2.0691 H         1 <0>         0.0704
     39 H5         -3.7204    6.2097   -1.0359 H         1 <0>         0.0798
     40 H6         -5.5149    6.2051   -1.1178 H         1 <0>         0.0762
     41 H7         -3.8356    2.9200   -1.8957 H         1 <0>         0.1349
     42 H8         -1.8205    1.5072   -1.9184 H         1 <0>         0.1326
     43 H9         -0.7699    2.9589    1.9638 H         1 <0>         0.1342
     44 H10        -2.7827    4.3752    1.9731 H         1 <0>         0.1460
     45 H11        -0.0354    4.0782   -0.7833 H         1 <0>         0.1345
     46 H12         3.4253    6.2109   -2.1557 H         1 <0>         0.1400
     47 H13         4.8034    4.2311   -1.8772 H         1 <0>         0.1489
     48 H14         4.0869   -0.0907   -0.4641 H         1 <0>         0.1715
     49 H15         0.9246   -2.3677    0.8855 H         1 <0>         0.0998
     50 H16         2.5484   -1.7209    1.3000 H         1 <0>         0.0826
     51 H17         2.1818   -2.2128   -0.3883 H         1 <0>         0.0825
     52 H18        -2.4828    7.6808   -1.3148 H         1 <0>         0.1395
     53 H19        -3.7806    9.7729   -1.6351 H         1 <0>         0.1435
     54 H20        -2.6394   11.7865   -2.4688 H         1 <0>         0.1613
     55 H21         0.9974    9.8008   -2.6763 H         1 <0>         0.1616
@<TRIPOS>BOND
     1    1    2 1
     2    1   35 1
     3    1   36 1
     4    1   37 1
     5    2    3 1
     6    2    4 1
     7    2    6 1
     8    3   38 1
     9    3   39 1
    10    3   40 1
    11    4    5 3
    12    6   11 ar
    13    6    7 ar
    14    7    8 ar
    15    7   41 1
    16    8    9 ar
    17    8   42 1
    18    9   10 ar
    19    9   12 1
    20   10   11 ar
    21   10   43 1
    22   11   44 1
    23   12   24 am
    24   12   13 1
    25   13   22 ar
    26   13   14 ar
    27   14   19 ar
    28   14   15 ar
    29   15   16 ar
    30   15   45 1
    31   16   17 ar
    32   16   27 1
    33   17   18 ar
    34   17   46 1
    35   18   19 ar
    36   18   47 1
    37   19   20 ar
    38   20   21 ar
    39   21   22 ar
    40   21   48 1
    41   22   23 1
    42   23   24 am
    43   23   26 1
    44   24   25 2
    45   26   49 1
    46   26   50 1
    47   26   51 1
    48   27   28 3
    49   28   29 1
    50   29   34 ar
    51   29   30 ar
    52   30   31 ar
    53   30   52 1
    54   31   32 ar
    55   31   53 1
    56   32   33 ar
    57   32   54 1
    58   33   34 ar
    59   34   55 1
@<TRIPOS>MOLECULE
ZINC29047614
   46    50     0     0     0
SMALL
USER_CHARGES
1'-methyl-1-(7H-pyrrolo[2,3-d]pyrimidin-4-yl)spiro[indoline-3,4'-piperidine]
@<TRIPOS>ATOM
      1 C1          3.0503   -0.5287    2.1598 C.3       1 <0>        -0.0465
      2 N1          2.1899    0.0449    1.1163 N.4       1 <0>        -0.3992
      3 C2          0.8284   -0.4993    1.1988 C.3       1 <0>        -0.0090
      4 C3          0.0070   -0.0017    0.0063 C.3       1 <0>        -0.1321
      5 C4         -0.0171    1.5247    0.0104 C.3       1 <0>        -0.0273
      6 C5          1.4058    2.0770   -0.0045 C.3       1 <0>        -0.1321
      7 C6          2.1820    1.5117    1.1881 C.3       1 <0>        -0.0088
      8 C7         -0.7765    2.0415    1.2383 C.3       1 <0>         0.1178
      9 N2         -1.9095    2.7976    0.6946 N.pl3     1 <0>        -0.5257
     10 C8         -1.8783    2.7685   -0.7021 C.ar      1 <0>         0.1693
     11 C9         -0.7953    2.0409   -1.1743 C.ar      1 <0>        -0.1561
     12 C10        -0.5887    1.8965   -2.5324 C.ar      1 <0>        -0.0697
     13 C11        -1.4616    2.4767   -3.4342 C.ar      1 <0>        -0.1420
     14 C12        -2.5442    3.2031   -2.9736 C.ar      1 <0>        -0.0771
     15 C13        -2.7551    3.3506   -1.6192 C.ar      1 <0>        -0.1297
     16 C14        -2.8690    3.4449    1.4537 C.ar      1 <0>         0.4820
     17 C15        -2.8796    3.3278    2.8522 C.ar      1 <0>        -0.2514
     18 C16        -2.0596    2.6279    3.8391 C.2       1 <0>        -0.1920
     19 C17        -2.5799    2.9082    5.0453 C.2       1 <0>         0.0556
     20 N3         -3.6666    3.7316    4.9024 N.pl3     1 <0>        -0.5798
     21 H1         -4.2229    4.0672    5.7901 H         1 <0>         0.4578
     22 C18        -3.8756    4.0059    3.5788 C.ar      1 <0>         0.3557
     23 N4         -4.7687    4.7328    2.9090 N.ar      1 <0>        -0.5544
     24 C19        -4.7203    4.8148    1.5971 C.ar      1 <0>         0.3619
     25 N5         -3.8008    4.1980    0.8767 N.ar      1 <0>        -0.5825
     26 H2          3.0378   -1.6260    2.0831 H         1 <0>         0.1254
     27 H3          2.6777   -0.2260    3.1495 H         1 <0>         0.1187
     28 H4          4.0795   -0.1636    2.0280 H         1 <0>         0.1255
     29 H5          0.8712   -1.5983    1.1816 H         1 <0>         0.1378
     30 H6          0.3561   -0.1653    2.1344 H         1 <0>         0.1254
     31 H7          0.4634   -0.3598   -0.9283 H         1 <0>         0.1007
     32 H8         -1.0208   -0.3860    0.0831 H         1 <0>         0.1164
     33 H9          1.9036    1.7826   -0.9402 H         1 <0>         0.1007
     34 H10         1.3739    3.1744    0.0643 H         1 <0>         0.1164
     35 H11         1.6995    1.8304    2.1239 H         1 <0>         0.1257
     36 H12         3.2162    1.8856    1.1630 H         1 <0>         0.1378
     37 H13        -1.1124    1.1892    1.8472 H         1 <0>         0.0862
     38 H14        -0.1122    2.6812    1.8378 H         1 <0>         0.0851
     39 H15         0.2573    1.3291   -2.8910 H         1 <0>         0.1221
     40 H16        -1.2985    2.3625   -4.4956 H         1 <0>         0.1304
     41 H17        -3.2266    3.6567   -3.6772 H         1 <0>         0.1333
     42 H18        -3.6025    3.9195   -1.2660 H         1 <0>         0.1520
     43 H19        -1.2010    2.0047    3.6373 H         1 <0>         0.1414
     44 H20        -2.1991    2.5401    5.9865 H         1 <0>         0.1824
     45 H21        -5.4609    5.4138    1.0882 H         1 <0>         0.2068
     46 H22         2.6054   -0.2400    0.1385 H         1 <0>         0.4448
@<TRIPOS>BOND
     1    1    2 1
     2    1   26 1
     3    1   27 1
     4    1   28 1
     5    2    7 1
     6    2    3 1
     7    2   46 1
     8    3    4 1
     9    3   29 1
    10    3   30 1
    11    4    5 1
    12    4   31 1
    13    4   32 1
    14    5   11 1
    15    5    6 1
    16    5    8 1
    17    6    7 1
    18    6   33 1
    19    6   34 1
    20    7   35 1
    21    7   36 1
    22    8    9 1
    23    8   37 1
    24    8   38 1
    25    9   10 1
    26    9   16 1
    27   10   15 ar
    28   10   11 ar
    29   11   12 ar
    30   12   13 ar
    31   12   39 1
    32   13   14 ar
    33   13   40 1
    34   14   15 ar
    35   14   41 1
    36   15   42 1
    37   16   25 ar
    38   16   17 ar
    39   17   22 ar
    40   17   18 1
    41   18   19 2
    42   18   43 1
    43   19   20 1
    44   19   44 1
    45   20   21 1
    46   20   22 1
    47   22   23 ar
    48   23   24 ar
    49   24   25 ar
    50   24   45 1
@<TRIPOS>MOLECULE
ZINC28129161
   72    79     0     0     0
SMALL
USER_CHARGES

@<TRIPOS>ATOM
      1 C1         -0.3287    0.5402   -0.9212 C.ar      1 <0>        -0.1015
      2 C2          0.7314    1.4282   -0.8804 C.ar      1 <0>        -0.1169
      3 C3          2.0146    0.9660   -0.6713 C.ar      1 <0>        -0.0749
      4 C4          2.2417   -0.3994   -0.5009 C.ar      1 <0>        -0.0486
      5 C5          1.1690   -1.2897   -0.5430 C.ar      1 <0>        -0.0915
      6 C6         -0.1096   -0.8154   -0.7529 C.ar      1 <0>        -0.1263
      7 C7          3.6170   -0.9022   -0.2765 C.ar      1 <0>         0.1612
      8 C8          3.8656   -1.8957    0.7645 C.ar      1 <0>         0.1447
      9 N1          5.0861   -2.3521    0.9743 N.ar      1 <0>        -0.4053
     10 C9          6.1016   -1.9017    0.2285 C.ar      1 <0>         0.0834
     11 C10         7.4071   -2.3713    0.4315 C.ar      1 <0>        -0.0723
     12 C11         8.4348   -1.8925   -0.3495 C.ar      1 <0>         0.0816
     13 C12         8.2007   -0.9303   -1.3592 C.ar      1 <0>         0.0794
     14 C13         6.9228   -0.4424   -1.5908 C.ar      1 <0>        -0.0208
     15 C14         5.8528   -0.9049   -0.8161 C.ar      1 <0>         0.0708
     16 N2          4.6091   -0.4536   -1.0222 N.ar      1 <0>        -0.4015
     17 N3          9.4040   -0.6700   -1.9399 N.2       1 <0>        -0.4996
     18 C15        10.3295   -1.3848   -1.3723 C.2       1 <0>         0.3115
     19 N4          9.7943   -2.1562   -0.3872 N.pl3     1 <0>        -0.6152
     20 H1         10.2757   -2.7758    0.1831 H         1 <0>         0.4324
     21 C16         2.7413   -2.3937    1.5904 C.ar      1 <0>         0.0007
     22 C17         1.8061   -1.5001    2.1121 C.ar      1 <0>        -0.0785
     23 C18         0.7607   -1.9702    2.8803 C.ar      1 <0>        -0.0958
     24 C19         0.6391   -3.3248    3.1333 C.ar      1 <0>        -0.1524
     25 C20         1.5637   -4.2161    2.6189 C.ar      1 <0>        -0.0917
     26 C21         2.6102   -3.7588    1.8446 C.ar      1 <0>        -0.0791
     27 C22        -0.5050   -3.8316    3.9730 C.3       1 <0>         0.0439
     28 N5         -1.6500   -4.1398    3.1058 N.4       1 <0>        -0.3853
     29 C23        -2.1345   -2.9037    2.4799 C.3       1 <0>        -0.0076
     30 C24        -3.2750   -3.2299    1.5134 C.3       1 <0>        -0.1650
     31 C25        -4.4178   -3.8942    2.2866 C.3       1 <0>         0.1609
     32 C26        -3.8835   -5.1418    2.9961 C.3       1 <0>        -0.1670
     33 C27        -2.7204   -4.7447    3.9077 C.3       1 <0>         0.0012
     34 N6         -5.4814   -4.2781    1.3552 N.am      1 <0>        -0.5372
     35 C28        -6.7971   -3.8220    1.3875 C.ar      1 <0>         0.0797
     36 C29        -7.4804   -2.9461    2.2173 C.ar      1 <0>        -0.1043
     37 C30        -8.8177   -2.6864    1.9906 C.ar      1 <0>        -0.1028
     38 C31        -9.4789   -3.2972    0.9388 C.ar      1 <0>        -0.0991
     39 C32        -8.8069   -4.1714    0.1073 C.ar      1 <0>        -0.1001
     40 C33        -7.4638   -4.4377    0.3264 C.ar      1 <0>         0.0915
     41 N7         -6.5326   -5.2489   -0.3177 N.am      1 <0>        -0.6395
     42 H2         -6.7042   -5.8035   -1.0948 H         1 <0>         0.4396
     43 C34        -5.3523   -5.1275    0.3185 C.2       1 <0>         0.6858
     44 O1         -4.3255   -5.7011    0.0062 O.2       1 <0>        -0.5577
     45 H3         -1.3318    0.9072   -1.0807 H         1 <0>         0.1264
     46 H4          0.5543    2.4853   -1.0128 H         1 <0>         0.1312
     47 H5          2.8414    1.6601   -0.6400 H         1 <0>         0.1307
     48 H6          1.3388   -2.3482   -0.4121 H         1 <0>         0.1209
     49 H7         -0.9412   -1.5037   -0.7854 H         1 <0>         0.1224
     50 H8          7.6058   -3.1058    1.1980 H         1 <0>         0.1452
     51 H9          6.7546    0.2922   -2.3644 H         1 <0>         0.1545
     52 H10        11.3746   -1.3690   -1.6441 H         1 <0>         0.2289
     53 H11         1.9003   -0.4423    1.9155 H         1 <0>         0.1390
     54 H12         0.0362   -1.2791    3.2851 H         1 <0>         0.1364
     55 H13         1.4639   -5.2725    2.8205 H         1 <0>         0.1364
     56 H14         3.3289   -4.4560    1.4399 H         1 <0>         0.1396
     57 H15        -0.1963   -4.7336    4.5014 H         1 <0>         0.1396
     58 H16        -0.7918   -3.0675    4.6955 H         1 <0>         0.1381
     59 H17        -2.4959   -2.2237    3.2514 H         1 <0>         0.1329
     60 H18        -1.3192   -2.4304    1.9326 H         1 <0>         0.1401
     61 H19        -3.6345   -2.3106    1.0510 H         1 <0>         0.1174
     62 H20        -2.9146   -3.9097    0.7412 H         1 <0>         0.1072
     63 H21        -4.8126   -3.1961    3.0248 H         1 <0>         0.1149
     64 H22        -4.6779   -5.5891    3.5935 H         1 <0>         0.1178
     65 H23        -3.5357   -5.8612    2.2547 H         1 <0>         0.1075
     66 H24        -2.3377   -5.6306    4.4145 H         1 <0>         0.1383
     67 H25        -3.0693   -4.0255    4.6487 H         1 <0>         0.1334
     68 H26        -6.9680   -2.4682    3.0392 H         1 <0>         0.1289
     69 H27        -9.3501   -2.0042    2.6368 H         1 <0>         0.1385
     70 H28       -10.5249   -3.0895    0.7680 H         1 <0>         0.1398
     71 H29        -9.3262   -4.6466   -0.7118 H         1 <0>         0.1365
     72 H30        -1.3620   -4.7875    2.3878 H         1 <0>         0.4262
@<TRIPOS>BOND
     1    1    6 ar
     2    1    2 ar
     3    1   45 1
     4    2    3 ar
     5    2   46 1
     6    3    4 ar
     7    3   47 1
     8    4    5 ar
     9    4    7 1
    10    5    6 ar
    11    5   48 1
    12    6   49 1
    13    7   16 ar
    14    7    8 ar
    15    8    9 ar
    16    8   21 1
    17    9   10 ar
    18   10   15 ar
    19   10   11 ar
    20   11   12 ar
    21   11   50 1
    22   12   19 1
    23   12   13 ar
    24   13   14 ar
    25   13   17 1
    26   14   15 ar
    27   14   51 1
    28   15   16 ar
    29   17   18 2
    30   18   19 1
    31   18   52 1
    32   19   20 1
    33   21   26 ar
    34   21   22 ar
    35   22   23 ar
    36   22   53 1
    37   23   24 ar
    38   23   54 1
    39   24   25 ar
    40   24   27 1
    41   25   26 ar
    42   25   55 1
    43   26   56 1
    44   27   28 1
    45   27   57 1
    46   27   58 1
    47   28   33 1
    48   28   29 1
    49   28   72 1
    50   29   30 1
    51   29   59 1
    52   29   60 1
    53   30   31 1
    54   30   61 1
    55   30   62 1
    56   31   32 1
    57   31   34 1
    58   31   63 1
    59   32   33 1
    60   32   64 1
    61   32   65 1
    62   33   66 1
    63   33   67 1
    64   34   43 am
    65   34   35 1
    66   35   40 ar
    67   35   36 ar
    68   36   37 ar
    69   36   68 1
    70   37   38 ar
    71   37   69 1
    72   38   39 ar
    73   38   70 1
    74   39   40 ar
    75   39   71 1
    76   40   41 1
    77   41   42 1
    78   41   43 am
    79   43   44 2
@<TRIPOS>MOLECULE
ZINC16052630
   45    48     0     0     0
SMALL
USER_CHARGES
4-[(4-chlorophenyl)methyl]-1-(7H-pyrrolo[3,2-e]pyrimidin-4-yl)piperidin-4-amine
@<TRIPOS>ATOM
      1 C1          0.8279   -2.7837   -3.6169 C.ar      1 <0>        -0.1276
      2 C2          1.4920   -3.2183   -4.7485 C.ar      1 <0>        -0.1007
      3 C3          2.8657   -3.3808   -4.7245 C.ar      1 <0>        -0.0248
      4 C4          3.5745   -3.1027   -3.5693 C.ar      1 <0>        -0.0987
      5 C5          2.9100   -2.6628   -2.4401 C.ar      1 <0>        -0.0908
      6 C6          1.5373   -2.5006   -2.4647 C.ar      1 <0>        -0.1245
      7 C7          0.8134   -2.0208   -1.2332 C.3       1 <0>        -0.0869
      8 C8          0.7375   -0.4928   -1.2489 C.3       1 <0>         0.0685
      9 C9          0.0021   -0.0041    0.0020 C.3       1 <0>        -0.1354
     10 C10        -0.0187    1.5261    0.0104 C.3       1 <0>         0.0489
     11 N1          1.3585    2.0357    0.0000 N.pl3     1 <0>        -0.4633
     12 C11         2.0699    1.6185   -1.2150 C.3       1 <0>         0.0394
     13 C12         2.1530    0.0910   -1.2600 C.3       1 <0>        -0.1364
     14 C13         1.3790    3.4117    0.1386 C.ar      1 <0>         0.3925
     15 C14         2.5935    4.1145    0.1611 C.ar      1 <0>        -0.2155
     16 C15         4.0044    3.7477    0.0545 C.2       1 <0>        -0.1806
     17 C16         4.7095    4.8877    0.1386 C.2       1 <0>         0.0695
     18 N2          3.8569    5.9513    0.2853 N.pl3     1 <0>        -0.5668
     19 H1          4.1324    6.8778    0.3668 H         1 <0>         0.4292
     20 C17         2.5610    5.5143    0.2994 C.ar      1 <0>         0.3321
     21 N3          1.3775    6.1154    0.4137 N.ar      1 <0>        -0.5346
     22 C18         0.2639    5.4158    0.3925 C.ar      1 <0>         0.3428
     23 N4          0.2487    4.1015    0.2595 N.ar      1 <0>        -0.5752
     24 Cl1         3.6997   -3.9329   -6.1434 Cl        1 <0>        -0.0443
     25 H2         -0.2450   -2.6610   -3.6342 H         1 <0>         0.1328
     26 H3          0.9381   -3.4352   -5.6500 H         1 <0>         0.1427
     27 H4          4.6469   -3.2290   -3.5501 H         1 <0>         0.1438
     28 H5          3.4632   -2.4453   -1.5384 H         1 <0>         0.1410
     29 H6          1.3521   -2.3487   -0.3442 H         1 <0>         0.1249
     30 H7         -0.1950   -2.4346   -1.2202 H         1 <0>         0.1038
     31 H8          0.5174   -0.3659    0.8918 H         1 <0>         0.1246
     32 H9         -1.0203   -0.3818   -0.0060 H         1 <0>         0.1043
     33 H10        -0.5461    1.8871   -0.8725 H         1 <0>         0.0482
     34 H11        -0.5291    1.8775    0.9071 H         1 <0>         0.1188
     35 H12         3.0763    2.0369   -1.2084 H         1 <0>         0.1208
     36 H13         1.5326    1.9790   -2.0923 H         1 <0>         0.0414
     37 H14         2.7021   -0.2693   -0.3901 H         1 <0>         0.1269
     38 H15         2.6673   -0.2188   -2.1698 H         1 <0>         0.1047
     39 H16         4.4034    2.7512   -0.0644 H         1 <0>         0.1565
     40 H17         5.7864    4.9563    0.0963 H         1 <0>         0.1882
     41 H18        -0.6770    5.9373    0.4881 H         1 <0>         0.2052
     42 H19         0.4806   -0.3602   -3.2873 H         1 <0>         0.4336
     43 H20        -0.9442   -0.3645   -2.4295 H         1 <0>         0.4366
     44 N5          0.0159   -0.0244   -2.4453 N.4       1 <0>        -0.6478
     45 H21         0.0075    1.0023   -2.4540 H         1 <0>         0.4324
@<TRIPOS>BOND
     1    1    6 ar
     2    1    2 ar
     3    1   25 1
     4    2    3 ar
     5    2   26 1
     6    3    4 ar
     7    3   24 1
     8    4    5 ar
     9    4   27 1
    10    5    6 ar
    11    5   28 1
    12    6    7 1
    13    7    8 1
    14    7   29 1
    15    7   30 1
    16    8   13 1
    17    8    9 1
    18    8   44 1
    19    9   10 1
    20    9   31 1
    21    9   32 1
    22   10   11 1
    23   10   33 1
    24   10   34 1
    25   11   12 1
    26   11   14 1
    27   12   13 1
    28   12   35 1
    29   12   36 1
    30   13   37 1
    31   13   38 1
    32   14   23 ar
    33   14   15 ar
    34   15   20 ar
    35   15   16 1
    36   16   17 2
    37   16   39 1
    38   17   18 1
    39   17   40 1
    40   18   19 1
    41   18   20 1
    42   20   21 ar
    43   21   22 ar
    44   22   23 ar
    45   22   41 1
    46   42   44 1
    47   43   44 1
    48   44   45 1
@<TRIPOS>MOLECULE
ZINC01667535
   23    24     0     0     0
SMALL
USER_CHARGES

@<TRIPOS>ATOM
      1 C1         -0.0168    1.3849    0.0097 C.ar      1 <0>        -0.2209
      2 C2          1.1707    2.0901    0.0021 C.ar      1 <0>         0.0259
      3 C3          2.3774    1.4150   -0.0135 C.ar      1 <0>        -0.6797
      4 C4          2.3998    0.0323   -0.0211 C.ar      1 <0>         0.0258
      5 C5          1.2161   -0.6790   -0.0137 C.ar      1 <0>        -0.2208
      6 C6          0.0021   -0.0041    0.0020 C.ar      1 <0>         0.2500
      7 N1         -1.1970   -0.7204    0.0101 N.pl3     1 <0>        -0.8751
      8 S1          3.8900    2.3186   -0.0243 S.o2      1 <0>         2.6456
      9 O1          4.8717    1.4606   -0.5894 O.2       1 <0>        -1.0069
     10 O2          3.5945    3.5988   -0.5657 O.2       1 <0>        -1.0067
     11 N2          4.3264    2.5618    1.5546 N.2       1 <0>        -1.0186
     12 C7          5.4905    3.2539    1.8537 C.2       1 <0>         0.4312
     13 N3          6.3871    3.8052    1.0464 N.2       1 <0>        -0.4399
     14 N4          7.4027    4.4057    1.4922 N.2       1 <0>        -0.2335
     15 C8          7.6382    4.5240    2.7830 C.2       1 <0>        -0.0597
     16 S2          6.2105    3.6664    3.4404 S.3       1 <0>        -0.1512
     17 H1         -0.9589    1.9127    0.0260 H         1 <0>         0.1247
     18 H2          1.1567    3.1700    0.0080 H         1 <0>         0.1372
     19 H3          3.3440   -0.4918   -0.0333 H         1 <0>         0.1372
     20 H4          1.2342   -1.7588   -0.0200 H         1 <0>         0.1247
     21 H5         -2.0441   -0.2480    0.0210 H         1 <0>         0.3982
     22 H6         -1.1825   -1.6903    0.0047 H         1 <0>         0.3982
     23 H7          8.4567    5.0051    3.2979 H         1 <0>         0.2143
@<TRIPOS>BOND
     1    1    6 ar
     2    1    2 ar
     3    1   17 1
     4    2    3 ar
     5    2   18 1
     6    3    4 ar
     7    3    8 1
     8    4    5 ar
     9    4   19 1
    10    5    6 ar
    11    5   20 1
    12    6    7 1
    13    7   21 1
    14    7   22 1
    15    8    9 2
    16    8   10 2
    17    8   11 1
    18   11   12 1
    19   12   16 1
    20   12   13 2
    21   13   14 1
    22   14   15 2
    23   15   16 1
    24   15   23 1
@<TRIPOS>MOLECULE
ZINC14957904
   48    51     0     0     0
SMALL
USER_CHARGES
2-[4-(3-phenylquinoxalin-2-yl)phenyl]propan-2-amine
@<TRIPOS>ATOM
      1 C1         -1.3322    6.0214    1.9321 C.3       1 <0>        -0.1803
      2 C2         -1.8263    4.7633    1.2151 C.3       1 <0>         0.1176
      3 C3         -2.4747    5.1552   -0.1141 C.3       1 <0>        -0.1742
      4 C4         -0.6612    3.8437    0.9539 C.ar      1 <0>        -0.1228
      5 C5          0.6034    4.3712    0.7631 C.ar      1 <0>        -0.0886
      6 C6          1.6730    3.5346    0.5179 C.ar      1 <0>        -0.0683
      7 C7          1.4793    2.1543    0.4740 C.ar      1 <0>        -0.0096
      8 C8          0.2031    1.6282    0.6728 C.ar      1 <0>        -0.0691
      9 C9         -0.8597    2.4753    0.9116 C.ar      1 <0>        -0.1278
     10 C10         2.6244    1.2504    0.2167 C.ar      1 <0>         0.1340
     11 C11         3.5440    1.5544   -0.8177 C.ar      1 <0>         0.1615
     12 N1          4.5708    0.7586   -1.0522 N.ar      1 <0>        -0.4091
     13 C12         4.7375   -0.3458   -0.3163 C.ar      1 <0>         0.0904
     14 C13         5.8197   -1.2120   -0.5511 C.ar      1 <0>        -0.0842
     15 C14         5.9674   -2.3303    0.2106 C.ar      1 <0>        -0.0870
     16 C15         5.0602   -2.6320    1.2248 C.ar      1 <0>        -0.0899
     17 C16         4.0005   -1.8173    1.4814 C.ar      1 <0>        -0.0837
     18 C17         3.8139   -0.6530    0.7157 C.ar      1 <0>         0.0794
     19 N2          2.7800    0.1629    0.9487 N.ar      1 <0>        -0.4070
     20 C18         3.3553    2.7746   -1.6364 C.ar      1 <0>        -0.0566
     21 C19         2.0934    3.0932   -2.1374 C.ar      1 <0>        -0.0905
     22 C20         1.9226    4.2344   -2.8941 C.ar      1 <0>        -0.1211
     23 C21         3.0025    5.0551   -3.1664 C.ar      1 <0>        -0.0998
     24 C22         4.2578    4.7413   -2.6770 C.ar      1 <0>        -0.1178
     25 C23         4.4399    3.6062   -1.9139 C.ar      1 <0>        -0.0770
     26 H1         -0.5995    6.5318    1.3069 H         1 <0>         0.1092
     27 H2         -2.1749    6.6865    2.1210 H         1 <0>         0.0874
     28 H3         -0.8703    5.7422    2.8791 H         1 <0>         0.0862
     29 H4         -2.8266    4.2589   -0.6249 H         1 <0>         0.0837
     30 H5         -3.3173    5.8203    0.0748 H         1 <0>         0.0863
     31 H6         -1.7420    5.6656   -0.7393 H         1 <0>         0.1078
     32 H7          0.7530    5.4401    0.8018 H         1 <0>         0.1409
     33 H8          2.6590    3.9478    0.3646 H         1 <0>         0.1391
     34 H9          0.0470    0.5601    0.6404 H         1 <0>         0.1390
     35 H10        -1.8484    2.0691    1.0661 H         1 <0>         0.1221
     36 H11         6.5312   -0.9909   -1.3330 H         1 <0>         0.1455
     37 H12         6.7999   -2.9933    0.0268 H         1 <0>         0.1434
     38 H13         5.1999   -3.5254    1.8153 H         1 <0>         0.1427
     39 H14         3.3053   -2.0645    2.2701 H         1 <0>         0.1428
     40 H15         1.2507    2.4505   -1.9298 H         1 <0>         0.1202
     41 H16         0.9450    4.4845   -3.2790 H         1 <0>         0.1265
     42 H17         2.8649    5.9447   -3.7633 H         1 <0>         0.1285
     43 H18         5.0969    5.3863   -2.8923 H         1 <0>         0.1315
     44 H19         5.4203    3.3624   -1.5321 H         1 <0>         0.1292
     45 H20        -3.1555    3.2405    1.6058 H         1 <0>         0.4340
     46 H21        -2.4289    3.8633    2.9659 H         1 <0>         0.4385
     47 N3         -2.8315    4.0933    2.0589 N.4       1 <0>        -0.6439
     48 H22        -3.6303    4.7235    2.1971 H         1 <0>         0.4408
@<TRIPOS>BOND
     1    1    2 1
     2    1   26 1
     3    1   27 1
     4    1   28 1
     5    2    3 1
     6    2    4 1
     7    2   47 1
     8    3   29 1
     9    3   30 1
    10    3   31 1
    11    4    9 ar
    12    4    5 ar
    13    5    6 ar
    14    5   32 1
    15    6    7 ar
    16    6   33 1
    17    7    8 ar
    18    7   10 1
    19    8    9 ar
    20    8   34 1
    21    9   35 1
    22   10   19 ar
    23   10   11 ar
    24   11   12 ar
    25   11   20 1
    26   12   13 ar
    27   13   18 ar
    28   13   14 ar
    29   14   15 ar
    30   14   36 1
    31   15   16 ar
    32   15   37 1
    33   16   17 ar
    34   16   38 1
    35   17   18 ar
    36   17   39 1
    37   18   19 ar
    38   20   25 ar
    39   20   21 ar
    40   21   22 ar
    41   21   40 1
    42   22   23 ar
    43   22   41 1
    44   23   24 ar
    45   23   42 1
    46   24   25 ar
    47   24   43 1
    48   25   44 1
    49   45   47 1
    50   46   47 1
    51   47   48 1
@<TRIPOS>MOLECULE
ZINC16052569
   50    53     0     0     0
SMALL
USER_CHARGES

@<TRIPOS>ATOM
      1 C1         -0.0184    1.5028    0.0103 C.3       1 <0>        -0.0807
      2 C2          0.0021   -0.0041    0.0020 C.2       1 <0>         0.1088
      3 C3          0.0083   -0.8581   -1.1820 C.ar      1 <0>        -0.1763
      4 C4         -0.0019   -0.6082   -2.5573 C.ar      1 <0>        -0.0083
      5 C5          0.0079   -1.6738   -3.4431 C.ar      1 <0>        -0.1061
      6 C6          0.0279   -2.9891   -2.9631 C.ar      1 <0>        -0.0534
      7 C7          0.0380   -3.2410   -1.6234 C.ar      1 <0>        -0.1371
      8 C8          0.0285   -2.1860   -0.7124 C.ar      1 <0>         0.1440
      9 N1          0.0337   -2.1193    0.6566 N.pl3     1 <0>        -0.5045
     10 H1          0.0468   -2.8812    1.2569 H         1 <0>         0.4444
     11 N2          0.0230   -0.7772    1.0497 N.2       1 <0>        -0.2435
     12 C9         -0.0034   -1.4202   -4.9053 C.ar      1 <0>        -0.0271
     13 C10         0.0004   -2.4846   -5.8096 C.ar      1 <0>        -0.1014
     14 C11        -0.0110   -2.1940   -7.1677 C.ar      1 <0>         0.0698
     15 C12        -0.0257   -0.8671   -7.5756 C.ar      1 <0>         0.0161
     16 N3         -0.0289    0.1132   -6.6940 N.ar      1 <0>        -0.4368
     17 C13        -0.0238   -0.1167   -5.3969 C.ar      1 <0>         0.0812
     18 O1         -0.0074   -3.1961   -8.0859 O.3       1 <0>        -0.3231
     19 C14        -0.0198   -2.8144   -9.4629 C.3       1 <0>         0.0274
     20 C15        -0.0136   -4.0682  -10.3397 C.3       1 <0>         0.0437
     21 H2          0.8359   -4.6958  -10.0703 H         1 <0>         0.1553
     22 C16         0.0989   -3.6615  -11.8104 C.3       1 <0>        -0.0972
     23 C17         0.2286   -4.8962  -12.6646 C.ar      1 <0>        -0.1303
     24 C18         1.4792   -5.4136  -12.9461 C.ar      1 <0>        -0.1030
     25 C19         1.5982   -6.5462  -13.7296 C.ar      1 <0>        -0.1053
     26 C20         0.4666   -7.1617  -14.2312 C.ar      1 <0>        -0.1014
     27 C21        -0.7840   -6.6448  -13.9490 C.ar      1 <0>        -0.1075
     28 C22        -0.9032   -5.5147  -13.1619 C.ar      1 <0>        -0.1401
     29 N4         -1.2605   -4.8167  -10.1327 N.4       1 <0>        -0.6365
     30 H3          1.0042    1.8801    0.0026 H         1 <0>         0.0878
     31 H4         -0.5455    1.8639   -0.8728 H         1 <0>         0.0842
     32 H5         -0.5286    1.8543    0.9071 H         1 <0>         0.0843
     33 H6         -0.0177    0.4067   -2.9264 H         1 <0>         0.1366
     34 H7          0.0350   -3.8127   -3.6617 H         1 <0>         0.1316
     35 H8          0.0531   -4.2604   -1.2670 H         1 <0>         0.1332
     36 H9          0.0123   -3.5071   -5.4619 H         1 <0>         0.1476
     37 H10        -0.0343   -0.6345   -8.6302 H         1 <0>         0.1565
     38 H11        -0.0314    0.7142   -4.7071 H         1 <0>         0.1670
     39 H12        -0.9167   -2.2306   -9.6700 H         1 <0>         0.0927
     40 H13         0.8631   -2.2138   -9.6814 H         1 <0>         0.1143
     41 H14        -0.7936   -3.1088  -12.1038 H         1 <0>         0.1038
     42 H15         0.9777   -3.0313  -11.9469 H         1 <0>         0.1255
     43 H16         2.3632   -4.9328  -12.5542 H         1 <0>         0.1308
     44 H17         2.5752   -6.9501  -13.9502 H         1 <0>         0.1335
     45 H18         0.5596   -8.0462  -14.8440 H         1 <0>         0.1330
     46 H19        -1.6681   -7.1255  -14.3411 H         1 <0>         0.1326
     47 H20        -1.8805   -5.1130  -12.9382 H         1 <0>         0.1228
     48 H21        -1.2564   -5.6436  -10.7110 H         1 <0>         0.4365
     49 H22        -1.3347   -5.0850   -9.1628 H         1 <0>         0.4422
     50 H23        -2.0469   -4.2358  -10.3821 H         1 <0>         0.4324
@<TRIPOS>BOND
     1    1    2 1
     2    1   30 1
     3    1   31 1
     4    1   32 1
     5    2   11 2
     6    2    3 1
     7    3    8 ar
     8    3    4 ar
     9    4    5 ar
    10    4   33 1
    11    5    6 ar
    12    5   12 1
    13    6    7 ar
    14    6   34 1
    15    7    8 ar
    16    7   35 1
    17    8    9 1
    18    9   10 1
    19    9   11 1
    20   12   17 ar
    21   12   13 ar
    22   13   14 ar
    23   13   36 1
    24   14   15 ar
    25   14   18 1
    26   15   16 ar
    27   15   37 1
    28   16   17 ar
    29   17   38 1
    30   18   19 1
    31   19   20 1
    32   19   39 1
    33   19   40 1
    34   20   21 1
    35   20   22 1
    36   20   29 1
    37   22   23 1
    38   22   41 1
    39   22   42 1
    40   23   28 ar
    41   23   24 ar
    42   24   25 ar
    43   24   43 1
    44   25   26 ar
    45   25   44 1
    46   26   27 ar
    47   26   45 1
    48   27   28 ar
    49   27   46 1
    50   28   47 1
    51   29   48 1
    52   29   49 1
    53   29   50 1
@<TRIPOS>MOLECULE
ZINC16052239
   54    58     0     0     0
SMALL
USER_CHARGES

@<TRIPOS>ATOM
      1 C1         -0.0127    1.0858    0.0080 C.3       1 <0>        -0.0807
      2 C2         -0.7416    1.5850   -1.2129 C.2       1 <0>         0.1087
      3 C3         -2.1734    1.8530   -1.3107 C.ar      1 <0>        -0.1761
      4 C4         -3.2414    1.7529   -0.4150 C.ar      1 <0>        -0.0088
      5 C5         -4.5171    2.0954   -0.8352 C.ar      1 <0>        -0.1054
      6 C6         -4.7322    2.5376   -2.1458 C.ar      1 <0>        -0.0533
      7 C7         -3.6953    2.6377   -3.0258 C.ar      1 <0>        -0.1375
      8 C8         -2.4036    2.2996   -2.6271 C.ar      1 <0>         0.1438
      9 N1         -1.1890    2.2950   -3.2623 N.pl3     1 <0>        -0.5049
     10 N2         -0.2060    1.8599   -2.3676 N.2       1 <0>        -0.2437
     11 H1         -1.0352    2.5551   -4.1840 H         1 <0>         0.4442
     12 C9         -5.6587    1.9924    0.1074 C.ar      1 <0>        -0.0277
     13 C10        -6.9504    2.3286   -0.3040 C.ar      1 <0>        -0.1020
     14 C11        -7.9845    2.2145    0.6161 C.ar      1 <0>         0.0708
     15 C12        -7.7007    1.7740    1.9017 C.ar      1 <0>         0.0161
     16 N3         -6.4690    1.4650    2.2561 N.ar      1 <0>        -0.4369
     17 C13        -5.4593    1.5533    1.4145 C.ar      1 <0>         0.0804
     18 O1         -9.2582    2.5305    0.2625 O.3       1 <0>        -0.3230
     19 C14       -10.2649    2.3862    1.2664 C.3       1 <0>         0.0265
     20 C15       -11.6236    2.7854    0.6872 C.3       1 <0>         0.0434
     21 H2        -11.5614    3.7928    0.2757 H         1 <0>         0.1527
     22 C16       -12.6798    2.7508    1.7936 C.3       1 <0>        -0.0555
     23 C17       -13.9907    3.2611    1.2529 C.2       1 <0>        -0.2374
     24 C18       -14.4526    4.5188    1.3344 C.2       1 <0>         0.1039
     25 N4        -15.6775    4.6060    0.7309 N.pl3     1 <0>        -0.5846
     26 H3        -16.2092    5.4146    0.6634 H         1 <0>         0.4265
     27 C19       -16.0431    3.3752    0.2336 C.ar      1 <0>         0.0987
     28 C20       -14.9996    2.4801    0.5332 C.ar      1 <0>        -0.1171
     29 C21       -15.0936    1.1440    0.1399 C.ar      1 <0>        -0.1140
     30 C22       -16.1988    0.7126   -0.5384 C.ar      1 <0>        -0.1192
     31 C23       -17.2289    1.5925   -0.8399 C.ar      1 <0>        -0.0932
     32 C24       -17.1609    2.9133   -0.4531 C.ar      1 <0>        -0.1110
     33 N5        -11.9980    1.8442   -0.3768 N.4       1 <0>        -0.6362
     34 H4          0.0021   -0.0041    0.0020 H         1 <0>         0.0877
     35 H5          1.0099    1.4631    0.0003 H         1 <0>         0.0842
     36 H6         -0.5229    1.4373    0.9048 H         1 <0>         0.0843
     37 H7         -3.0742    1.4112    0.5958 H         1 <0>         0.1365
     38 H8         -5.7300    2.8021   -2.4634 H         1 <0>         0.1317
     39 H9         -3.8757    2.9800   -4.0341 H         1 <0>         0.1330
     40 H10        -7.1402    2.6688   -1.3113 H         1 <0>         0.1473
     41 H11        -8.5004    1.6834    2.6220 H         1 <0>         0.1570
     42 H12        -4.4656    1.2863    1.7425 H         1 <0>         0.1665
     43 H13       -10.3018    1.3484    1.5974 H         1 <0>         0.0919
     44 H14       -10.0280    3.0297    2.1137 H         1 <0>         0.1138
     45 H15       -12.8055    1.7263    2.1440 H         1 <0>         0.0999
     46 H16       -12.3585    3.3815    2.6225 H         1 <0>         0.1218
     47 H17       -13.9343    5.3402    1.8067 H         1 <0>         0.1791
     48 H18       -14.2955    0.4538    0.3705 H         1 <0>         0.1149
     49 H19       -16.2710   -0.3212   -0.8425 H         1 <0>         0.1312
     50 H20       -18.0956    1.2368   -1.3772 H         1 <0>         0.1352
     51 H21       -17.9671    3.5904   -0.6935 H         1 <0>         0.1294
     52 H22       -12.8940    2.1074   -0.7588 H         1 <0>         0.4379
     53 H23       -11.3015    1.8670   -1.1064 H         1 <0>         0.4392
     54 H24       -12.0556    0.9116    0.0041 H         1 <0>         0.4300
@<TRIPOS>BOND
     1    1   34 1
     2    1   35 1
     3    1   36 1
     4    1    2 1
     5    2    3 1
     6    2   10 2
     7    3    4 ar
     8    3    8 ar
     9    4    5 ar
    10    4   37 1
    11    5    6 ar
    12    5   12 1
    13    6    7 ar
    14    6   38 1
    15    7    8 ar
    16    7   39 1
    17    8    9 1
    18    9   10 1
    19    9   11 1
    20   12   17 ar
    21   12   13 ar
    22   13   14 ar
    23   13   40 1
    24   14   15 ar
    25   14   18 1
    26   15   16 ar
    27   15   41 1
    28   16   17 ar
    29   17   42 1
    30   18   19 1
    31   19   20 1
    32   19   43 1
    33   19   44 1
    34   20   21 1
    35   20   22 1
    36   20   33 1
    37   22   23 1
    38   22   45 1
    39   22   46 1
    40   23   28 1
    41   23   24 2
    42   24   25 1
    43   24   47 1
    44   25   26 1
    45   25   27 1
    46   27   32 ar
    47   27   28 ar
    48   28   29 ar
    49   29   30 ar
    50   29   48 1
    51   30   31 ar
    52   30   49 1
    53   31   32 ar
    54   31   50 1
    55   32   51 1
    56   33   52 1
    57   33   53 1
    58   33   54 1
@<TRIPOS>MOLECULE
ZINC29047753
   31    34     0     0     0
SMALL
USER_CHARGES

@<TRIPOS>ATOM
      1 C1         -0.5931   -0.8608   -2.6101 C.2       1 <0>        -0.1767
      2 C2          0.5362   -1.0632   -3.3084 C.2       1 <0>         0.0719
      3 N1          1.5595   -1.3837   -2.4541 N.pl3     1 <0>        -0.5698
      4 H1          2.4713   -1.5738   -2.7251 H         1 <0>         0.4289
      5 C3          1.1061   -1.3955   -1.1638 C.ar      1 <0>         0.3239
      6 C4         -0.2621   -1.0687   -1.2017 C.ar      1 <0>        -0.1995
      7 C5         -0.9742   -1.0117    0.0059 C.ar      1 <0>         0.4585
      8 N2         -0.3220   -1.2699    1.1358 N.ar      1 <0>        -0.5481
      9 C6          0.9636   -1.5728    1.1260 C.ar      1 <0>         0.3285
     10 N3          1.6702   -1.6380    0.0183 N.ar      1 <0>        -0.5218
     11 N4         -2.3205   -0.6946    0.0209 N.pl3     1 <0>        -0.6509
     12 C7         -3.3442   -1.7456   -0.0788 C.3       1 <0>         0.1470
     13 C8         -4.1579   -1.7816    1.2207 C.3       1 <0>        -0.0798
     14 C9         -4.5163   -0.3692    1.6100 C.2       1 <0>         0.0458
     15 C10        -3.8979    0.7330    1.1345 C.2       1 <0>         0.0382
     16 N5         -4.4909    1.8106    1.7154 N.pl3     1 <0>        -0.4978
     17 H2         -4.2618    2.7422    1.5727 H         1 <0>         0.4660
     18 C11        -5.4611    1.3355    2.5304 C.cat     1 <0>         0.2976
     19 N6         -5.4681    0.0300    2.4595 N.pl3     1 <0>        -0.4684
     20 C12        -2.7663    0.7055    0.1435 C.3       1 <0>         0.2128
     21 H3         -1.5588   -0.5915   -3.0117 H         1 <0>         0.1563
     22 H4          0.6248   -0.9852   -4.3819 H         1 <0>         0.1883
     23 H5          1.4549   -1.7755    2.0661 H         1 <0>         0.2044
     24 H6         -4.0064   -1.5306   -0.9174 H         1 <0>         0.0832
     25 H7         -2.8614   -2.7107   -0.2330 H         1 <0>         0.0998
     26 H8         -5.0687   -2.3599    1.0654 H         1 <0>         0.1087
     27 H9         -3.5632   -2.2387    2.0115 H         1 <0>         0.1101
     28 H10        -6.1207    1.9358    3.1395 H         1 <0>         0.2678
     29 H11        -1.9451    1.3265    0.5015 H         1 <0>         0.1063
     30 H12        -3.1144    1.0701   -0.8229 H         1 <0>         0.1040
     31 H13        -6.0689   -0.5559    2.9459 H         1 <0>         0.4645
@<TRIPOS>BOND
     1    1    6 1
     2    1    2 2
     3    1   21 1
     4    2    3 1
     5    2   22 1
     6    3    4 1
     7    3    5 1
     8    5   10 ar
     9    5    6 ar
    10    6    7 ar
    11    7    8 ar
    12    7   11 1
    13    8    9 ar
    14    9   10 ar
    15    9   23 1
    16   11   20 1
    17   11   12 1
    18   12   13 1
    19   12   24 1
    20   12   25 1
    21   13   14 1
    22   13   26 1
    23   13   27 1
    24   14   19 1
    25   14   15 2
    26   15   16 1
    27   15   20 1
    28   16   17 1
    29   16   18 1
    30   18   19 2
    31   18   28 1
    32   19   31 1
    33   20   29 1
    34   20   30 1
@<TRIPOS>MOLECULE
ZINC29047753
   30    33     0     0     0
SMALL
USER_CHARGES
4-(3,4,6,7-tetrahydroimidazo[4,5-c]pyridin-5-yl)-7H-pyrrolo[2,3-d]pyrimidine
@<TRIPOS>ATOM
      1 C1         -4.7578    0.1553    1.9378 C.2       1 <0>        -0.1703
      2 C2         -5.8045   -0.6057    2.2971 C.2       1 <0>         0.0451
      3 N1         -6.9479   -0.1309    1.7082 N.pl3     1 <0>        -0.5835
      4 H1         -7.9096   -0.6329    1.8902 H         1 <0>         0.4513
      5 C3         -6.6601    0.9655    0.9428 C.ar      1 <0>         0.3405
      6 C4         -5.2760    1.1954    1.0511 C.ar      1 <0>        -0.2225
      7 C5         -4.7165    2.2757    0.3522 C.ar      1 <0>         0.4126
      8 N2         -5.5228    3.0396   -0.3792 N.ar      1 <0>        -0.5798
      9 C6         -6.8165    2.7850   -0.4570 C.ar      1 <0>         0.3413
     10 N3         -7.3837    1.7838    0.1806 N.ar      1 <0>        -0.5514
     11 N4         -3.3613    2.5428    0.4266 N.pl3     1 <0>        -0.4681
     12 C7         -3.0127    3.7240   -0.3751 C.3       1 <0>         0.0652
     13 C8         -1.6173    4.2250    0.0308 C.3       1 <0>        -0.0422
     14 C9         -0.6817    3.0408    0.0220 C.2       1 <0>        -0.0446
     15 C10        -1.1145    1.7594    0.0162 C.2       1 <0>        -0.0028
     16 N5         -0.0111    0.9658    0.0074 N.2       1 <0>        -0.4810
     17 C11         1.0661    1.7859    0.0015 C.2       1 <0>         0.1661
     18 N6          0.6512    3.0267    0.0106 N.pl3     1 <0>        -0.5246
     19 C12        -2.5688    1.3675    0.0253 C.3       1 <0>         0.1506
     20 H2         -3.7307    0.0238    2.2446 H         1 <0>         0.1534
     21 H3         -5.7531   -1.4631    2.9517 H         1 <0>         0.1822
     22 H4         -7.4350    3.4280   -1.0656 H         1 <0>         0.1999
     23 H5         -3.0099    3.4553   -1.4418 H         1 <0>         0.0581
     24 H6         -3.7531    4.5182   -0.1990 H         1 <0>         0.1060
     25 H7         -1.2774    4.9854   -0.6877 H         1 <0>         0.0846
     26 H8         -1.6647    4.6667    1.0371 H         1 <0>         0.0864
     27 H9          2.0983    1.4681   -0.0094 H         1 <0>         0.2086
     28 H10        -2.7351    0.5507    0.7430 H         1 <0>         0.1073
     29 H11        -2.8783    1.0420   -0.9788 H         1 <0>         0.0627
     30 H12         1.2113    3.9734    0.0101 H         1 <0>         0.4490
@<TRIPOS>BOND
     1    1    6 1
     2    1    2 2
     3    1   20 1
     4    2    3 1
     5    2   21 1
     6    3    4 1
     7    3    5 1
     8    5   10 ar
     9    5    6 ar
    10    6    7 ar
    11    7    8 ar
    12    7   11 1
    13    8    9 ar
    14    9   10 ar
    15    9   22 1
    16   11   19 1
    17   11   12 1
    18   12   13 1
    19   12   23 1
    20   12   24 1
    21   13   14 1
    22   13   25 1
    23   13   26 1
    24   14   18 1
    25   14   15 2
    26   15   16 1
    27   15   19 1
    28   16   17 2
    29   17   18 1
    30   17   27 1
    31   18   30 1
    32   19   28 1
    33   19   29 1
@<TRIPOS>MOLECULE
ZINC28714095
   62    67     0     0     0
SMALL
USER_CHARGES
N-(4-hydroxycyclohexyl)-3-[4-(4-hydroxyphenyl)phenyl]-1,4-dihydroindeno[1,2-c]pyrazole-6-carboxamide
@<TRIPOS>ATOM
      1 C1          3.5844    5.3599    0.6882 C.ar      1 <0>        -0.1162
      2 C2          2.7790    4.2424    0.6905 C.ar      1 <0>        -0.0841
      3 C3          1.5622    4.2586    0.0100 C.ar      1 <0>        -0.0212
      4 C4          1.1626    5.4041   -0.6770 C.ar      1 <0>        -0.0865
      5 C5          1.9651    6.5238   -0.6747 C.ar      1 <0>        -0.1157
      6 C6          3.1825    6.5077    0.0055 C.ar      1 <0>        -0.0241
      7 C7          4.0496    7.7106    0.0025 C.ar      1 <0>        -0.0946
      8 C8          5.2644    7.6977    0.6864 C.ar      1 <0>        -0.0643
      9 C9          6.0710    8.8161    0.6773 C.ar      1 <0>        -0.1614
     10 C10         5.6695    9.9578   -0.0032 C.ar      1 <0>         0.1615
     11 C11         4.4576    9.9757   -0.6805 C.ar      1 <0>        -0.2135
     12 C12         3.6490    8.8587   -0.6796 C.ar      1 <0>        -0.0653
     13 O1          6.4640   11.0600   -0.0060 O.3       1 <0>        -0.5096
     14 C13         0.6953    3.0545    0.0118 C.2       1 <0>         0.1379
     15 C14        -0.7085    3.0512    0.0252 C.2       1 <0>        -0.2195
     16 C15        -1.1284    1.7549    0.0163 C.2       1 <0>         0.0808
     17 N1         -0.0111    0.9658    0.0074 N.pl3     1 <0>        -0.4626
     18 H1         -0.1114   -0.1296    0.0063 H         1 <0>         0.4717
     19 N2          1.1102    1.8043    0.0011 N.2       1 <0>        -0.2432
     20 C16        -2.6056    1.6992    0.0365 C.ar      1 <0>        -0.0084
     21 C17        -3.4888    0.6134    0.0396 C.ar      1 <0>        -0.1023
     22 C18        -4.8373    0.8246    0.0544 C.ar      1 <0>        -0.0849
     23 C19        -5.3474    2.1258    0.0666 C.ar      1 <0>        -0.1225
     24 C20        -4.4711    3.2158    0.0635 C.ar      1 <0>        -0.0369
     25 C21        -3.1147    2.9996    0.0486 C.ar      1 <0>        -0.0767
     26 C22        -1.9313    3.9361    0.0421 C.3       1 <0>        -0.0125
     27 C23        -6.8069    2.3490    0.0821 C.2       1 <0>         0.5615
     28 O2         -7.2486    3.4817    0.0922 O.2       1 <0>        -0.5345
     29 N3         -7.6495    1.2971    0.0850 N.am      1 <0>        -0.7348
     30 C24        -9.0976    1.5185    0.1004 C.3       1 <0>         0.1464
     31 C25        -9.5685    1.7125    1.5431 C.3       1 <0>        -0.1253
     32 C26       -11.0808    1.9438    1.5592 C.3       1 <0>        -0.1105
     33 C27       -11.7886    0.7317    0.9503 C.3       1 <0>         0.1144
     34 C28       -11.3177    0.5377   -0.4924 C.3       1 <0>        -0.1470
     35 C29        -9.8053    0.3064   -0.5085 C.3       1 <0>        -0.1233
     36 O3        -13.2011    0.9477    0.9653 O.3       1 <0>        -0.6016
     37 H2          4.5270    5.3474    1.2153 H         1 <0>         0.1290
     38 H3          3.0902    3.3536    1.2192 H         1 <0>         0.1283
     39 H4          0.2219    5.4151   -1.2075 H         1 <0>         0.1279
     40 H5          1.6538    7.4124   -1.2038 H         1 <0>         0.1294
     41 H6          5.5752    6.8114    1.2197 H         1 <0>         0.1327
     42 H7          7.0140    8.8054    1.2035 H         1 <0>         0.1310
     43 H8          4.1481   10.8652   -1.2090 H         1 <0>         0.1292
     44 H9          2.7063    8.8733   -1.2063 H         1 <0>         0.1287
     45 H10         6.1470   11.9651   -0.5448 H         1 <0>         0.4351
     46 H11        -3.1021   -0.3949    0.0307 H         1 <0>         0.1297
     47 H12        -5.5133   -0.0177    0.0564 H         1 <0>         0.1313
     48 H13        -4.8594    4.2236    0.0725 H         1 <0>         0.1443
     49 H14        -1.9155    4.5662    0.9436 H         1 <0>         0.1042
     50 H15        -1.9332    4.5761   -0.8525 H         1 <0>         0.1025
     51 H16        -7.2499    0.2723    0.0758 H         1 <0>         0.4168
     52 H17        -9.2940    2.4217   -0.4960 H         1 <0>         0.0915
     53 H18        -9.3287    0.8142    2.1310 H         1 <0>         0.0672
     54 H19        -9.0596    2.5839    1.9809 H         1 <0>         0.0759
     55 H20       -11.4194    2.0833    2.5965 H         1 <0>         0.0731
     56 H21       -11.3206    2.8421    0.9713 H         1 <0>         0.0734
     57 H22       -11.6171   -0.1737    1.5510 H         1 <0>         0.0508
     58 H23       -11.8266   -0.3337   -0.9301 H         1 <0>         0.0704
     59 H24       -11.5576    1.4359   -1.0803 H         1 <0>         0.0750
     60 H25        -9.4667    0.1670   -1.5457 H         1 <0>         0.0738
     61 H26        -9.5654   -0.5918    0.0794 H         1 <0>         0.0709
     62 H27       -13.8793    0.1795    0.5654 H         1 <0>         0.4066
@<TRIPOS>BOND
     1    1    6 ar
     2    1    2 ar
     3    1   37 1
     4    2    3 ar
     5    2   38 1
     6    3    4 ar
     7    3   14 1
     8    4    5 ar
     9    4   39 1
    10    5    6 ar
    11    5   40 1
    12    6    7 1
    13    7   12 ar
    14    7    8 ar
    15    8    9 ar
    16    8   41 1
    17    9   10 ar
    18    9   42 1
    19   10   11 ar
    20   10   13 1
    21   11   12 ar
    22   11   43 1
    23   12   44 1
    24   13   45 1
    25   14   19 2
    26   14   15 1
    27   15   26 1
    28   15   16 2
    29   16   17 1
    30   16   20 1
    31   17   18 1
    32   17   19 1
    33   20   25 ar
    34   20   21 ar
    35   21   22 ar
    36   21   46 1
    37   22   23 ar
    38   22   47 1
    39   23   24 ar
    40   23   27 1
    41   24   25 ar
    42   24   48 1
    43   25   26 1
    44   26   49 1
    45   26   50 1
    46   27   28 2
    47   27   29 am
    48   29   30 1
    49   29   51 1
    50   30   35 1
    51   30   31 1
    52   30   52 1
    53   31   32 1
    54   31   53 1
    55   31   54 1
    56   32   33 1
    57   32   55 1
    58   32   56 1
    59   33   34 1
    60   33   36 1
    61   33   57 1
    62   34   35 1
    63   34   58 1
    64   34   59 1
    65   35   60 1
    66   35   61 1
    67   36   62 1
@<TRIPOS>MOLECULE
ZINC04983926
   34    37     0     0     0
SMALL
USER_CHARGES
hydroxy-methyl-BLAHtrione
@<TRIPOS>ATOM
      1 C1         -0.0127    1.0858    0.0080 C.3       1 <0>        -0.1530
      2 C2         -0.7288    1.5792    1.2668 C.3       1 <0>         0.1234
      3 H1         -0.7061    2.6690    1.2761 H         1 <0>         0.1008
      4 C3          0.0141    1.0703    2.4760 C.2       1 <0>        -0.1250
      5 C4         -0.5735    0.3158    3.4284 C.2       1 <0>        -0.1065
      6 C5         -2.0050   -0.0365    3.2496 C.3       1 <0>         0.0806
      7 H2         -2.0678   -0.9160    2.6088 H         1 <0>         0.1208
      8 C6         -2.6772    1.1566    2.5054 C.3       1 <0>         0.0519
      9 H3         -2.5156    2.1017    3.0239 H         1 <0>         0.1037
     10 O1         -2.0964    1.1511    1.2150 O.3       1 <0>        -0.3338
     11 C7         -4.1333    0.6877    2.6318 C.3       1 <0>        -0.1708
     12 C8         -4.1312    0.0839    4.0385 C.2       1 <0>         0.4866
     13 O2         -5.1059   -0.0704    4.7357 O.2       1 <0>        -0.4314
     14 O3         -2.8627   -0.2348    4.3782 O.3       1 <0>        -0.3088
     15 C9          0.1784   -0.1473    4.6078 C.2       1 <0>         0.4217
     16 O4         -0.3787   -0.8119    5.4589 O.2       1 <0>        -0.3916
     17 C10         1.6071    0.1945    4.7584 C.ar      1 <0>        -0.1054
     18 C11         2.3354   -0.2355    5.8595 C.ar      1 <0>        -0.0730
     19 C12         3.6785    0.0985    5.9746 C.ar      1 <0>        -0.0750
     20 C13         4.2976    0.8557    5.0037 C.ar      1 <0>        -0.1263
     21 C14         3.5825    1.2983    3.8905 C.ar      1 <0>         0.1713
     22 C15         2.2307    0.9701    3.7630 C.ar      1 <0>        -0.1615
     23 C16         1.4466    1.4241    2.6041 C.2       1 <0>         0.4285
     24 O5          1.9796    2.0966    1.7432 O.2       1 <0>        -0.3975
     25 O6          4.1957    2.0432    2.9386 O.3       1 <0>        -0.4755
     26 H4          0.0021   -0.0041    0.0020 H         1 <0>         0.0659
     27 H5          1.0099    1.4631    0.0003 H         1 <0>         0.0950
     28 H6         -0.5399    1.4469   -0.8751 H         1 <0>         0.0801
     29 H7         -4.8229    1.5294    2.5677 H         1 <0>         0.1279
     30 H8         -4.3686   -0.0668    1.8812 H         1 <0>         0.1319
     31 H9          1.8582   -0.8291    6.6252 H         1 <0>         0.1494
     32 H10         4.2423   -0.2377    6.8322 H         1 <0>         0.1467
     33 H11         5.3429    1.1078    5.1051 H         1 <0>         0.1475
     34 H12         4.5941    1.5225    2.2278 H         1 <0>         0.4016
@<TRIPOS>BOND
     1    1    2 1
     2    1   26 1
     3    1   27 1
     4    1   28 1
     5    2    3 1
     6    2   10 1
     7    2    4 1
     8    4   23 1
     9    4    5 2
    10    5    6 1
    11    5   15 1
    12    6    7 1
    13    6   14 1
    14    6    8 1
    15    8    9 1
    16    8   10 1
    17    8   11 1
    18   11   12 1
    19   11   29 1
    20   11   30 1
    21   12   13 2
    22   12   14 1
    23   15   16 2
    24   15   17 1
    25   17   22 ar
    26   17   18 ar
    27   18   19 ar
    28   18   31 1
    29   19   20 ar
    30   19   32 1
    31   20   21 ar
    32   20   33 1
    33   21   22 ar
    34   21   25 1
    35   22   23 1
    36   23   24 2
    37   25   34 1
@<TRIPOS>MOLECULE
ZINC34285211
   59    62     0     0     0
SMALL
USER_CHARGES

@<TRIPOS>ATOM
      1 C1         -0.0187    1.5258    0.0104 C.3       1 <0>        -0.1656
      2 C2          0.0021   -0.0041    0.0020 C.3       1 <0>         0.0991
      3 N1          0.6878   -0.4765   -1.2033 N.pl3     1 <0>        -0.4455
      4 C3          0.1084   -0.7452   -2.4220 C.ar      1 <0>         0.0734
      5 C4         -1.1885   -0.6848   -2.9333 C.ar      1 <0>         0.0979
      6 C5         -1.4068   -1.0423   -4.2530 C.ar      1 <0>         0.0255
      7 N2         -0.4156   -1.4373   -5.0310 N.ar      1 <0>        -0.4288
      8 C6          0.8360   -1.5144   -4.6003 C.ar      1 <0>         0.2963
      9 C7          1.1491   -1.1685   -3.2692 C.ar      1 <0>         0.0642
     10 N3          2.2847   -1.1401   -2.5504 N.2       1 <0>        -0.4358
     11 C8          2.0279   -0.7287   -1.3319 C.2       1 <0>         0.3425
     12 C9          3.0324   -0.5655   -0.2583 C.2       1 <0>         0.1311
     13 C10         4.4724   -0.8253   -0.3802 C.2       1 <0>         0.3646
     14 N4          5.0335   -0.5707    0.7697 N.2       1 <0>        -0.3434
     15 O1          4.0212   -0.1472    1.6654 O.3       1 <0>         0.0494
     16 N5          2.7917   -0.1594    0.9619 N.2       1 <0>        -0.2485
     17 N6          5.1251   -1.2670   -1.5235 N.pl3     1 <0>        -0.7999
     18 C11         1.8718   -1.9500   -5.4881 C.1       1 <0>        -0.1208
     19 C12         2.7209   -2.3071   -6.2159 C.1       1 <0>        -0.0802
     20 C13         3.7856   -2.7549   -7.1284 C.3       1 <0>         0.2403
     21 C14         5.1250   -2.7540   -6.3888 C.3       1 <0>        -0.1769
     22 C15         3.4749   -4.1704   -7.6190 C.3       1 <0>        -0.1771
     23 O2          3.8585   -1.8683   -8.2468 O.3       1 <0>        -0.5533
     24 O3         -2.2219   -0.2814   -2.1476 O.3       1 <0>        -0.3053
     25 C16        -3.5183   -0.2475   -2.7478 C.3       1 <0>         0.0602
     26 C17        -4.5450    0.2275   -1.7176 C.3       1 <0>        -0.1100
     27 H1         -4.4926   -0.4065   -0.8325 H         1 <0>         0.1080
     28 C18        -4.2441    1.6772   -1.3267 C.3       1 <0>        -0.1348
     29 C19        -5.3219    2.1680   -0.3558 C.3       1 <0>        -0.1475
     30 C20        -6.6969    2.0173   -1.0100 C.3       1 <0>        -0.0100
     31 N7         -6.9357    0.6061   -1.3358 N.4       1 <0>        -0.5023
     32 C21        -5.9489    0.1476   -2.3210 C.3       1 <0>        -0.0035
     33 H2          1.0039    1.9031    0.0027 H         1 <0>         0.0658
     34 H3         -0.5459    1.8868   -0.8726 H         1 <0>         0.0628
     35 H4         -0.5289    1.8773    0.9072 H         1 <0>         0.0853
     36 H5          0.5293   -0.3651    0.8851 H         1 <0>         0.1095
     37 H6         -1.0205   -0.3814    0.0098 H         1 <0>         0.1024
     38 H7         -2.4085   -0.9976   -4.6543 H         1 <0>         0.1718
     39 H8          4.6220   -1.4309   -2.3365 H         1 <0>         0.4312
     40 H9          6.0842   -1.4116   -1.5092 H         1 <0>         0.4212
     41 H10         5.0694   -3.4303   -5.5357 H         1 <0>         0.0725
     42 H11         5.9134   -3.0856   -7.0645 H         1 <0>         0.0747
     43 H12         5.3464   -1.7456   -6.0392 H         1 <0>         0.0708
     44 H13         2.5207   -4.1710   -8.1459 H         1 <0>         0.0706
     45 H14         4.2633   -4.5020   -8.2948 H         1 <0>         0.0744
     46 H15         3.4193   -4.8466   -6.7660 H         1 <0>         0.0730
     47 H16         4.5403   -2.1031   -8.8910 H         1 <0>         0.3893
     48 H17        -3.5089    0.4388   -3.5945 H         1 <0>         0.0809
     49 H18        -3.7852   -1.2465   -3.0928 H         1 <0>         0.0809
     50 H19        -3.2679    1.7296   -0.8445 H         1 <0>         0.1002
     51 H20        -4.2451    2.3031   -2.2191 H         1 <0>         0.0849
     52 H21        -5.2864    1.5744    0.5577 H         1 <0>         0.0898
     53 H22        -5.1458    3.2167   -0.1163 H         1 <0>         0.1153
     54 H23        -7.4666    2.3660   -0.3215 H         1 <0>         0.1359
     55 H24        -6.7314    2.6114   -1.9232 H         1 <0>         0.1322
     56 H25        -6.8551    0.0502   -0.4977 H         1 <0>         0.4295
     57 H26        -5.9999    0.7811   -3.2066 H         1 <0>         0.1367
     58 H27        -6.1659   -0.8835   -2.6000 H         1 <0>         0.1389
     59 H28        -7.8638    0.5026   -1.7178 H         1 <0>         0.4360
@<TRIPOS>BOND
     1    1    2 1
     2    1   33 1
     3    1   34 1
     4    1   35 1
     5    2    3 1
     6    2   36 1
     7    2   37 1
     8    3   11 1
     9    3    4 1
    10    4    9 ar
    11    4    5 ar
    12    5    6 ar
    13    5   24 1
    14    6    7 ar
    15    6   38 1
    16    7    8 ar
    17    8    9 ar
    18    8   18 1
    19    9   10 1
    20   10   11 2
    21   11   12 1
    22   12   16 2
    23   12   13 1
    24   13   14 2
    25   13   17 1
    26   14   15 1
    27   15   16 1
    28   17   39 1
    29   17   40 1
    30   18   19 3
    31   19   20 1
    32   20   21 1
    33   20   22 1
    34   20   23 1
    35   21   41 1
    36   21   42 1
    37   21   43 1
    38   22   44 1
    39   22   45 1
    40   22   46 1
    41   23   47 1
    42   24   25 1
    43   25   26 1
    44   25   48 1
    45   25   49 1
    46   26   27 1
    47   26   32 1
    48   26   28 1
    49   28   29 1
    50   28   50 1
    51   28   51 1
    52   29   30 1
    53   29   52 1
    54   29   53 1
    55   30   31 1
    56   30   54 1
    57   30   55 1
    58   31   32 1
    59   31   56 1
    60   31   59 1
    61   32   57 1
    62   32   58 1
@<TRIPOS>MOLECULE
ZINC40414458
   55    58     0     0     0
SMALL
USER_CHARGES

@<TRIPOS>ATOM
      1 C1         -0.0451    1.4831   -0.0021 C.3       1 <0>        -0.0554
      2 N1         -0.0145    0.0144   -0.0049 N.4       1 <0>        -0.3889
      3 C2          0.6989   -0.4628    1.1873 C.3       1 <0>        -0.0484
      4 C3         -1.3889   -0.5040    0.0067 C.3       1 <0>        -0.0026
      5 C4         -2.0931   -0.1114   -1.2936 C.3       1 <0>         0.0258
      6 O1         -1.4541   -0.7589   -2.3957 O.3       1 <0>        -0.3331
      7 C5         -1.9611   -0.5147   -3.6335 C.ar      1 <0>         0.0973
      8 C6         -3.0444    0.3328   -3.7831 C.ar      1 <0>        -0.1839
      9 C7         -3.5616    0.5811   -5.0525 C.ar      1 <0>         0.0426
     10 C8         -2.9872   -0.0244   -6.1681 C.ar      1 <0>        -0.1214
     11 C9         -1.9068   -0.8693   -6.0163 C.ar      1 <0>        -0.0823
     12 C10        -1.3863   -1.1135   -4.7530 C.ar      1 <0>         0.1190
     13 N2         -0.2855   -1.9674   -4.6025 N.am      1 <0>        -0.6602
     14 C11         0.5684   -2.1533   -5.6286 C.2       1 <0>         0.5228
     15 O2          0.4425   -1.5067   -6.6471 O.2       1 <0>        -0.4763
     16 C12         1.6795   -3.1645   -5.5105 C.3       1 <0>         0.0360
     17 H1          1.2640   -4.1384   -5.2515 H         1 <0>         0.1163
     18 C13         2.6707   -2.7200   -4.4265 C.3       1 <0>         0.0365
     19 O3          3.7181   -3.6932   -4.3505 O.3       1 <0>        -0.2994
     20 C14         4.2547   -4.1075   -5.5307 C.ar      1 <0>         0.0401
     21 C15         5.4832   -4.7514   -5.5312 C.ar      1 <0>        -0.1086
     22 C16         6.0393   -5.1808   -6.7212 C.ar      1 <0>        -0.1101
     23 C17         5.3733   -4.9697   -7.9141 C.ar      1 <0>        -0.1069
     24 C18         4.1496   -4.3275   -7.9208 C.ar      1 <0>        -0.1065
     25 C19         3.5863   -3.8929   -6.7301 C.ar      1 <0>         0.0489
     26 O4          2.3839   -3.2552   -6.7536 O.3       1 <0>        -0.2775
     27 C20        -4.7244    1.4898   -5.2163 C.2       1 <0>        -0.2179
     28 C21        -5.3330    1.8160   -6.3929 C.2       1 <0>         0.0917
     29 N3         -6.3432    2.6632   -6.1085 N.pl3     1 <0>        -0.4646
     30 H2         -6.9505    3.0607   -6.7521 H         1 <0>         0.4477
     31 N4         -6.3644    2.8693   -4.7238 N.2       1 <0>        -0.2844
     32 C22        -5.4034    2.1667   -4.1847 C.2       1 <0>         0.0657
     33 H3          0.9747    1.8678   -0.0107 H         1 <0>         0.1273
     34 H4         -0.5745    1.8372   -0.8867 H         1 <0>         0.1227
     35 H5         -0.5583    1.8341    0.8932 H         1 <0>         0.1256
     36 H6          0.1857   -0.1118    2.0826 H         1 <0>         0.1239
     37 H7          0.7216   -1.5525    1.1852 H         1 <0>         0.1250
     38 H8          1.7187   -0.0781    1.1787 H         1 <0>         0.1260
     39 H9         -1.3668   -1.5903    0.0942 H         1 <0>         0.1430
     40 H10        -1.9292   -0.0822    0.8542 H         1 <0>         0.1507
     41 H11        -3.1380   -0.4184   -1.2480 H         1 <0>         0.1116
     42 H12        -2.0373    0.9692   -1.4250 H         1 <0>         0.0892
     43 H13        -3.4885    0.8009   -2.9171 H         1 <0>         0.1331
     44 H14        -3.3880    0.1674   -7.1525 H         1 <0>         0.1339
     45 H15        -1.4630   -1.3380   -6.8821 H         1 <0>         0.1578
     46 H16        -0.1380   -2.4247   -3.7599 H         1 <0>         0.4118
     47 H17         3.0900   -1.7484   -4.6880 H         1 <0>         0.0851
     48 H18         2.1598   -2.6540   -3.4659 H         1 <0>         0.1190
     49 H19         6.0058   -4.9170   -4.6007 H         1 <0>         0.1375
     50 H20         6.9961   -5.6818   -6.7193 H         1 <0>         0.1377
     51 H21         5.8101   -5.3070   -8.8425 H         1 <0>         0.1385
     52 H22         3.6313   -4.1639   -8.8541 H         1 <0>         0.1396
     53 H23        -5.0557    1.4608   -7.3744 H         1 <0>         0.1850
     54 H24        -5.1689    2.1162   -3.1317 H         1 <0>         0.1821
     55 H25         0.4605   -0.3105   -0.8337 H         1 <0>         0.4318
@<TRIPOS>BOND
     1    1    2 1
     2    1   33 1
     3    1   34 1
     4    1   35 1
     5    2    3 1
     6    2    4 1
     7    2   55 1
     8    3   36 1
     9    3   37 1
    10    3   38 1
    11    4    5 1
    12    4   39 1
    13    4   40 1
    14    5    6 1
    15    5   41 1
    16    5   42 1
    17    6    7 1
    18    7   12 ar
    19    7    8 ar
    20    8    9 ar
    21    8   43 1
    22    9   10 ar
    23    9   27 1
    24   10   11 ar
    25   10   44 1
    26   11   12 ar
    27   11   45 1
    28   12   13 1
    29   13   14 am
    30   13   46 1
    31   14   15 2
    32   14   16 1
    33   16   17 1
    34   16   26 1
    35   16   18 1
    36   18   19 1
    37   18   47 1
    38   18   48 1
    39   19   20 1
    40   20   25 ar
    41   20   21 ar
    42   21   22 ar
    43   21   49 1
    44   22   23 ar
    45   22   50 1
    46   23   24 ar
    47   23   51 1
    48   24   25 ar
    49   24   52 1
    50   25   26 1
    51   27   32 1
    52   27   28 2
    53   28   29 1
    54   28   53 1
    55   29   30 1
    56   29   31 1
    57   31   32 2
    58   32   54 1
@<TRIPOS>MOLECULE
ZINC40414461
   55    58     0     0     0
SMALL
USER_CHARGES

@<TRIPOS>ATOM
      1 C1         -0.0452    1.4834   -0.0023 C.3       1 <0>        -0.0552
      2 N1         -0.0145    0.0147   -0.0050 N.4       1 <0>        -0.3890
      3 C2          0.6989   -0.4624    1.1872 C.3       1 <0>        -0.0481
      4 C3         -1.3889   -0.5038    0.0066 C.3       1 <0>        -0.0025
      5 C4         -2.0932   -0.1113   -1.2937 C.3       1 <0>         0.0259
      6 O1         -1.4542   -0.7588   -2.3957 O.3       1 <0>        -0.3328
      7 C5         -1.9611   -0.5147   -3.6336 C.ar      1 <0>         0.0975
      8 C6         -3.0445    0.3327   -3.7832 C.ar      1 <0>        -0.1839
      9 C7         -3.5617    0.5809   -5.0525 C.ar      1 <0>         0.0427
     10 C8         -2.9873   -0.0246   -6.1682 C.ar      1 <0>        -0.1214
     11 C9         -1.9069   -0.8695   -6.0163 C.ar      1 <0>        -0.0825
     12 C10        -1.3863   -1.1136   -4.7530 C.ar      1 <0>         0.1191
     13 N2         -0.2855   -1.9674   -4.6025 N.am      1 <0>        -0.6604
     14 C11         0.5684   -2.1533   -5.6286 C.2       1 <0>         0.5225
     15 O2          0.4425   -1.5067   -6.6471 O.2       1 <0>        -0.4764
     16 C12         1.6795   -3.1645   -5.5105 C.3       1 <0>         0.0385
     17 H1          2.2767   -2.9524   -4.6237 H         1 <0>         0.1109
     18 C13         1.0859   -4.5761   -5.4090 C.3       1 <0>         0.0340
     19 O3          2.1662   -5.5108   -5.3126 O.3       1 <0>        -0.2979
     20 C14         3.1965   -5.3469   -6.1868 C.ar      1 <0>         0.0419
     21 C15         4.0809   -6.3937   -6.4005 C.ar      1 <0>        -0.1088
     22 C16         5.1338   -6.2413   -7.2826 C.ar      1 <0>        -0.1096
     23 C17         5.3084   -5.0457   -7.9544 C.ar      1 <0>        -0.1085
     24 C18         4.4299   -3.9992   -7.7471 C.ar      1 <0>        -0.1071
     25 C19         3.3704   -4.1459   -6.8640 C.ar      1 <0>         0.0470
     26 O4          2.5091   -3.1086   -6.6760 O.3       1 <0>        -0.2785
     27 C20        -4.7246    1.4895   -5.2164 C.2       1 <0>        -0.2179
     28 C21        -5.3332    1.8157   -6.3930 C.2       1 <0>         0.0917
     29 N3         -6.3434    2.6628   -6.1086 N.pl3     1 <0>        -0.4646
     30 H2         -6.9508    3.0602   -6.7522 H         1 <0>         0.4477
     31 N4         -6.3647    2.8690   -4.7239 N.2       1 <0>        -0.2844
     32 C22        -5.4036    2.1665   -4.1848 C.2       1 <0>         0.0657
     33 H3          0.9746    1.8681   -0.0109 H         1 <0>         0.1272
     34 H4         -0.5746    1.8373   -0.8869 H         1 <0>         0.1226
     35 H5         -0.5584    1.8344    0.8930 H         1 <0>         0.1255
     36 H6          0.1858   -0.1114    2.0825 H         1 <0>         0.1238
     37 H7          0.7217   -1.5522    1.1851 H         1 <0>         0.1248
     38 H8          1.7187   -0.0777    1.1785 H         1 <0>         0.1258
     39 H9         -1.3667   -1.5901    0.0942 H         1 <0>         0.1428
     40 H10        -1.9292   -0.0820    0.8541 H         1 <0>         0.1505
     41 H11        -3.1380   -0.4183   -1.2480 H         1 <0>         0.1116
     42 H12        -2.0374    0.9693   -1.4252 H         1 <0>         0.0891
     43 H13        -3.4886    0.8009   -2.9172 H         1 <0>         0.1331
     44 H14        -3.3882    0.1671   -7.1525 H         1 <0>         0.1338
     45 H15        -1.4631   -1.3382   -6.8821 H         1 <0>         0.1573
     46 H16        -0.1380   -2.4247   -3.7599 H         1 <0>         0.4122
     47 H17         0.4575   -4.6477   -4.5213 H         1 <0>         0.1249
     48 H18         0.4928   -4.7903   -6.2981 H         1 <0>         0.0877
     49 H19         3.9469   -7.3287   -5.8769 H         1 <0>         0.1382
     50 H20         5.8212   -7.0578   -7.4477 H         1 <0>         0.1376
     51 H21         6.1329   -4.9291   -8.6421 H         1 <0>         0.1379
     52 H22         4.5686   -3.0662   -8.2731 H         1 <0>         0.1386
     53 H23        -5.0559    1.4604   -7.3745 H         1 <0>         0.1849
     54 H24        -5.1691    2.1161   -3.1318 H         1 <0>         0.1821
     55 H25         0.4605   -0.3103   -0.8338 H         1 <0>         0.4323
@<TRIPOS>BOND
     1    1    2 1
     2    1   33 1
     3    1   34 1
     4    1   35 1
     5    2    3 1
     6    2    4 1
     7    2   55 1
     8    3   36 1
     9    3   37 1
    10    3   38 1
    11    4    5 1
    12    4   39 1
    13    4   40 1
    14    5    6 1
    15    5   41 1
    16    5   42 1
    17    6    7 1
    18    7   12 ar
    19    7    8 ar
    20    8    9 ar
    21    8   43 1
    22    9   10 ar
    23    9   27 1
    24   10   11 ar
    25   10   44 1
    26   11   12 ar
    27   11   45 1
    28   12   13 1
    29   13   14 am
    30   13   46 1
    31   14   15 2
    32   14   16 1
    33   16   17 1
    34   16   26 1
    35   16   18 1
    36   18   19 1
    37   18   47 1
    38   18   48 1
    39   19   20 1
    40   20   25 ar
    41   20   21 ar
    42   21   22 ar
    43   21   49 1
    44   22   23 ar
    45   22   50 1
    46   23   24 ar
    47   23   51 1
    48   24   25 ar
    49   24   52 1
    50   25   26 1
    51   27   32 1
    52   27   28 2
    53   28   29 1
    54   28   53 1
    55   29   30 1
    56   29   31 1
    57   31   32 2
    58   32   54 1
@<TRIPOS>MOLECULE
ZINC34894468
   59    62     0     0     0
SMALL
USER_CHARGES

@<TRIPOS>ATOM
      1 C1         -0.0187    1.5258    0.0104 C.3       1 <0>        -0.1654
      2 C2          0.0021   -0.0041    0.0020 C.3       1 <0>         0.0997
      3 N1          0.6878   -0.4765   -1.2033 N.pl3     1 <0>        -0.4456
      4 C3          0.1084   -0.7452   -2.4220 C.ar      1 <0>         0.0734
      5 C4         -1.1885   -0.6848   -2.9333 C.ar      1 <0>         0.0979
      6 C5         -1.4068   -1.0423   -4.2530 C.ar      1 <0>         0.0255
      7 N2         -0.4156   -1.4373   -5.0310 N.ar      1 <0>        -0.4288
      8 C6          0.8360   -1.5144   -4.6003 C.ar      1 <0>         0.2963
      9 C7          1.1491   -1.1685   -3.2692 C.ar      1 <0>         0.0642
     10 N3          2.2847   -1.1401   -2.5504 N.2       1 <0>        -0.4357
     11 C8          2.0279   -0.7287   -1.3319 C.2       1 <0>         0.3425
     12 C9          3.0324   -0.5655   -0.2583 C.2       1 <0>         0.1311
     13 C10         4.4724   -0.8253   -0.3802 C.2       1 <0>         0.3646
     14 N4          5.0335   -0.5707    0.7697 N.2       1 <0>        -0.3434
     15 O1          4.0212   -0.1472    1.6654 O.3       1 <0>         0.0494
     16 N5          2.7917   -0.1594    0.9619 N.2       1 <0>        -0.2485
     17 N6          5.1251   -1.2670   -1.5235 N.pl3     1 <0>        -0.7999
     18 C11         1.8718   -1.9500   -5.4881 C.1       1 <0>        -0.1207
     19 C12         2.7209   -2.3071   -6.2159 C.1       1 <0>        -0.0802
     20 C13         3.7856   -2.7549   -7.1284 C.3       1 <0>         0.2403
     21 C14         5.1250   -2.7540   -6.3888 C.3       1 <0>        -0.1769
     22 C15         3.4749   -4.1704   -7.6190 C.3       1 <0>        -0.1771
     23 O2          3.8585   -1.8683   -8.2468 O.3       1 <0>        -0.5533
     24 O3         -2.2219   -0.2814   -2.1476 O.3       1 <0>        -0.3053
     25 C16        -3.5183   -0.2475   -2.7478 C.3       1 <0>         0.0602
     26 C17        -4.5450    0.2275   -1.7176 C.3       1 <0>        -0.1101
     27 H1         -4.2313    1.1872   -1.3070 H         1 <0>         0.1084
     28 C18        -4.6505   -0.8019   -0.5887 C.3       1 <0>        -0.1341
     29 C19        -5.7357   -0.3560    0.3956 C.3       1 <0>        -0.1476
     30 C20        -7.0574   -0.1814   -0.3555 C.3       1 <0>        -0.0100
     31 N7         -6.8984    0.8337   -1.4036 N.4       1 <0>        -0.5022
     32 C21        -5.9106    0.3814   -2.3906 C.3       1 <0>        -0.0035
     33 H2          1.0039    1.9031    0.0027 H         1 <0>         0.0656
     34 H3         -0.5459    1.8868   -0.8726 H         1 <0>         0.0629
     35 H4         -0.5289    1.8773    0.9072 H         1 <0>         0.0853
     36 H5          0.5293   -0.3651    0.8851 H         1 <0>         0.1094
     37 H6         -1.0205   -0.3814    0.0098 H         1 <0>         0.1017
     38 H7         -2.4085   -0.9976   -4.6543 H         1 <0>         0.1718
     39 H8          4.6220   -1.4309   -2.3365 H         1 <0>         0.4312
     40 H9          6.0842   -1.4116   -1.5092 H         1 <0>         0.4212
     41 H10         5.0694   -3.4303   -5.5357 H         1 <0>         0.0725
     42 H11         5.9134   -3.0856   -7.0645 H         1 <0>         0.0747
     43 H12         5.3464   -1.7456   -6.0392 H         1 <0>         0.0708
     44 H13         2.5207   -4.1710   -8.1459 H         1 <0>         0.0706
     45 H14         4.2633   -4.5020   -8.2948 H         1 <0>         0.0744
     46 H15         3.4193   -4.8466   -6.7660 H         1 <0>         0.0730
     47 H16         4.5403   -2.1031   -8.8910 H         1 <0>         0.3893
     48 H17        -3.5089    0.4388   -3.5945 H         1 <0>         0.0810
     49 H18        -3.7852   -1.2465   -3.0928 H         1 <0>         0.0808
     50 H19        -4.9136   -1.7741   -1.0053 H         1 <0>         0.0850
     51 H20        -3.6947   -0.8730   -0.0697 H         1 <0>         0.0989
     52 H21        -5.8554   -1.1114    1.1722 H         1 <0>         0.1153
     53 H22        -5.4475    0.5918    0.8502 H         1 <0>         0.0899
     54 H23        -7.3448   -1.1298   -0.8094 H         1 <0>         0.1322
     55 H24        -7.8322    0.1358    0.3424 H         1 <0>         0.1359
     56 H25        -7.7848    0.9849   -1.8613 H         1 <0>         0.4361
     57 H26        -5.8384    1.1139   -3.1947 H         1 <0>         0.1390
     58 H27        -6.2228   -0.5785   -2.8018 H         1 <0>         0.1366
     59 H28        -6.5849    1.6982   -0.9883 H         1 <0>         0.4295
@<TRIPOS>BOND
     1    1    2 1
     2    1   33 1
     3    1   34 1
     4    1   35 1
     5    2    3 1
     6    2   36 1
     7    2   37 1
     8    3   11 1
     9    3    4 1
    10    4    9 ar
    11    4    5 ar
    12    5    6 ar
    13    5   24 1
    14    6    7 ar
    15    6   38 1
    16    7    8 ar
    17    8    9 ar
    18    8   18 1
    19    9   10 1
    20   10   11 2
    21   11   12 1
    22   12   16 2
    23   12   13 1
    24   13   14 2
    25   13   17 1
    26   14   15 1
    27   15   16 1
    28   17   39 1
    29   17   40 1
    30   18   19 3
    31   19   20 1
    32   20   21 1
    33   20   22 1
    34   20   23 1
    35   21   41 1
    36   21   42 1
    37   21   43 1
    38   22   44 1
    39   22   45 1
    40   22   46 1
    41   23   47 1
    42   24   25 1
    43   25   26 1
    44   25   48 1
    45   25   49 1
    46   26   27 1
    47   26   32 1
    48   26   28 1
    49   28   29 1
    50   28   50 1
    51   28   51 1
    52   29   30 1
    53   29   52 1
    54   29   53 1
    55   30   31 1
    56   30   54 1
    57   30   55 1
    58   31   32 1
    59   31   56 1
    60   31   59 1
    61   32   57 1
    62   32   58 1
@<TRIPOS>MOLECULE
ZINC16052714
   62    67     0     0     0
SMALL
USER_CHARGES

@<TRIPOS>ATOM
      1 C1         -1.2179    0.3618   -0.7929 C.3       1 <0>        -0.6727
      2 S1         -0.8608   -1.4165   -0.7657 S.o2      1 <0>         2.6086
      3 O1         -0.0554   -1.7368    0.3604 O.2       1 <0>        -0.9532
      4 O2         -2.0406   -2.1570   -1.0467 O.2       1 <0>        -0.9539
      5 N1          0.1211   -1.6734   -2.0742 N.pl3     1 <0>        -1.0033
      6 C2         -0.4464   -1.9994   -3.3914 C.3       1 <0>         0.1224
      7 C3          0.2528   -3.2539   -3.9258 C.3       1 <0>         0.0451
      8 N2          1.7067   -3.0443   -3.9105 N.3       1 <0>        -0.5316
      9 C4          2.2031   -2.8527   -2.5412 C.3       1 <0>         0.0371
     10 C5          1.5835   -1.5758   -1.9515 C.3       1 <0>         0.1234
     11 C6          2.4055   -4.1534   -4.5734 C.3       1 <0>         0.1300
     12 C7          3.8574   -3.7940   -4.7575 C.2       1 <0>        -0.0864
     13 C8          4.8850   -4.0220   -3.9198 C.2       1 <0>        -0.1471
     14 C9          6.2159   -3.5887   -4.2968 C.ar      1 <0>         0.2076
     15 C10         6.2960   -2.9484   -5.5522 C.ar      1 <0>        -0.3029
     16 S2          4.6250   -2.9718   -6.1413 S.3       1 <0>         0.1024
     17 C11         7.5058   -2.4811   -6.0423 C.ar      1 <0>         0.5055
     18 N3          8.5981   -2.6496   -5.2999 N.ar      1 <0>        -0.5559
     19 C12         8.5129   -3.2543   -4.1181 C.ar      1 <0>         0.4114
     20 N4          7.3823   -3.7111   -3.6207 N.ar      1 <0>        -0.5253
     21 C13         9.7506   -3.4228   -3.3231 C.ar      1 <0>         0.0278
     22 C14        10.9622   -2.9521   -3.8074 C.ar      1 <0>        -0.1016
     23 C15        12.1227   -3.1090   -3.0655 C.ar      1 <0>        -0.0792
     24 C16        12.0948   -3.7329   -1.8377 C.ar      1 <0>        -0.1198
     25 C17        10.8933   -4.2156   -1.3259 C.ar      1 <0>         0.1177
     26 C18         9.7061   -4.0584   -2.0641 C.ar      1 <0>        -0.1364
     27 C19         8.6656   -4.6312   -1.2987 C.2       1 <0>         0.0923
     28 N5          9.1685   -5.0916   -0.1893 N.2       1 <0>        -0.2546
     29 N6         10.5502   -4.8651   -0.1671 N.pl3     1 <0>        -0.5083
     30 H1         11.1568   -5.1130    0.5481 H         1 <0>         0.4418
     31 N7          7.5766   -1.8539   -7.2757 N.pl3     1 <0>        -0.5948
     32 C20         6.3563   -1.5252   -8.0294 C.3       1 <0>         0.0878
     33 C21         6.4273   -0.0515   -8.4456 C.3       1 <0>         0.0500
     34 O3          7.6692    0.1903   -9.1113 O.3       1 <0>        -0.3752
     35 C22         8.8226   -0.0241   -8.2943 C.3       1 <0>         0.0453
     36 C23         8.8740   -1.4913   -7.8678 C.3       1 <0>         0.0863
     37 H2         -0.2856    0.9209   -0.7133 H         1 <0>         0.1276
     38 H3         -1.7166    0.6180   -1.7276 H         1 <0>         0.1278
     39 H4         -1.8661    0.6151    0.0461 H         1 <0>         0.1284
     40 H5         -1.5151   -2.1898   -3.2927 H         1 <0>         0.1007
     41 H6         -0.2815   -1.1682   -4.0770 H         1 <0>         0.0790
     42 H7          0.0016   -4.1068   -3.2953 H         1 <0>         0.0472
     43 H8         -0.0762   -3.4465   -4.9469 H         1 <0>         0.0927
     44 H9          1.9247   -3.7112   -1.9300 H         1 <0>         0.0475
     45 H10         3.2885   -2.7545   -2.5582 H         1 <0>         0.0918
     46 H11         1.9397   -0.7046   -2.5013 H         1 <0>         0.0780
     47 H12         1.8575   -1.4860   -0.9003 H         1 <0>         0.0997
     48 H13         2.3283   -5.0505   -3.9590 H         1 <0>         0.0677
     49 H14         1.9510   -4.3394   -5.5465 H         1 <0>         0.1006
     50 H15         4.7202   -4.5219   -2.9767 H         1 <0>         0.1479
     51 H16        11.0018   -2.4609   -4.7683 H         1 <0>         0.1410
     52 H17        13.0593   -2.7381   -3.4547 H         1 <0>         0.1377
     53 H18        13.0070   -3.8483   -1.2711 H         1 <0>         0.1302
     54 H19         7.6256   -4.6789   -1.5860 H         1 <0>         0.2037
     55 H20         6.2923   -2.1546   -8.9170 H         1 <0>         0.0878
     56 H21         5.4812   -1.6871   -7.4000 H         1 <0>         0.0911
     57 H22         5.6022    0.1764   -9.1203 H         1 <0>         0.1135
     58 H23         6.3598    0.5805   -7.5601 H         1 <0>         0.0595
     59 H24         9.7207    0.2235   -8.8601 H         1 <0>         0.1116
     60 H25         8.7638    0.6080   -7.4083 H         1 <0>         0.0581
     61 H26         9.6654   -1.6309   -7.1314 H         1 <0>         0.1107
     62 H27         9.0678   -2.1173   -8.7388 H         1 <0>         0.0783
@<TRIPOS>BOND
     1    1    2 1
     2    1   37 1
     3    1   38 1
     4    1   39 1
     5    2    3 2
     6    2    4 2
     7    2    5 1
     8    5   10 1
     9    5    6 1
    10    6    7 1
    11    6   40 1
    12    6   41 1
    13    7    8 1
    14    7   42 1
    15    7   43 1
    16    8    9 1
    17    8   11 1
    18    9   10 1
    19    9   44 1
    20    9   45 1
    21   10   46 1
    22   10   47 1
    23   11   12 1
    24   11   48 1
    25   11   49 1
    26   12   16 1
    27   12   13 2
    28   13   14 1
    29   13   50 1
    30   14   20 ar
    31   14   15 ar
    32   15   16 1
    33   15   17 ar
    34   17   18 ar
    35   17   31 1
    36   18   19 ar
    37   19   20 ar
    38   19   21 1
    39   21   26 ar
    40   21   22 ar
    41   22   23 ar
    42   22   51 1
    43   23   24 ar
    44   23   52 1
    45   24   25 ar
    46   24   53 1
    47   25   29 1
    48   25   26 ar
    49   26   27 1
    50   27   28 2
    51   27   54 1
    52   28   29 1
    53   29   30 1
    54   31   36 1
    55   31   32 1
    56   32   33 1
    57   32   55 1
    58   32   56 1
    59   33   34 1
    60   33   57 1
    61   33   58 1
    62   34   35 1
    63   35   36 1
    64   35   59 1
    65   35   60 1
    66   36   61 1
    67   36   62 1
@<TRIPOS>MOLECULE
ZINC16052714
   63    68     0     0     0
SMALL
USER_CHARGES

@<TRIPOS>ATOM
      1 C1         -1.2288    0.3975   -0.8157 C.3       1 <0>        -0.6666
      2 S1         -0.8705   -1.3801   -0.7668 S.o2      1 <0>         2.6057
      3 O1         -0.0610   -1.6854    0.3604 O.2       1 <0>        -0.9385
      4 O2         -2.0509   -2.1248   -1.0340 O.2       1 <0>        -0.9391
      5 N1          0.1069   -1.6534   -2.0754 N.pl3     1 <0>        -1.0167
      6 C2         -0.4638   -1.9967   -3.3871 C.3       1 <0>         0.0929
      7 C3          0.2495   -3.2458   -3.9152 C.3       1 <0>        -0.0180
      8 N2          1.6991   -3.0122   -3.9273 N.4       1 <0>        -0.3841
      9 C4          2.1876   -2.8289   -2.5547 C.3       1 <0>        -0.0264
     10 C5          1.5701   -1.5537   -1.9606 C.3       1 <0>         0.0955
     11 C6          2.3742   -4.1665   -4.5353 C.3       1 <0>         0.0906
     12 C7          3.8480   -3.8777   -4.6608 C.2       1 <0>        -0.2191
     13 C8          4.8258   -4.1336   -3.7730 C.2       1 <0>        -0.0705
     14 C9          6.1908   -3.7698   -4.0981 C.ar      1 <0>         0.1897
     15 C10         6.3561   -3.1619   -5.3612 C.ar      1 <0>        -0.2890
     16 S2          4.7135   -3.1223   -6.0247 S.3       1 <0>         0.1250
     17 C11         7.6068   -2.7612   -5.8054 C.ar      1 <0>         0.5074
     18 N3          8.6561   -2.9627   -5.0111 N.ar      1 <0>        -0.5423
     19 C12         8.4906   -3.5364   -3.8224 C.ar      1 <0>         0.4316
     20 N4          7.3192   -3.9301   -3.3675 N.ar      1 <0>        -0.5198
     21 C13         9.6828   -3.7434   -2.9689 C.ar      1 <0>         0.0088
     22 C14        10.9352   -3.3393   -3.4073 C.ar      1 <0>        -0.0901
     23 C15        12.0531   -3.5322   -2.6106 C.ar      1 <0>        -0.0812
     24 C16        11.9420   -4.1268   -1.3730 C.ar      1 <0>        -0.1070
     25 C17        10.6979   -4.5428   -0.9064 C.ar      1 <0>         0.1172
     26 C18         9.5531   -4.3482   -1.7007 C.ar      1 <0>        -0.1343
     27 C19         8.4542   -4.8558   -0.9717 C.2       1 <0>         0.0841
     28 N5          8.8856   -5.3138    0.1684 N.2       1 <0>        -0.2483
     29 N6         10.2740   -5.1500    0.2485 N.pl3     1 <0>        -0.5025
     30 H1         10.8361   -5.4093    0.9953 H         1 <0>         0.4451
     31 N7          7.7612   -2.1655   -7.0467 N.pl3     1 <0>        -0.5896
     32 C20         6.5921   -1.7984   -7.8614 C.3       1 <0>         0.0915
     33 C21         6.7499   -0.3391   -8.3036 C.3       1 <0>         0.0496
     34 O3          8.0299   -0.1690   -8.9171 O.3       1 <0>        -0.3699
     35 C22         9.1348   -0.4174   -8.0446 C.3       1 <0>         0.0446
     36 C23         9.0990   -1.8756   -7.5867 C.3       1 <0>         0.0824
     37 H2         -0.2965    0.9581   -0.7467 H         1 <0>         0.1315
     38 H3         -1.7309    0.6413   -1.7519 H         1 <0>         0.1318
     39 H4         -1.8742    0.6613    0.0221 H         1 <0>         0.1388
     40 H5         -1.5292   -2.2006   -3.2810 H         1 <0>         0.1421
     41 H6         -0.3136   -1.1687   -4.0800 H         1 <0>         0.0993
     42 H7          0.0234   -4.0939   -3.2689 H         1 <0>         0.1407
     43 H8         -0.0927   -3.4589   -4.9279 H         1 <0>         0.1486
     44 H9          1.9028   -3.6897   -1.9496 H         1 <0>         0.1416
     45 H10         3.2735   -2.7349   -2.5649 H         1 <0>         0.1425
     46 H11         1.9222   -0.6817   -2.5118 H         1 <0>         0.0986
     47 H12         1.8499   -1.4646   -0.9109 H         1 <0>         0.1411
     48 H13         2.2283   -5.0452   -3.9071 H         1 <0>         0.1533
     49 H14         1.9551   -4.3531   -5.5241 H         1 <0>         0.1519
     50 H15         4.5964   -4.6044   -2.8284 H         1 <0>         0.1590
     51 H16        11.0401   -2.8718   -4.3752 H         1 <0>         0.1422
     52 H17        13.0223   -3.2131   -2.9644 H         1 <0>         0.1420
     53 H18        12.8219   -4.2709   -0.7635 H         1 <0>         0.1349
     54 H19         7.4269   -4.8625   -1.3048 H         1 <0>         0.2003
     55 H20         6.5382   -2.4438   -8.7381 H         1 <0>         0.0941
     56 H21         5.6834   -1.9063   -7.2691 H         1 <0>         0.0802
     57 H22         5.9669   -0.0889   -9.0194 H         1 <0>         0.1156
     58 H23         6.6727    0.3149   -7.4350 H         1 <0>         0.0597
     59 H24        10.0676   -0.2236   -8.5741 H         1 <0>         0.1177
     60 H25         9.0663    0.2363   -7.1751 H         1 <0>         0.0604
     61 H26         9.8497   -2.0346   -6.8126 H         1 <0>         0.1144
     62 H27         9.3019   -2.5290   -8.4352 H         1 <0>         0.0852
     63 H28         1.9007   -2.1845   -4.4680 H         1 <0>         0.4244
@<TRIPOS>BOND
     1    1    2 1
     2    1   37 1
     3    1   38 1
     4    1   39 1
     5    2    3 2
     6    2    4 2
     7    2    5 1
     8    5   10 1
     9    5    6 1
    10    6    7 1
    11    6   40 1
    12    6   41 1
    13    7    8 1
    14    7   42 1
    15    7   43 1
    16    8    9 1
    17    8   11 1
    18    8   63 1
    19    9   10 1
    20    9   44 1
    21    9   45 1
    22   10   46 1
    23   10   47 1
    24   11   12 1
    25   11   48 1
    26   11   49 1
    27   12   16 1
    28   12   13 2
    29   13   14 1
    30   13   50 1
    31   14   20 ar
    32   14   15 ar
    33   15   16 1
    34   15   17 ar
    35   17   18 ar
    36   17   31 1
    37   18   19 ar
    38   19   20 ar
    39   19   21 1
    40   21   26 ar
    41   21   22 ar
    42   22   23 ar
    43   22   51 1
    44   23   24 ar
    45   23   52 1
    46   24   25 ar
    47   24   53 1
    48   25   29 1
    49   25   26 ar
    50   26   27 1
    51   27   28 2
    52   27   54 1
    53   28   29 1
    54   29   30 1
    55   31   36 1
    56   31   32 1
    57   32   33 1
    58   32   55 1
    59   32   56 1
    60   33   34 1
    61   33   57 1
    62   33   58 1
    63   34   35 1
    64   35   36 1
    65   35   59 1
    66   35   60 1
    67   36   61 1
    68   36   62 1
@<TRIPOS>MOLECULE
ZINC40955526
   46    48     0     0     0
SMALL
USER_CHARGES

@<TRIPOS>ATOM
      1 C1         -0.0187    1.5258    0.0104 C.3       1 <0>        -0.1652
      2 C2          0.0021   -0.0041    0.0020 C.3       1 <0>         0.0990
      3 N1          0.7106   -0.4894    1.1889 N.pl3     1 <0>        -0.4459
      4 C3          2.0598   -0.7391    1.2911 C.ar      1 <0>         0.0738
      5 C4          3.1497   -0.6444    0.4251 C.ar      1 <0>         0.0958
      6 C5          4.4073   -0.9918    0.8888 C.ar      1 <0>         0.0265
      7 N2          4.5920   -1.4088    2.1280 N.ar      1 <0>        -0.4317
      8 C6          3.5947   -1.5188    2.9948 C.ar      1 <0>         0.2965
      9 C7          2.2800   -1.1855    2.6073 C.ar      1 <0>         0.0633
     10 N3          1.0896   -1.1881    3.2317 N.2       1 <0>        -0.4343
     11 C8          0.1563   -0.7746    2.4084 C.2       1 <0>         0.3427
     12 C9         -1.2781   -0.6405    2.7446 C.2       1 <0>         0.1308
     13 C10        -1.8881   -0.9359    4.0472 C.2       1 <0>         0.3648
     14 N4         -3.1683   -0.6994    3.9632 N.2       1 <0>        -0.3442
     15 O1         -3.4447   -0.2538    2.6474 O.3       1 <0>         0.0491
     16 N5         -2.2208   -0.2327    1.9343 N.2       1 <0>        -0.2487
     17 N6         -1.2172   -1.3899    5.1751 N.pl3     1 <0>        -0.7988
     18 C11         3.8527   -1.9771    4.3267 C.1       1 <0>        -0.1212
     19 C12         4.0642   -2.3529    5.4187 C.1       1 <0>        -0.0958
     20 C13         4.3294   -2.8241    6.7878 C.3       1 <0>         0.1857
     21 O2          3.1061   -2.8571    7.5255 O.3       1 <0>        -0.5656
     22 O3          2.9795   -0.2180   -0.8544 O.3       1 <0>        -0.3079
     23 C14         4.1466   -0.1495   -1.6761 C.3       1 <0>         0.0566
     24 C15         3.7600    0.3475   -3.0706 C.3       1 <0>        -0.1545
     25 C16         5.0096    0.4209   -3.9504 C.3       1 <0>        -0.0048
     26 N7          4.6385    0.8981   -5.2892 N.4       1 <0>        -0.6359
     27 H1          1.0039    1.9031    0.0027 H         1 <0>         0.0625
     28 H2         -0.5459    1.8868   -0.8726 H         1 <0>         0.0856
     29 H3         -0.5289    1.8773    0.9072 H         1 <0>         0.0657
     30 H4         -1.0205   -0.3814    0.0098 H         1 <0>         0.1099
     31 H5          0.5123   -0.3556   -0.8948 H         1 <0>         0.1022
     32 H6          5.2547   -0.9205    0.2230 H         1 <0>         0.1720
     33 H7         -0.2592   -1.5382    5.1427 H         1 <0>         0.4321
     34 H8         -1.7066   -1.5586    5.9954 H         1 <0>         0.4213
     35 H9          4.7585   -3.8254    6.7507 H         1 <0>         0.0823
     36 H10         5.0299   -2.1465    7.2759 H         1 <0>         0.0823
     37 H11         3.2056   -3.1589    8.4388 H         1 <0>         0.3936
     38 H12         4.8644    0.5394   -1.2309 H         1 <0>         0.0803
     39 H13         4.5943   -1.1402   -1.7547 H         1 <0>         0.0803
     40 H14         3.0421   -0.3413   -3.5158 H         1 <0>         0.1009
     41 H15         3.3123    1.3382   -2.9920 H         1 <0>         0.1011
     42 H16         5.7275    1.1098   -3.5052 H         1 <0>         0.1398
     43 H17         5.4573   -0.5698   -4.0289 H         1 <0>         0.1398
     44 H18         3.9740    0.2604   -5.7013 H         1 <0>         0.4375
     45 H19         4.2241    1.8152   -5.2165 H         1 <0>         0.4375
     46 H20         5.4626    0.9465   -5.8694 H         1 <0>         0.4429
@<TRIPOS>BOND
     1    1    2 1
     2    1   27 1
     3    1   28 1
     4    1   29 1
     5    2    3 1
     6    2   30 1
     7    2   31 1
     8    3   11 1
     9    3    4 1
    10    4    9 ar
    11    4    5 ar
    12    5    6 ar
    13    5   22 1
    14    6    7 ar
    15    6   32 1
    16    7    8 ar
    17    8    9 ar
    18    8   18 1
    19    9   10 1
    20   10   11 2
    21   11   12 1
    22   12   16 2
    23   12   13 1
    24   13   14 2
    25   13   17 1
    26   14   15 1
    27   15   16 1
    28   17   33 1
    29   17   34 1
    30   18   19 3
    31   19   20 1
    32   20   21 1
    33   20   35 1
    34   20   36 1
    35   21   37 1
    36   22   23 1
    37   23   24 1
    38   23   38 1
    39   23   39 1
    40   24   25 1
    41   24   40 1
    42   24   41 1
    43   25   26 1
    44   25   42 1
    45   25   43 1
    46   26   44 1
    47   26   45 1
    48   26   46 1
@<TRIPOS>MOLECULE
ZINC49757540
   57    58     0     0     0
SMALL
USER_CHARGES

@<TRIPOS>ATOM
      1 C1         -0.0187    1.5258    0.0104 C.3       1 <0>        -0.1540
      2 C2          0.0021   -0.0041    0.0020 C.3       1 <0>        -0.1259
      3 C3          0.7182   -0.4975   -1.2568 C.3       1 <0>        -0.1215
      4 C4          0.7390   -2.0273   -1.2652 C.3       1 <0>        -0.1208
      5 C5          1.4551   -2.5207   -2.5240 C.3       1 <0>        -0.1210
      6 C6          1.4758   -4.0506   -2.5324 C.3       1 <0>        -0.1200
      7 C7          2.1920   -4.5440   -3.7912 C.3       1 <0>        -0.1212
      8 C8          2.2127   -6.0738   -3.7996 C.3       1 <0>        -0.1194
      9 C9          2.9289   -6.5673   -5.0584 C.3       1 <0>        -0.1214
     10 C10         2.9496   -8.0971   -5.0668 C.3       1 <0>        -0.1185
     11 C11         3.6658   -8.5905   -6.3257 C.3       1 <0>        -0.1156
     12 C12         3.6865  -10.1203   -6.3341 C.3       1 <0>        -0.0832
     13 C13         4.3919  -10.6063   -7.5739 C.ar      1 <0>        -0.0433
     14 C14         3.6739  -10.8347   -8.7329 C.ar      1 <0>        -0.1434
     15 C15         4.3209  -11.2805   -9.8703 C.ar      1 <0>        -0.0182
     16 C16         5.6860  -11.4975   -9.8487 C.ar      1 <0>        -0.6296
     17 C17         6.4041  -11.2682   -8.6900 C.ar      1 <0>        -0.0182
     18 C18         5.7577  -10.8183   -7.5539 C.ar      1 <0>        -0.1433
     19 S1          6.5105  -12.0669  -11.2981 S.o2      1 <0>         2.6398
     20 O1          7.6988  -12.7127  -10.8621 O.2       1 <0>        -1.0027
     21 O2          5.5317  -12.7260  -12.0897 O.2       1 <0>        -1.0025
     22 N1          6.9847  -10.7280  -12.1495 N.2       1 <0>        -1.0173
     23 C19         7.6652  -10.8742  -13.3492 C.2       1 <0>         0.4298
     24 N2          8.0308  -11.9738  -13.9947 N.2       1 <0>        -0.4389
     25 N3          8.6527  -11.9255  -15.0908 N.2       1 <0>        -0.2338
     26 C20         8.9783  -10.7846  -15.6637 C.2       1 <0>        -0.0576
     27 S2          8.2955   -9.6327  -14.4751 S.3       1 <0>        -0.1464
     28 H1          1.0039    1.9031    0.0027 H         1 <0>         0.0533
     29 H2         -0.5459    1.8868   -0.8726 H         1 <0>         0.0533
     30 H3         -0.5289    1.8773    0.9072 H         1 <0>         0.0526
     31 H4          0.5293   -0.3651    0.8851 H         1 <0>         0.0600
     32 H5         -1.0205   -0.3814    0.0098 H         1 <0>         0.0600
     33 H6          0.1910   -0.1364   -2.1398 H         1 <0>         0.0607
     34 H7          1.7408   -0.1202   -1.2645 H         1 <0>         0.0606
     35 H8          1.2661   -2.3884   -0.3821 H         1 <0>         0.0601
     36 H9         -0.2836   -2.4046   -1.2575 H         1 <0>         0.0601
     37 H10         0.9279   -2.1597   -3.4071 H         1 <0>         0.0606
     38 H11         2.4777   -2.1435   -2.5317 H         1 <0>         0.0606
     39 H12         2.0030   -4.4117   -1.6494 H         1 <0>         0.0599
     40 H13         0.4533   -4.4279   -2.5247 H         1 <0>         0.0599
     41 H14         1.6648   -4.1829   -4.6743 H         1 <0>         0.0607
     42 H15         3.2146   -4.1667   -3.7990 H         1 <0>         0.0607
     43 H16         2.7399   -6.4349   -2.9166 H         1 <0>         0.0598
     44 H17         1.1901   -6.4511   -3.7919 H         1 <0>         0.0598
     45 H18         2.4017   -6.2062   -5.9415 H         1 <0>         0.0616
     46 H19         3.9515   -6.1900   -5.0662 H         1 <0>         0.0616
     47 H20         3.4768   -8.4582   -4.1838 H         1 <0>         0.0610
     48 H21         1.9270   -8.4744   -5.0591 H         1 <0>         0.0610
     49 H22         3.1386   -8.2294   -7.2087 H         1 <0>         0.0654
     50 H23         4.6884   -8.2132   -6.3334 H         1 <0>         0.0654
     51 H24         4.2137  -10.4814   -5.4510 H         1 <0>         0.0733
     52 H25         2.6639  -10.4976   -6.3263 H         1 <0>         0.0734
     53 H26         2.6074  -10.6652   -8.7498 H         1 <0>         0.1263
     54 H27         3.7599  -11.4597  -10.7756 H         1 <0>         0.1375
     55 H28         7.4705  -11.4381   -8.6731 H         1 <0>         0.1375
     56 H29         6.3193  -10.6357   -6.6497 H         1 <0>         0.1263
     57 H30         9.5033  -10.5975  -16.5888 H         1 <0>         0.2152
@<TRIPOS>BOND
     1    1    2 1
     2    1   28 1
     3    1   29 1
     4    1   30 1
     5    2    3 1
     6    2   31 1
     7    2   32 1
     8    3    4 1
     9    3   33 1
    10    3   34 1
    11    4    5 1
    12    4   35 1
    13    4   36 1
    14    5    6 1
    15    5   37 1
    16    5   38 1
    17    6    7 1
    18    6   39 1
    19    6   40 1
    20    7    8 1
    21    7   41 1
    22    7   42 1
    23    8    9 1
    24    8   43 1
    25    8   44 1
    26    9   10 1
    27    9   45 1
    28    9   46 1
    29   10   11 1
    30   10   47 1
    31   10   48 1
    32   11   12 1
    33   11   49 1
    34   11   50 1
    35   12   13 1
    36   12   51 1
    37   12   52 1
    38   13   18 ar
    39   13   14 ar
    40   14   15 ar
    41   14   53 1
    42   15   16 ar
    43   15   54 1
    44   16   17 ar
    45   16   19 1
    46   17   18 ar
    47   17   55 1
    48   18   56 1
    49   19   20 2
    50   19   21 2
    51   19   22 1
    52   22   23 1
    53   23   27 1
    54   23   24 2
    55   24   25 1
    56   25   26 2
    57   26   27 1
    58   26   57 1
@<TRIPOS>MOLECULE
ZINC45356413
   45    48     0     0     0
SMALL
USER_CHARGES

@<TRIPOS>ATOM
      1 C1         -0.0146    1.5232   -0.2803 C.ar      1 <0>        -0.0831
      2 C2          1.1970    2.1843   -0.2021 C.ar      1 <0>        -0.0787
      3 C3          2.3734    1.4643   -0.1151 C.ar      1 <0>        -0.0983
      4 C4          2.3391    0.0809   -0.1059 C.ar      1 <0>        -0.0622
      5 C5          1.1273   -0.5811   -0.1836 C.ar      1 <0>        -0.0824
      6 C6         -0.0501    0.1403   -0.2711 C.ar      1 <0>        -0.0179
      7 Cl1        -1.5716   -0.6898   -0.3687 Cl        1 <0>        -0.0265
      8 Cl2         3.8170   -0.8233    0.0028 Cl        1 <0>        -0.0572
      9 C7          3.6937    2.1858   -0.0309 C.3       1 <0>        -0.1048
     10 C8          4.1629    2.2224    1.4249 C.3       1 <0>         0.0687
     11 C9          3.1242    2.9552    2.2771 C.3       1 <0>        -0.1550
     12 C10         2.9345    4.3752    1.7347 C.3       1 <0>         0.1533
     13 N1          4.2443    5.0384    1.6773 N.pl3     1 <0>        -0.6551
     14 C11         5.3411    4.3752    0.9590 C.3       1 <0>         0.1517
     15 C12         5.5038    2.9552    1.5101 C.3       1 <0>        -0.1517
     16 C13         4.4410    6.2641    2.2875 C.ar      1 <0>         0.4616
     17 C14         4.2142    7.4601    1.5891 C.ar      1 <0>        -0.2033
     18 C15         3.7763    7.8030    0.2374 C.2       1 <0>        -0.1760
     19 C16         3.7516    9.1439    0.1657 C.2       1 <0>         0.0692
     20 N2          4.1396    9.6805    1.3662 N.pl3     1 <0>        -0.5703
     21 H1          4.2001   10.6294    1.5577 H         1 <0>         0.4280
     22 C17         4.4282    8.6812    2.2543 C.ar      1 <0>         0.3223
     23 N3          4.8385    8.6525    3.5216 N.ar      1 <0>        -0.5247
     24 C18         5.0390    7.5075    4.1370 C.ar      1 <0>         0.3278
     25 N4          4.8443    6.3389    3.5523 N.ar      1 <0>        -0.5490
     26 N5          4.3230    0.8495    1.9222 N.4       1 <0>        -0.6406
     27 H2         -0.9339    2.0864   -0.3441 H         1 <0>         0.1541
     28 H3          1.2242    3.2640   -0.2093 H         1 <0>         0.1538
     29 H4          1.1001   -1.6607   -0.1765 H         1 <0>         0.1565
     30 H5          4.4329    1.6629   -0.6378 H         1 <0>         0.1083
     31 H6          3.5754    3.2045   -0.4002 H         1 <0>         0.1335
     32 H7          2.1757    2.4198    2.2346 H         1 <0>         0.0950
     33 H8          3.4694    3.0033    3.3098 H         1 <0>         0.0999
     34 H9          2.5038    4.3298    0.7344 H         1 <0>         0.0711
     35 H10         2.2710    4.9332    2.3954 H         1 <0>         0.0914
     36 H11         5.1066    4.3298   -0.1045 H         1 <0>         0.0748
     37 H12         6.2655    4.9332    1.1080 H         1 <0>         0.0921
     38 H13         5.8266    3.0033    2.5501 H         1 <0>         0.1006
     39 H14         6.2490    2.4198    0.9218 H         1 <0>         0.0983
     40 H15         3.5219    7.1112   -0.5520 H         1 <0>         0.1540
     41 H16         3.4691    9.7140   -0.7070 H         1 <0>         0.1869
     42 H17         5.3719    7.5233    5.1643 H         1 <0>         0.2030
     43 H18         5.0074    0.3659    1.3602 H         1 <0>         0.4258
     44 H19         4.6325    0.8734    2.8823 H         1 <0>         0.4299
     45 H20         3.4392    0.3661    1.8656 H         1 <0>         0.4253
@<TRIPOS>BOND
     1    1    6 ar
     2    1    2 ar
     3    1   27 1
     4    2    3 ar
     5    2   28 1
     6    3    4 ar
     7    3    9 1
     8    4    5 ar
     9    4    8 1
    10    5    6 ar
    11    5   29 1
    12    6    7 1
    13    9   10 1
    14    9   30 1
    15    9   31 1
    16   10   15 1
    17   10   11 1
    18   10   26 1
    19   11   12 1
    20   11   32 1
    21   11   33 1
    22   12   13 1
    23   12   34 1
    24   12   35 1
    25   13   14 1
    26   13   16 1
    27   14   15 1
    28   14   36 1
    29   14   37 1
    30   15   38 1
    31   15   39 1
    32   16   25 ar
    33   16   17 ar
    34   17   22 ar
    35   17   18 1
    36   18   19 2
    37   18   40 1
    38   19   20 1
    39   19   41 1
    40   20   21 1
    41   20   22 1
    42   22   23 ar
    43   23   24 ar
    44   24   25 ar
    45   24   42 1
    46   26   43 1
    47   26   44 1
    48   26   45 1
@<TRIPOS>MOLECULE
ZINC38279188
   49    52     0     0     0
SMALL
USER_CHARGES

@<TRIPOS>ATOM
      1 C1         -0.1759    1.3213    0.3455 C.ar      1 <0>        -0.0817
      2 C2          0.9879    2.0619    0.4323 C.ar      1 <0>        -0.1112
      3 C3          2.2160    1.4253    0.4074 C.ar      1 <0>        -0.0215
      4 C4          2.2784    0.0478    0.2956 C.ar      1 <0>        -0.1128
      5 C5          1.1140   -0.6917    0.2088 C.ar      1 <0>        -0.0865
      6 C6         -0.1129   -0.0551    0.2337 C.ar      1 <0>        -0.1040
      7 C7         -1.3822   -0.8620    0.1396 C.3       1 <0>         0.1116
      8 O1         -1.7539   -1.0068   -1.2326 O.3       1 <0>        -0.3917
      9 C8         -2.9513   -1.7603   -1.4340 C.3       1 <0>         0.0346
     10 C9         -3.2513   -1.8504   -2.9316 C.3       1 <0>         0.0731
     11 C10        -3.4315   -0.4415   -3.5013 C.3       1 <0>        -0.1492
     12 C11        -4.5748    0.2613   -2.7626 C.3       1 <0>         0.1545
     13 N1         -5.7768   -0.5800   -2.8420 N.pl3     1 <0>        -0.6569
     14 C12        -5.6895   -1.9798   -2.4044 C.3       1 <0>         0.1510
     15 C13        -4.5336   -2.6575   -3.1471 C.3       1 <0>        -0.1536
     16 C14        -6.9680   -0.0638   -3.3193 C.ar      1 <0>         0.4619
     17 C15        -7.8917    0.5364   -2.4497 C.ar      1 <0>        -0.2038
     18 C16        -7.9439    0.7947   -1.0120 C.2       1 <0>        -0.1760
     19 C17        -9.1105    1.4151   -0.7710 C.2       1 <0>         0.0692
     20 N2         -9.8041    1.5715   -1.9432 N.pl3     1 <0>        -0.5702
     21 H1        -10.6741    1.9930   -2.0226 H         1 <0>         0.4281
     22 C18        -9.0888    1.0468   -2.9842 C.ar      1 <0>         0.3225
     23 N3         -9.2974    0.9390   -4.2957 N.ar      1 <0>        -0.5247
     24 C19        -8.4037    0.3678   -5.0733 C.ar      1 <0>         0.3279
     25 N4         -7.2644   -0.1187   -4.6143 N.ar      1 <0>        -0.5495
     26 N5         -2.1339   -2.5153   -3.6154 N.4       1 <0>        -0.6323
     27 Cl1         3.6782    2.3549    0.5158 Cl        1 <0>        -0.0541
     28 H2         -1.1347    1.8177    0.3694 H         1 <0>         0.1343
     29 H3          0.9386    3.1372    0.5192 H         1 <0>         0.1395
     30 H4          3.2369   -0.4496    0.2757 H         1 <0>         0.1388
     31 H5          1.1626   -1.7671    0.1212 H         1 <0>         0.1319
     32 H6         -1.2201   -1.8468    0.5779 H         1 <0>         0.0697
     33 H7         -2.1788   -0.3505    0.6798 H         1 <0>         0.0721
     34 H8         -2.8217   -2.7636   -1.0284 H         1 <0>         0.0779
     35 H9         -3.7805   -1.2674   -0.9264 H         1 <0>         0.1025
     36 H10        -2.5099    0.1252   -3.3685 H         1 <0>         0.1043
     37 H11        -3.6696   -0.5060   -4.5630 H         1 <0>         0.0951
     38 H12        -4.2996    0.4077   -1.7181 H         1 <0>         0.0722
     39 H13        -4.7727    1.2263   -3.2292 H         1 <0>         0.0897
     40 H14        -5.5052   -2.0162   -1.3307 H         1 <0>         0.0720
     41 H15        -6.6229   -2.4935   -2.6346 H         1 <0>         0.0921
     42 H16        -4.7614   -2.7011   -4.2121 H         1 <0>         0.1034
     43 H17        -4.3965   -3.6680   -2.7621 H         1 <0>         0.0987
     44 H18        -7.1897    0.5360   -0.2835 H         1 <0>         0.1533
     45 H19        -9.4513    1.7413    0.2005 H         1 <0>         0.1870
     46 H20        -8.6073    0.2980   -6.1317 H         1 <0>         0.2032
     47 H21        -2.0145   -3.4441   -3.2397 H         1 <0>         0.4322
     48 H22        -2.3316   -2.5748   -4.6030 H         1 <0>         0.4349
     49 H23        -1.2883   -1.9836   -3.4731 H         1 <0>         0.4404
@<TRIPOS>BOND
     1    1    6 ar
     2    1    2 ar
     3    1   28 1
     4    2    3 ar
     5    2   29 1
     6    3    4 ar
     7    3   27 1
     8    4    5 ar
     9    4   30 1
    10    5    6 ar
    11    5   31 1
    12    6    7 1
    13    7    8 1
    14    7   32 1
    15    7   33 1
    16    8    9 1
    17    9   10 1
    18    9   34 1
    19    9   35 1
    20   10   15 1
    21   10   11 1
    22   10   26 1
    23   11   12 1
    24   11   36 1
    25   11   37 1
    26   12   13 1
    27   12   38 1
    28   12   39 1
    29   13   14 1
    30   13   16 1
    31   14   15 1
    32   14   40 1
    33   14   41 1
    34   15   42 1
    35   15   43 1
    36   16   25 ar
    37   16   17 ar
    38   17   22 ar
    39   17   18 1
    40   18   19 2
    41   18   44 1
    42   19   20 1
    43   19   45 1
    44   20   21 1
    45   20   22 1
    46   22   23 ar
    47   23   24 ar
    48   24   25 ar
    49   24   46 1
    50   26   47 1
    51   26   48 1
    52   26   49 1
@<TRIPOS>MOLECULE
ZINC45355777
   51    54     0     0     0
SMALL
USER_CHARGES

@<TRIPOS>ATOM
      1 C1          2.3255   -1.4058   -2.1509 C.3       1 <0>         0.0594
      2 N1          1.2719   -1.5066   -1.1379 N.am      1 <0>        -0.6103
      3 C2          1.4074   -2.4582   -0.0323 C.3       1 <0>         0.1537
      4 C3          2.1054   -1.7892    1.1236 C.ar      1 <0>        -0.1060
      5 C4          3.4841   -1.8315    1.2163 C.ar      1 <0>        -0.0951
      6 C5          4.1249   -1.2182    2.2762 C.ar      1 <0>        -0.1142
      7 C6          3.3864   -0.5617    3.2445 C.ar      1 <0>        -0.0298
      8 C7          2.0066   -0.5196    3.1512 C.ar      1 <0>        -0.1132
      9 C8          1.3673   -1.1285    2.0878 C.ar      1 <0>        -0.0816
     10 Cl1         4.1905    0.2085    4.5764 Cl        1 <0>        -0.0684
     11 C9          0.1780   -0.7238   -1.2232 C.2       1 <0>         0.4911
     12 O1         -0.6508   -0.7415   -0.3379 O.2       1 <0>        -0.5253
     13 C10        -0.0152    0.1734   -2.4185 C.3       1 <0>         0.1164
     14 C11        -1.4375    0.7382   -2.4073 C.3       1 <0>        -0.1111
     15 C12        -2.4421   -0.4181   -2.4317 C.3       1 <0>         0.1459
     16 N2         -2.1438   -1.2794   -3.5840 N.pl3     1 <0>        -0.6579
     17 C13        -0.7801   -1.8034   -3.7402 C.3       1 <0>         0.1516
     18 C14         0.2058   -0.6316   -3.7012 C.3       1 <0>        -0.1447
     19 C15        -3.1284   -1.5915   -4.5042 C.ar      1 <0>         0.4816
     20 C16        -4.0038   -2.6662   -4.2845 C.ar      1 <0>        -0.2092
     21 C17        -4.1792   -3.6596   -3.2267 C.2       1 <0>        -0.1641
     22 C18        -5.2079   -4.4408   -3.5943 C.2       1 <0>         0.0535
     23 N3         -5.7005   -4.0217   -4.8032 N.pl3     1 <0>        -0.5736
     24 H1         -6.4448   -4.4302   -5.2723 H         1 <0>         0.4232
     25 C19        -4.9887   -2.9427   -5.2503 C.ar      1 <0>         0.3197
     26 N4         -5.0500   -2.1726   -6.3358 N.ar      1 <0>        -0.5372
     27 C20        -4.2080   -1.1758   -6.5006 C.ar      1 <0>         0.3268
     28 N5         -3.2728   -0.8774   -5.6165 N.ar      1 <0>        -0.5495
     29 N6          0.9505    1.2788   -2.3619 N.3       1 <0>        -0.8251
     30 H2          2.1686   -2.1669   -2.9152 H         1 <0>         0.0687
     31 H3          2.2946   -0.4178   -2.6102 H         1 <0>         0.0880
     32 H4          3.2971   -1.5577   -1.6809 H         1 <0>         0.0725
     33 H5          0.4187   -2.7910    0.2837 H         1 <0>         0.0945
     34 H6          1.9918   -3.3172   -0.3619 H         1 <0>         0.0895
     35 H7          4.0605   -2.3443    0.4605 H         1 <0>         0.1304
     36 H8          5.2020   -1.2516    2.3487 H         1 <0>         0.1340
     37 H9          1.4295   -0.0076    3.9070 H         1 <0>         0.1335
     38 H10         0.2906   -1.0917    2.0123 H         1 <0>         0.1382
     39 H11        -1.5866    1.3307   -1.5047 H         1 <0>         0.0766
     40 H12        -1.5859    1.3676   -3.2848 H         1 <0>         0.0843
     41 H13        -2.3563   -0.9961   -1.5116 H         1 <0>         0.0792
     42 H14        -3.4533   -0.0218   -2.5237 H         1 <0>         0.0686
     43 H15        -0.5588   -2.4944   -2.9268 H         1 <0>         0.0546
     44 H16        -0.6947   -2.3211   -4.6956 H         1 <0>         0.0733
     45 H17         0.0419    0.0107   -4.5665 H         1 <0>         0.0897
     46 H18         1.2264   -1.0140   -3.7194 H         1 <0>         0.0908
     47 H19        -3.5938   -3.7485   -2.3234 H         1 <0>         0.1526
     48 H20        -5.5896   -5.2744   -3.0236 H         1 <0>         0.1831
     49 H21        -4.2876   -0.5732   -7.3933 H         1 <0>         0.1998
     50 H22         0.6813    1.9589   -1.6668 H         1 <0>         0.3494
     51 H23         1.8835    0.9355   -2.1894 H         1 <0>         0.3423
@<TRIPOS>BOND
     1    1    2 1
     2    1   30 1
     3    1   31 1
     4    1   32 1
     5    2    3 1
     6    2   11 am
     7    3    4 1
     8    3   33 1
     9    3   34 1
    10    4    9 ar
    11    4    5 ar
    12    5    6 ar
    13    5   35 1
    14    6    7 ar
    15    6   36 1
    16    7    8 ar
    17    7   10 1
    18    8    9 ar
    19    8   37 1
    20    9   38 1
    21   11   12 2
    22   11   13 1
    23   13   18 1
    24   13   14 1
    25   13   29 1
    26   14   15 1
    27   14   39 1
    28   14   40 1
    29   15   16 1
    30   15   41 1
    31   15   42 1
    32   16   17 1
    33   16   19 1
    34   17   18 1
    35   17   43 1
    36   17   44 1
    37   18   45 1
    38   18   46 1
    39   19   28 ar
    40   19   20 ar
    41   20   25 ar
    42   20   21 1
    43   21   22 2
    44   21   47 1
    45   22   23 1
    46   22   48 1
    47   23   24 1
    48   23   25 1
    49   25   26 ar
    50   26   27 ar
    51   27   28 ar
    52   27   49 1
    53   29   50 1
    54   29   51 1
@<TRIPOS>MOLECULE
ZINC45368487
   49    52     0     0     0
SMALL
USER_CHARGES

@<TRIPOS>ATOM
      1 C1         -0.2517    1.9911    0.4608 C.ar      1 <0>        -0.1016
      2 C2          1.0034    2.5593    0.3476 C.ar      1 <0>        -0.0694
      3 C3          2.1224    1.7528    0.2613 C.ar      1 <0>        -0.1142
      4 C4          1.9870    0.3759    0.2886 C.ar      1 <0>        -0.0146
      5 C5          0.7316   -0.1931    0.4022 C.ar      1 <0>        -0.1020
      6 C6         -0.3883    0.6147    0.4881 C.ar      1 <0>        -0.0108
      7 Cl1        -1.9645   -0.0986    0.6308 Cl        1 <0>        -0.0361
      8 Cl2         3.3927   -0.6370    0.1796 Cl        1 <0>        -0.0540
      9 C7          3.4902    2.3730    0.1370 C.3       1 <0>         0.1606
     10 N1          4.1941    2.2638    1.4172 N.am      1 <0>        -0.7203
     11 C8          5.4433    2.7538    1.5433 C.2       1 <0>         0.5053
     12 O1          5.9847    3.2852    0.5970 O.2       1 <0>        -0.4609
     13 C9          6.1674    2.6414    2.8602 C.3       1 <0>         0.0489
     14 C10         5.6984    3.7572    3.7967 C.3       1 <0>        -0.1514
     15 C11         5.9725    5.1155    3.1436 C.3       1 <0>         0.1543
     16 N2          7.3950    5.1884    2.7831 N.pl3     1 <0>        -0.6530
     17 C12         7.9709    4.1165    1.9596 C.3       1 <0>         0.1335
     18 C13         7.6744    2.7694    2.6260 C.3       1 <0>        -0.1390
     19 C14         8.1771    6.2463    3.2104 C.ar      1 <0>         0.4633
     20 C15         8.2981    7.4103    2.4359 C.ar      1 <0>        -0.2032
     21 C16         7.7611    7.8616    1.1535 C.2       1 <0>        -0.1725
     22 C17         8.2492    9.0945    0.9404 C.2       1 <0>         0.0667
     23 N3          9.0546    9.4625    1.9869 N.pl3     1 <0>        -0.5704
     24 H1          9.5199   10.3105    2.0593 H         1 <0>         0.4275
     25 C18         9.1052    8.4586    2.9145 C.ar      1 <0>         0.3220
     26 N4          9.7230    8.3032    4.0846 N.ar      1 <0>        -0.5257
     27 C19         9.5813    7.1939    4.7770 C.ar      1 <0>         0.3266
     28 N5          8.8287    6.1882    4.3680 N.ar      1 <0>        -0.5514
     29 N6          5.8759    1.3368    3.4692 N.4       1 <0>        -0.6341
     30 H2         -1.1254    2.6219    0.5323 H         1 <0>         0.1492
     31 H3          1.1096    3.6339    0.3263 H         1 <0>         0.1488
     32 H4          0.6254   -1.2677    0.4235 H         1 <0>         0.1509
     33 H5          4.0567    1.8518   -0.6347 H         1 <0>         0.0979
     34 H6          3.3894    3.4241   -0.1336 H         1 <0>         0.0976
     35 H7          3.7612    1.8388    2.1740 H         1 <0>         0.3935
     36 H8          4.6294    3.6516    3.9817 H         1 <0>         0.0997
     37 H9          6.2397    3.6915    4.7406 H         1 <0>         0.1117
     38 H10         5.3624    5.2194    2.2464 H         1 <0>         0.0709
     39 H11         5.7322    5.9138    3.8459 H         1 <0>         0.0934
     40 H12         7.5237    4.1389    0.9658 H         1 <0>         0.1155
     41 H13         9.0491    4.2556    1.8806 H         1 <0>         0.0851
     42 H14         8.1970    2.7130    3.5808 H         1 <0>         0.1038
     43 H15         8.0117    1.9607    1.9776 H         1 <0>         0.1002
     44 H16         7.0994    7.3096    0.5025 H         1 <0>         0.1546
     45 H17         8.0392    9.7043    0.0741 H         1 <0>         0.1868
     46 H18        10.0978    7.1035    5.7212 H         1 <0>         0.2026
     47 H19         6.1844    0.6008    2.8517 H         1 <0>         0.4394
     48 H20         6.3606    1.2613    4.3509 H         1 <0>         0.4447
     49 H21         4.8823    1.2520    3.6233 H         1 <0>         0.4294
@<TRIPOS>BOND
     1    1    6 ar
     2    1    2 ar
     3    1   30 1
     4    2    3 ar
     5    2   31 1
     6    3    4 ar
     7    3    9 1
     8    4    5 ar
     9    4    8 1
    10    5    6 ar
    11    5   32 1
    12    6    7 1
    13    9   10 1
    14    9   33 1
    15    9   34 1
    16   10   11 am
    17   10   35 1
    18   11   12 2
    19   11   13 1
    20   13   18 1
    21   13   14 1
    22   13   29 1
    23   14   15 1
    24   14   36 1
    25   14   37 1
    26   15   16 1
    27   15   38 1
    28   15   39 1
    29   16   17 1
    30   16   19 1
    31   17   18 1
    32   17   40 1
    33   17   41 1
    34   18   42 1
    35   18   43 1
    36   19   28 ar
    37   19   20 ar
    38   20   25 ar
    39   20   21 1
    40   21   22 2
    41   21   44 1
    42   22   23 1
    43   22   45 1
    44   23   24 1
    45   23   25 1
    46   25   26 ar
    47   26   27 ar
    48   27   28 ar
    49   27   46 1
    50   29   47 1
    51   29   48 1
    52   29   49 1
@<TRIPOS>MOLECULE
ZINC03874586
   26    28     0     0     0
SMALL
USER_CHARGES
(3Z)-3-(1H-pyrrol-2-ylmethylene)indolin-2-one
@<TRIPOS>ATOM
      1 C1          7.0447    1.1800   -0.4427 C.ar      1 <0>        -0.1433
      2 C2          7.6417    2.4276   -0.5186 C.ar      1 <0>        -0.0761
      3 C3          6.8792    3.5765   -0.4637 C.ar      1 <0>        -0.1404
      4 C4          5.4975    3.4914   -0.3312 C.ar      1 <0>         0.1515
      5 C5          4.8971    2.2272   -0.2552 C.ar      1 <0>        -0.1173
      6 C6          5.6749    1.0750   -0.3114 C.ar      1 <0>        -0.0565
      7 C7          3.4426    2.4639   -0.1215 C.2       1 <0>        -0.1358
      8 C8          2.4433    1.5157   -0.0127 C.2       1 <0>         0.0467
      9 C9          1.1118    1.9181    0.2193 C.2       1 <0>        -0.0015
     10 C10         0.1329    2.1100   -0.7436 C.2       1 <0>        -0.1517
     11 C11        -1.0261    2.5088   -0.0753 C.2       1 <0>        -0.1986
     12 C12        -0.7515    2.5460    1.2525 C.2       1 <0>         0.0006
     13 N1          0.5443    2.1928    1.4450 N.pl3     1 <0>        -0.5342
     14 H1          0.9957    2.1416    2.3021 H         1 <0>         0.4138
     15 C13         3.2904    3.9244   -0.1359 C.2       1 <0>         0.5524
     16 O1          2.2396    4.5354   -0.0532 O.2       1 <0>        -0.4793
     17 N2          4.5133    4.4689   -0.2532 N.am      1 <0>        -0.6582
     18 H2          7.6521    0.2880   -0.4867 H         1 <0>         0.1321
     19 H3          8.7142    2.5019   -0.6212 H         1 <0>         0.1333
     20 H4          7.3563    4.5435   -0.5243 H         1 <0>         0.1293
     21 H5          5.2087    0.1026   -0.2529 H         1 <0>         0.1304
     22 H6          2.6820    0.4665   -0.1053 H         1 <0>         0.1464
     23 H7          0.2468    1.9801   -1.8097 H         1 <0>         0.1362
     24 H8         -1.9750    2.7438   -0.5344 H         1 <0>         0.1371
     25 H9         -1.4501    2.8169    2.0303 H         1 <0>         0.1648
     26 H10         4.6864    5.4228   -0.2844 H         1 <0>         0.4184
@<TRIPOS>BOND
     1    1    6 ar
     2    1    2 ar
     3    1   18 1
     4    2    3 ar
     5    2   19 1
     6    3    4 ar
     7    3   20 1
     8    4   17 1
     9    4    5 ar
    10    5    6 ar
    11    5    7 1
    12    6   21 1
    13    7    8 2
    14    7   15 1
    15    8    9 1
    16    8   22 1
    17    9   13 1
    18    9   10 2
    19   10   11 1
    20   10   23 1
    21   11   12 2
    22   11   24 1
    23   12   13 1
    24   12   25 1
    25   13   14 1
    26   15   16 2
    27   15   17 am
    28   17   26 1
