@<TRIPOS>MOLECULE
ZINC01914818
   75    79     0     0     0
SMALL
USER_CHARGES
3-[1-[(4-chlorophenyl)methyl]-5-(2-quinolylmethoxy)-3-tert-butylsulfanyl-indol-2-yl]-2,2-dimethyl-propanoic acid
@<TRIPOS>ATOM
      1 C1         -2.2994    0.4408   -2.1641 C.3       1 <0>        -0.1409
      2 C2         -2.0091    1.7106   -1.3616 C.3       1 <0>        -0.0688
      3 C3         -3.2601    2.5909   -1.3297 C.3       1 <0>        -0.1250
      4 C4         -0.8615    2.4789   -2.0200 C.3       1 <0>        -0.1348
      5 S1         -1.5425    1.2615    0.3329 S.3       1 <0>        -0.0761
      6 C5         -0.1057    0.2623    0.1287 C.2       1 <0>        -0.2121
      7 C6          1.2854    0.7294    0.0961 C.ar      1 <0>        -0.0290
      8 C7          1.8862    1.9855    0.2023 C.ar      1 <0>        -0.1025
      9 C8          3.2604    2.0929    0.1292 C.ar      1 <0>         0.1012
     10 C9          4.0448    0.9561   -0.0500 C.ar      1 <0>        -0.1851
     11 C10         3.4633   -0.2873   -0.1554 C.ar      1 <0>        -0.0910
     12 C11         2.0798   -0.4166   -0.0842 C.ar      1 <0>         0.0715
     13 N1          1.2276   -1.4983   -0.1553 N.pl3     1 <0>        -0.4732
     14 C12        -0.0753   -1.0750   -0.0262 C.2       1 <0>         0.1911
     15 C13        -1.2855   -1.9725   -0.0541 C.3       1 <0>        -0.0466
     16 C14        -1.7321   -2.2711    1.3785 C.3       1 <0>        -0.0935
     17 C15        -0.5931   -2.9574    2.1352 C.3       1 <0>        -0.1329
     18 C16        -2.0963   -0.9624    2.0825 C.3       1 <0>        -0.1199
     19 C17        -2.9352   -3.1783    1.3509 C.2       1 <0>         0.4768
     20 O1         -3.3888   -3.5480    0.2939 O.co2     1 <0>        -0.6432
     21 C18         1.6465   -2.8898   -0.3409 C.3       1 <0>         0.1481
     22 C19         2.0210   -3.4838    0.9925 C.ar      1 <0>        -0.1137
     23 C20         3.0466   -2.9267    1.7335 C.ar      1 <0>        -0.0905
     24 C21         3.3867   -3.4677    2.9591 C.ar      1 <0>        -0.1188
     25 C22         2.7082   -4.5737    3.4391 C.ar      1 <0>        -0.0211
     26 C23         1.6857   -5.1341    2.6944 C.ar      1 <0>        -0.1147
     27 C24         1.3426   -4.5889    1.4716 C.ar      1 <0>        -0.0644
     28 Cl1         3.1392   -5.2576    4.9753 Cl        1 <0>        -0.0743
     29 O2          3.8508    3.3138    0.2320 O.3       1 <0>        -0.3139
     30 C25         5.2767    3.3540    0.1479 C.3       1 <0>         0.1126
     31 C26         5.7478    4.7792    0.2815 C.ar      1 <0>         0.1647
     32 C27         4.8061    5.7912    0.4557 C.ar      1 <0>        -0.1502
     33 C28         5.2147    7.0886    0.5791 C.ar      1 <0>        -0.0578
     34 C29         6.5953    7.3581    0.5246 C.ar      1 <0>        -0.1044
     35 C30         7.0900    8.6668    0.6444 C.ar      1 <0>        -0.0947
     36 C31         8.4323    8.8865    0.5870 C.ar      1 <0>        -0.1187
     37 C32         9.3230    7.8293    0.4106 C.ar      1 <0>        -0.1019
     38 C33         8.8781    6.5489    0.2905 C.ar      1 <0>        -0.0928
     39 C34         7.4988    6.2816    0.3453 C.ar      1 <0>         0.1320
     40 N2          7.0330    5.0333    0.2362 N.ar      1 <0>        -0.4729
     41 H1         -3.1170   -0.1066   -1.6951 H         1 <0>         0.0711
     42 H2         -2.5798    0.7106   -3.1823 H         1 <0>         0.0545
     43 H3         -1.4082   -0.1864   -2.1868 H         1 <0>         0.0555
     44 H4         -3.0533    3.4956   -0.7580 H         1 <0>         0.0601
     45 H5         -3.5405    2.8608   -2.3479 H         1 <0>         0.0637
     46 H6         -4.0777    2.0436   -0.8607 H         1 <0>         0.0650
     47 H7          0.0297    1.8517   -2.0427 H         1 <0>         0.0577
     48 H8         -1.1419    2.7487   -3.0382 H         1 <0>         0.0518
     49 H9         -0.6547    3.3836   -1.4482 H         1 <0>         0.0605
     50 H10         1.2789    2.8684    0.3364 H         1 <0>         0.1323
     51 H11         5.1192    1.0508   -0.1059 H         1 <0>         0.1287
     52 H12         4.0811   -1.1623   -0.2938 H         1 <0>         0.1219
     53 H13        -2.0940   -1.4758   -0.5906 H         1 <0>         0.1013
     54 H14        -1.0343   -2.9056   -0.5583 H         1 <0>         0.0691
     55 H15         0.3178   -2.3675    2.0337 H         1 <0>         0.0453
     56 H16        -0.8561   -3.0412    3.1897 H         1 <0>         0.0548
     57 H17        -0.4296   -3.9524    1.7213 H         1 <0>         0.0581
     58 H18        -2.9077   -0.4734    1.5434 H         1 <0>         0.0625
     59 H19        -2.4144   -1.1751    3.1031 H         1 <0>         0.0515
     60 H20        -1.2261   -0.3062    2.1024 H         1 <0>         0.0473
     61 H21         0.8265   -3.4612   -0.7758 H         1 <0>         0.1049
     62 H22         2.5074   -2.9240   -1.0086 H         1 <0>         0.0981
     63 H23         3.5791   -2.0660    1.3566 H         1 <0>         0.1316
     64 H24         4.1850   -3.0297    3.5399 H         1 <0>         0.1306
     65 H25         1.1554   -5.9973    3.0688 H         1 <0>         0.1364
     66 H26         0.5442   -5.0261    0.8904 H         1 <0>         0.1393
     67 H27         5.7051    2.7531    0.9501 H         1 <0>         0.0868
     68 H28         5.5954    2.9548   -0.8150 H         1 <0>         0.0863
     69 H29         3.7541    5.5499    0.4935 H         1 <0>         0.1507
     70 H30         4.4986    7.8855    0.7150 H         1 <0>         0.1420
     71 H31         6.4096    9.4943    0.7811 H         1 <0>         0.1306
     72 H32         8.8120    9.8933    0.6796 H         1 <0>         0.1274
     73 H33        10.3834    8.0294    0.3683 H         1 <0>         0.1299
     74 H34         9.5818    5.7412    0.1536 H         1 <0>         0.1355
     75 O3         -3.5027   -3.5755    2.5006 O.co2     1 <0>        -0.7613
@<TRIPOS>BOND
     1    1    2 1
     2    1   41 1
     3    1   42 1
     4    1   43 1
     5    2    3 1
     6    2    4 1
     7    2    5 1
     8    3   44 1
     9    3   45 1
    10    3   46 1
    11    4   47 1
    12    4   48 1
    13    4   49 1
    14    5    6 1
    15    6   14 2
    16    6    7 1
    17    7   12 ar
    18    7    8 ar
    19    8    9 ar
    20    8   50 1
    21    9   10 ar
    22    9   29 1
    23   10   11 ar
    24   10   51 1
    25   11   12 ar
    26   11   52 1
    27   12   13 1
    28   13   14 1
    29   13   21 1
    30   14   15 1
    31   15   16 1
    32   15   53 1
    33   15   54 1
    34   16   17 1
    35   16   18 1
    36   16   19 1
    37   17   55 1
    38   17   56 1
    39   17   57 1
    40   18   58 1
    41   18   59 1
    42   18   60 1
    43   19   20 2
    44   19   75 1
    45   21   22 1
    46   21   61 1
    47   21   62 1
    48   22   27 ar
    49   22   23 ar
    50   23   24 ar
    51   23   63 1
    52   24   25 ar
    53   24   64 1
    54   25   26 ar
    55   25   28 1
    56   26   27 ar
    57   26   65 1
    58   27   66 1
    59   29   30 1
    60   30   31 1
    61   30   67 1
    62   30   68 1
    63   31   40 ar
    64   31   32 ar
    65   32   33 ar
    66   32   69 1
    67   33   34 ar
    68   33   70 1
    69   34   39 ar
    70   34   35 ar
    71   35   36 ar
    72   35   71 1
    73   36   37 ar
    74   36   72 1
    75   37   38 ar
    76   37   73 1
    77   38   39 ar
    78   38   74 1
    79   39   40 ar
@<TRIPOS>MOLECULE
ZINC01536875
   65    67     0     0     0
SMALL
USER_CHARGES

@<TRIPOS>ATOM
      1 C1          4.0767    1.5501   -2.2253 C.3       1 <0>        -0.1429
      2 C2          3.1892    0.3066   -2.1417 C.3       1 <0>        -0.0503
      3 C3          3.6889   -0.7444   -3.1349 C.3       1 <0>        -0.1420
      4 C4          3.2437   -0.2563   -0.7448 C.ar      1 <0>        -0.1038
      5 C5          4.4596   -0.6659   -0.2142 C.ar      1 <0>        -0.1005
      6 C6          4.5312   -1.1831    1.0603 C.ar      1 <0>        -0.1276
      7 C7          3.3746   -1.2973    1.8259 C.ar      1 <0>         0.0922
      8 C8          2.1455   -0.8808    1.2834 C.ar      1 <0>        -0.0637
      9 C9          2.0970   -0.3544   -0.0085 C.ar      1 <0>        -0.0667
     10 C10         1.1366   -1.1274    2.3206 C.2       1 <0>        -0.2087
     11 C11         1.7820   -1.6532    3.3790 C.2       1 <0>         0.1830
     12 N1          3.1248   -1.7613    3.0977 N.pl3     1 <0>        -0.4758
     13 C12         4.1370   -2.2913    4.0145 C.3       1 <0>         0.1480
     14 C13         4.7666   -1.1553    4.7788 C.ar      1 <0>        -0.1002
     15 C14         5.0820    0.0235    4.1292 C.ar      1 <0>        -0.0905
     16 C15         5.6594    1.0657    4.8297 C.ar      1 <0>        -0.1102
     17 C16         5.9219    0.9290    6.1812 C.ar      1 <0>        -0.0263
     18 C17         5.6061   -0.2510    6.8307 C.ar      1 <0>        -0.1053
     19 C18         5.0235   -1.2905    6.1304 C.ar      1 <0>        -0.0845
     20 Cl1         6.6477    2.2374    7.0615 Cl        1 <0>        -0.0750
     21 C19         1.1320   -2.0616    4.6758 C.3       1 <0>        -0.0423
     22 C20         0.8145   -0.8138    5.5023 C.3       1 <0>        -0.1182
     23 C21         2.1056   -0.0384    5.7717 C.3       1 <0>        -0.1138
     24 C22        -0.1624    0.0748    4.7297 C.3       1 <0>        -0.1169
     25 C23         0.1923   -1.2238    6.8122 C.2       1 <0>         0.5070
     26 O1          0.3520   -0.5346    7.8052 O.co2     1 <0>        -0.6941
     27 O2         -0.4709   -2.2447    6.8790 O.co2     1 <0>        -0.6977
     28 S1         -0.5903   -0.7977    2.2032 S.3       1 <0>        -0.0723
     29 C24        -1.2856   -2.3329    1.5323 C.3       1 <0>        -0.0756
     30 C25        -0.9832   -3.4897    2.4869 C.3       1 <0>        -0.1393
     31 C26        -2.8003   -2.1819    1.3776 C.3       1 <0>        -0.1241
     32 C27        -0.6598   -2.6220    0.1663 C.3       1 <0>        -0.1341
     33 H1          5.1044    1.2801   -1.9822 H         1 <0>         0.0545
     34 H2          4.0374    1.9573   -3.2357 H         1 <0>         0.0531
     35 H3          3.7207    2.2989   -1.5177 H         1 <0>         0.0556
     36 H4          2.1616    0.5767   -2.3848 H         1 <0>         0.0741
     37 H5          4.7166   -1.0144   -2.8918 H         1 <0>         0.0544
     38 H6          3.0567   -1.6302   -3.0753 H         1 <0>         0.0543
     39 H7          3.6496   -0.3372   -4.1452 H         1 <0>         0.0531
     40 H8          5.3582   -0.5784   -0.8069 H         1 <0>         0.1188
     41 H9          5.4817   -1.4993    1.4640 H         1 <0>         0.1154
     42 H10         1.1555   -0.0296   -0.4262 H         1 <0>         0.1205
     43 H11         3.6674   -2.9833    4.7135 H         1 <0>         0.1043
     44 H12         4.9045   -2.8153    3.4448 H         1 <0>         0.0993
     45 H13         4.8774    0.1300    3.0741 H         1 <0>         0.1330
     46 H14         5.9061    1.9865    4.3220 H         1 <0>         0.1306
     47 H15         5.8110   -0.3584    7.8856 H         1 <0>         0.1349
     48 H16         4.7725   -2.2099    6.6384 H         1 <0>         0.1342
     49 H17         0.2093   -2.6024    4.4653 H         1 <0>         0.1047
     50 H18         1.8107   -2.7052    5.2356 H         1 <0>         0.0598
     51 H19         2.6357    0.1221    4.8328 H         1 <0>         0.0360
     52 H20         1.8640    0.9246    6.2216 H         1 <0>         0.0474
     53 H21         2.7371   -0.6093    6.4524 H         1 <0>         0.0446
     54 H22        -1.0822   -0.4777    4.5378 H         1 <0>         0.0683
     55 H23        -0.3886    0.9637    5.3185 H         1 <0>         0.0403
     56 H24         0.2877    0.3713    3.7823 H         1 <0>         0.0502
     57 H25        -1.4291   -3.2837    3.4600 H         1 <0>         0.0739
     58 H26        -1.4010   -4.4122    2.0837 H         1 <0>         0.0521
     59 H27         0.0958   -3.5972    2.5971 H         1 <0>         0.0538
     60 H28        -3.0157   -1.3578    0.6975 H         1 <0>         0.0584
     61 H29        -3.2181   -3.1044    0.9745 H         1 <0>         0.0622
     62 H30        -3.2461   -1.9760    2.3507 H         1 <0>         0.0651
     63 H31         0.4192   -2.7296    0.2765 H         1 <0>         0.0569
     64 H32        -1.0776   -3.5445   -0.2368 H         1 <0>         0.0503
     65 H33        -0.8753   -1.7979   -0.5138 H         1 <0>         0.0583
@<TRIPOS>BOND
     1    1    2 1
     2    1   33 1
     3    1   34 1
     4    1   35 1
     5    2    3 1
     6    2    4 1
     7    2   36 1
     8    3   37 1
     9    3   38 1
    10    3   39 1
    11    4    9 ar
    12    4    5 ar
    13    5    6 ar
    14    5   40 1
    15    6    7 ar
    16    6   41 1
    17    7   12 1
    18    7    8 ar
    19    8    9 ar
    20    8   10 1
    21    9   42 1
    22   10   11 2
    23   10   28 1
    24   11   12 1
    25   11   21 1
    26   12   13 1
    27   13   14 1
    28   13   43 1
    29   13   44 1
    30   14   19 ar
    31   14   15 ar
    32   15   16 ar
    33   15   45 1
    34   16   17 ar
    35   16   46 1
    36   17   18 ar
    37   17   20 1
    38   18   19 ar
    39   18   47 1
    40   19   48 1
    41   21   22 1
    42   21   49 1
    43   21   50 1
    44   22   23 1
    45   22   24 1
    46   22   25 1
    47   23   51 1
    48   23   52 1
    49   23   53 1
    50   24   54 1
    51   24   55 1
    52   24   56 1
    53   25   26 2
    54   25   27 1
    55   28   29 1
    56   29   30 1
    57   29   31 1
    58   29   32 1
    59   30   57 1
    60   30   58 1
    61   30   59 1
    62   31   60 1
    63   31   61 1
    64   31   62 1
    65   32   63 1
    66   32   64 1
    67   32   65 1
