@<TRIPOS>MOLECULE
ZINC00177887
   32    34     0     0     0
SMALL
USER_CHARGES

@<TRIPOS>ATOM
      1 C1         -0.0184    1.5028    0.0103 C.3       1 <0>        -0.1180
      2 C2          0.0021   -0.0041    0.0020 C.ar      1 <0>        -0.0490
      3 C3          0.0058   -0.6900   -1.1988 C.ar      1 <0>        -0.1369
      4 C4          0.0290   -2.0705   -1.2056 C.ar      1 <0>        -0.0664
      5 C5          0.0463   -2.7772   -0.0133 C.ar      1 <0>        -0.1533
      6 C6          0.0359   -2.0925    1.1886 C.ar      1 <0>         0.1286
      7 C7          0.0228   -0.7014    1.1924 C.ar      1 <0>        -0.1328
      8 O1          0.0313   -2.7420    2.3847 O.3       1 <0>        -0.2979
      9 C8          0.2580   -4.0708    2.3726 C.2       1 <0>         0.4906
     10 O2          0.9504   -4.6023    3.2080 O.2       1 <0>        -0.4311
     11 C9         -0.3975   -4.8667    1.2615 C.3       1 <0>        -0.1609
     12 C10         0.0823   -4.2834   -0.0711 C.3       1 <0>         0.0005
     13 H1          1.1027   -4.6141   -0.2649 H         1 <0>         0.1022
     14 C11        -0.8173   -4.7635   -1.1807 C.ar      1 <0>        -0.0791
     15 C12        -2.1650   -4.4566   -1.1596 C.ar      1 <0>        -0.1059
     16 C13        -2.9902   -4.8971   -2.1774 C.ar      1 <0>        -0.1159
     17 C14        -2.4677   -5.6440   -3.2166 C.ar      1 <0>        -0.1163
     18 C15        -1.1198   -5.9501   -3.2382 C.ar      1 <0>        -0.1167
     19 C16        -0.2938   -5.5061   -2.2226 C.ar      1 <0>        -0.1111
     20 H2          1.0042    1.8801    0.0026 H         1 <0>         0.0768
     21 H3         -0.5455    1.8639   -0.8728 H         1 <0>         0.0722
     22 H4         -0.5286    1.8543    0.9071 H         1 <0>         0.0712
     23 H5         -0.0098   -0.1458   -2.1315 H         1 <0>         0.1301
     24 H6          0.0333   -2.6027   -2.1453 H         1 <0>         0.1313
     25 H7          0.0253   -0.1655    2.1301 H         1 <0>         0.1378
     26 H8         -0.1038   -5.9139    1.3339 H         1 <0>         0.1179
     27 H9         -1.4816   -4.7800    1.3344 H         1 <0>         0.1146
     28 H10        -2.5733   -3.8731   -0.3477 H         1 <0>         0.1207
     29 H11        -4.0433   -4.6579   -2.1605 H         1 <0>         0.1240
     30 H12        -3.1125   -5.9887   -4.0114 H         1 <0>         0.1234
     31 H13        -0.7116   -6.5340   -4.0499 H         1 <0>         0.1247
     32 H14         0.7599   -5.7421   -2.2414 H         1 <0>         0.1244
@<TRIPOS>BOND
     1    1    2 1
     2    1   20 1
     3    1   21 1
     4    1   22 1
     5    2    7 ar
     6    2    3 ar
     7    3    4 ar
     8    3   23 1
     9    4    5 ar
    10    4   24 1
    11    5   12 1
    12    5    6 ar
    13    6    7 ar
    14    6    8 1
    15    7   25 1
    16    8    9 1
    17    9   10 2
    18    9   11 1
    19   11   12 1
    20   11   26 1
    21   11   27 1
    22   12   13 1
    23   12   14 1
    24   14   19 ar
    25   14   15 ar
    26   15   16 ar
    27   15   28 1
    28   16   17 ar
    29   16   29 1
    30   17   18 ar
    31   17   30 1
    32   18   19 ar
    33   18   31 1
    34   19   32 1
@<TRIPOS>MOLECULE
ZINC00177888
   32    34     0     0     0
SMALL
USER_CHARGES

@<TRIPOS>ATOM
      1 C1         -0.0184    1.5028    0.0103 C.3       1 <0>        -0.1179
      2 C2          0.0021   -0.0041    0.0020 C.ar      1 <0>        -0.0490
      3 C3          0.0058   -0.6900   -1.1988 C.ar      1 <0>        -0.1369
      4 C4          0.0210   -2.0706   -1.2055 C.ar      1 <0>        -0.0664
      5 C5          0.0350   -2.7774   -0.0132 C.ar      1 <0>        -0.1532
      6 C6          0.0379   -2.0925    1.1886 C.ar      1 <0>         0.1286
      7 C7          0.0228   -0.7014    1.1924 C.ar      1 <0>        -0.1328
      8 O1          0.0722   -2.7414    2.3845 O.3       1 <0>        -0.2978
      9 C8         -0.1174   -4.0760    2.3744 C.2       1 <0>         0.4906
     10 O2         -0.7873   -4.6264    3.2160 O.2       1 <0>        -0.4311
     11 C9          0.5491   -4.8535    1.2569 C.3       1 <0>        -0.1610
     12 C10         0.0404   -4.2840   -0.0709 C.3       1 <0>         0.0005
     13 H1         -0.9721   -4.6431   -0.2549 H         1 <0>         0.1021
     14 C11         0.9423   -4.7390   -1.1892 C.ar      1 <0>        -0.0790
     15 C12         2.2834   -4.4042   -1.1753 C.ar      1 <0>        -0.1060
     16 C13         3.1107   -4.8216   -2.2011 C.ar      1 <0>        -0.1159
     17 C14         2.5969   -5.5742   -3.2406 C.ar      1 <0>        -0.1163
     18 C15         1.2560   -5.9097   -3.2541 C.ar      1 <0>        -0.1166
     19 C16         0.4296   -5.4960   -2.2261 C.ar      1 <0>        -0.1110
     20 H2          1.0042    1.8801    0.0026 H         1 <0>         0.0768
     21 H3         -0.5455    1.8639   -0.8728 H         1 <0>         0.0722
     22 H4         -0.5286    1.8543    0.9071 H         1 <0>         0.0712
     23 H5         -0.0035   -0.1457   -2.1315 H         1 <0>         0.1301
     24 H6          0.0217   -2.6029   -2.1452 H         1 <0>         0.1313
     25 H7          0.0236   -0.1656    2.1301 H         1 <0>         0.1378
     26 H8          1.6311   -4.7366    1.3193 H         1 <0>         0.1146
     27 H9          0.2855   -5.9085    1.3320 H         1 <0>         0.1180
     28 H10         2.6848   -3.8162   -0.3632 H         1 <0>         0.1206
     29 H11         4.1583   -4.5594   -2.1906 H         1 <0>         0.1240
     30 H12         3.2431   -5.8997   -4.0424 H         1 <0>         0.1234
     31 H13         0.8546   -6.4974   -4.0664 H         1 <0>         0.1247
     32 H14        -0.6172   -5.7613   -2.2347 H         1 <0>         0.1244
@<TRIPOS>BOND
     1    1    2 1
     2    1   20 1
     3    1   21 1
     4    1   22 1
     5    2    7 ar
     6    2    3 ar
     7    3    4 ar
     8    3   23 1
     9    4    5 ar
    10    4   24 1
    11    5   12 1
    12    5    6 ar
    13    6    7 ar
    14    6    8 1
    15    7   25 1
    16    8    9 1
    17    9   10 2
    18    9   11 1
    19   11   12 1
    20   11   26 1
    21   11   27 1
    22   12   13 1
    23   12   14 1
    24   14   19 ar
    25   14   15 ar
    26   15   16 ar
    27   15   28 1
    28   16   17 ar
    29   16   29 1
    30   17   18 ar
    31   17   30 1
    32   18   19 ar
    33   18   31 1
    34   19   32 1
@<TRIPOS>MOLECULE
ZINC04765030
   36    38     0     0     0
SMALL
USER_CHARGES
7-chloro-4-methyl-3-phenyl-4a,5,6,7,8,8a-hexahydrochromen-2-one
@<TRIPOS>ATOM
      1 C1          1.1741   -2.1681   -0.1686 C.3       1 <0>        -0.1380
      2 C2          1.1645   -0.6612   -0.1470 C.2       1 <0>        -0.0162
      3 C3          0.0021   -0.0041    0.0020 C.2       1 <0>        -0.1732
      4 C4         -0.0180    1.4758    0.0102 C.2       1 <0>         0.5206
      5 O1         -1.0680    2.0869    0.0185 O.2       1 <0>        -0.4377
      6 O2          1.1733    2.1315    0.0023 O.3       1 <0>        -0.3491
      7 C5          2.1793    1.4980   -0.8333 C.3       1 <0>         0.1045
      8 H1          1.8064    1.4255   -1.8550 H         1 <0>         0.0842
      9 C6          2.4524    0.0932   -0.2924 C.3       1 <0>        -0.1009
     10 H2          2.9225    0.1790    0.6872 H         1 <0>         0.1110
     11 C7          3.4253   -0.6214   -1.2267 C.3       1 <0>        -0.1077
     12 C8          4.7404    0.1646   -1.2631 C.3       1 <0>        -0.1289
     13 C9          4.4869    1.5896   -1.7548 C.3       1 <0>         0.0006
     14 H3          4.0863    1.5546   -2.7680 H         1 <0>         0.1056
     15 C10         3.4827    2.2928   -0.8353 C.3       1 <0>        -0.1203
     16 Cl1         6.0394    2.5064   -1.7571 Cl        1 <0>        -0.1662
     17 C11        -1.2633   -0.7630    0.1581 C.ar      1 <0>        -0.0347
     18 C12        -1.7406   -1.5498   -0.8884 C.ar      1 <0>        -0.1039
     19 C13        -2.9154   -2.2577   -0.7358 C.ar      1 <0>        -0.1198
     20 C14        -3.6248   -2.1784    0.4491 C.ar      1 <0>        -0.1137
     21 C15        -3.1585   -1.3948    1.4893 C.ar      1 <0>        -0.1167
     22 C16        -1.9819   -0.6871    1.3497 C.ar      1 <0>        -0.0948
     23 H4          0.1561   -2.5396   -0.0510 H         1 <0>         0.0828
     24 H5          1.5801   -2.5152   -1.1187 H         1 <0>         0.0845
     25 H6          1.7930   -2.5392    0.6483 H         1 <0>         0.0833
     26 H7          3.6123   -1.6298   -0.8577 H         1 <0>         0.0907
     27 H8          3.0005   -0.6696   -2.2293 H         1 <0>         0.0764
     28 H9          5.4393   -0.3313   -1.9366 H         1 <0>         0.0872
     29 H10         5.1669    0.1986   -0.2606 H         1 <0>         0.0826
     30 H11         3.2950    3.3017   -1.2027 H         1 <0>         0.0953
     31 H12         3.8828    2.3412    0.1775 H         1 <0>         0.0934
     32 H13        -1.1900   -1.6087   -1.8156 H         1 <0>         0.1223
     33 H14        -3.2840   -2.8713   -1.5446 H         1 <0>         0.1258
     34 H15        -4.5461   -2.7305    0.5626 H         1 <0>         0.1244
     35 H16        -3.7160   -1.3370    2.4124 H         1 <0>         0.1258
     36 H17        -1.6185   -0.0759    2.1626 H         1 <0>         0.1209
@<TRIPOS>BOND
     1    1    2 1
     2    1   23 1
     3    1   24 1
     4    1   25 1
     5    2    9 1
     6    2    3 2
     7    3    4 1
     8    3   17 1
     9    4    5 2
    10    4    6 1
    11    6    7 1
    12    7    8 1
    13    7   15 1
    14    7    9 1
    15    9   10 1
    16    9   11 1
    17   11   12 1
    18   11   26 1
    19   11   27 1
    20   12   13 1
    21   12   28 1
    22   12   29 1
    23   13   14 1
    24   13   15 1
    25   13   16 1
    26   15   30 1
    27   15   31 1
    28   17   22 ar
    29   17   18 ar
    30   18   19 ar
    31   18   32 1
    32   19   20 ar
    33   19   33 1
    34   20   21 ar
    35   20   34 1
    36   21   22 ar
    37   21   35 1
    38   22   36 1
@<TRIPOS>MOLECULE
ZINC04765033
   36    38     0     0     0
SMALL
USER_CHARGES
7-chloro-4-methyl-3-phenyl-4a,5,6,7,8,8a-hexahydrochromen-2-one
@<TRIPOS>ATOM
      1 C1          3.0342    2.9993   -2.2489 C.3       1 <0>        -0.1375
      2 C2          3.9767    2.9277   -1.0751 C.2       1 <0>        -0.0212
      3 C3          3.6600    2.1641   -0.0207 C.2       1 <0>        -0.1705
      4 C4          4.5817    2.0677    1.1333 C.2       1 <0>         0.5210
      5 O1          4.3788    1.2816    2.0372 O.2       1 <0>        -0.4383
      6 O2          5.6630    2.8909    1.1451 O.3       1 <0>        -0.3507
      7 C5          6.2735    3.0736   -0.1622 C.3       1 <0>         0.1040
      8 H1          6.5299    2.0950   -0.5678 H         1 <0>         0.0858
      9 C6          5.2605    3.7217   -1.1034 C.3       1 <0>        -0.0944
     10 H2          5.6631    3.7427   -2.1161 H         1 <0>         0.1155
     11 C7          4.9576    5.1500   -0.6404 C.3       1 <0>        -0.1082
     12 C8          6.2483    5.9668   -0.5877 C.3       1 <0>        -0.1233
     13 C9          7.2092    5.3223    0.4152 C.3       1 <0>        -0.0020
     14 H3          6.7369    5.2783    1.3966 H         1 <0>         0.1094
     15 C10         7.5430    3.9061   -0.0564 C.3       1 <0>        -0.1169
     16 Cl1         8.7226    6.2970    0.5170 Cl        1 <0>        -0.1766
     17 C11         2.3836    1.4075   -0.0126 C.ar      1 <0>        -0.0371
     18 C12         1.1675    2.0878    0.0021 C.ar      1 <0>        -0.1035
     19 C13        -0.0167    1.3790    0.0096 C.ar      1 <0>        -0.1202
     20 C14         0.0021   -0.0041    0.0020 C.ar      1 <0>        -0.1135
     21 C15         1.2063   -0.6845   -0.0127 C.ar      1 <0>        -0.1175
     22 C16         2.3966    0.0141   -0.0198 C.ar      1 <0>        -0.0929
     23 H4          2.1646    2.3713   -2.0554 H         1 <0>         0.0828
     24 H5          2.7125    4.0306   -2.3942 H         1 <0>         0.0833
     25 H6          3.5438    2.6478   -3.1460 H         1 <0>         0.0822
     26 H7          4.5071    5.1209    0.3517 H         1 <0>         0.0749
     27 H8          4.2631    5.6157   -1.3397 H         1 <0>         0.0831
     28 H9          6.0222    6.9855   -0.2727 H         1 <0>         0.0847
     29 H10         6.7101    5.9847   -1.5749 H         1 <0>         0.0809
     30 H11         8.2227    3.4390    0.6562 H         1 <0>         0.0947
     31 H12         8.0250    3.9549   -1.0328 H         1 <0>         0.1030
     32 H13         1.1517    3.1677    0.0077 H         1 <0>         0.1227
     33 H14        -0.9598    1.9053    0.0169 H         1 <0>         0.1258
     34 H15        -0.9270   -0.5547    0.0079 H         1 <0>         0.1243
     35 H16         1.2152   -1.7645   -0.0182 H         1 <0>         0.1257
     36 H17         3.3362   -0.5182   -0.0305 H         1 <0>         0.1207
@<TRIPOS>BOND
     1    1    2 1
     2    1   23 1
     3    1   24 1
     4    1   25 1
     5    2    9 1
     6    2    3 2
     7    3    4 1
     8    3   17 1
     9    4    5 2
    10    4    6 1
    11    6    7 1
    12    7    8 1
    13    7   15 1
    14    7    9 1
    15    9   10 1
    16    9   11 1
    17   11   12 1
    18   11   26 1
    19   11   27 1
    20   12   13 1
    21   12   28 1
    22   12   29 1
    23   13   14 1
    24   13   15 1
    25   13   16 1
    26   15   30 1
    27   15   31 1
    28   17   22 ar
    29   17   18 ar
    30   18   19 ar
    31   18   32 1
    32   19   20 ar
    33   19   33 1
    34   20   21 ar
    35   20   34 1
    36   21   22 ar
    37   21   35 1
    38   22   36 1
@<TRIPOS>MOLECULE
ZINC04765037
   36    38     0     0     0
SMALL
USER_CHARGES
7-chloro-4-methyl-3-phenyl-4a,5,6,7,8,8a-hexahydrochromen-2-one
@<TRIPOS>ATOM
      1 C1         -2.6787    0.9346    3.8463 C.3       1 <0>        -0.1362
      2 C2         -2.8596    1.6022    2.5074 C.2       1 <0>        -0.0227
      3 C3         -3.6362    2.6899    2.4126 C.2       1 <0>        -0.1716
      4 C4         -3.8356    3.3515    1.1037 C.2       1 <0>         0.5168
      5 O1         -4.6345    4.2572    0.9711 O.2       1 <0>        -0.4432
      6 O2         -3.0927    2.9084    0.0554 O.3       1 <0>        -0.3292
      7 C5         -2.9122    1.4655    0.0347 C.3       1 <0>         0.0999
      8 H1         -3.8998    1.0042    0.0407 H         1 <0>         0.0796
      9 C6         -2.1635    1.0347    1.2940 C.3       1 <0>        -0.0889
     10 H2         -2.1479   -0.0534    1.3563 H         1 <0>         0.1108
     11 C7         -0.7309    1.5801    1.2633 C.3       1 <0>        -0.1142
     12 C8         -0.0127    1.0858    0.0080 C.3       1 <0>        -0.1239
     13 C9         -0.7561    1.5944   -1.2302 C.3       1 <0>        -0.0095
     14 H3         -0.2347    1.2659   -2.1293 H         1 <0>         0.1065
     15 C10        -2.1771    1.0284   -1.2239 C.3       1 <0>        -0.1178
     16 Cl1        -0.8237    3.3958   -1.1959 Cl        1 <0>        -0.1563
     17 C11        -4.2990    3.2330    3.6240 C.ar      1 <0>        -0.0331
     18 C12        -5.2734    2.4855    4.2825 C.ar      1 <0>        -0.1069
     19 C13        -5.8832    2.9935    5.4116 C.ar      1 <0>        -0.1194
     20 C14        -5.5360    4.2464    5.8839 C.ar      1 <0>        -0.1152
     21 C15        -4.5735    4.9951    5.2309 C.ar      1 <0>        -0.1164
     22 C16        -3.9534    4.4947    4.1040 C.ar      1 <0>        -0.0948
     23 H4         -1.8204    1.3712    4.3570 H         1 <0>         0.0842
     24 H5         -3.5742    1.0821    4.4499 H         1 <0>         0.0846
     25 H6         -2.5105   -0.1325    3.7004 H         1 <0>         0.0752
     26 H7         -0.1925    1.2374    2.1469 H         1 <0>         0.0771
     27 H8         -0.7591    2.6698    1.2586 H         1 <0>         0.0822
     28 H9          0.0021   -0.0041    0.0020 H         1 <0>         0.0843
     29 H10         1.0095    1.4641    0.0003 H         1 <0>         0.0827
     30 H11        -2.7141    1.3915   -2.1002 H         1 <0>         0.0936
     31 H12        -2.1322   -0.0602   -1.2562 H         1 <0>         0.1055
     32 H13        -5.5482    1.5089    3.9121 H         1 <0>         0.1223
     33 H14        -6.6354    2.4132    5.9253 H         1 <0>         0.1252
     34 H15        -6.0185    4.6416    6.7656 H         1 <0>         0.1238
     35 H16        -4.3065    5.9729    5.6038 H         1 <0>         0.1252
     36 H17        -3.2021    5.0801    3.5949 H         1 <0>         0.1203
@<TRIPOS>BOND
     1    1    2 1
     2    1   23 1
     3    1   24 1
     4    1   25 1
     5    2    9 1
     6    2    3 2
     7    3    4 1
     8    3   17 1
     9    4    5 2
    10    4    6 1
    11    6    7 1
    12    7    8 1
    13    7   15 1
    14    7    9 1
    15    9   10 1
    16    9   11 1
    17   11   12 1
    18   11   26 1
    19   11   27 1
    20   12   13 1
    21   12   28 1
    22   12   29 1
    23   13   14 1
    24   13   15 1
    25   13   16 1
    26   15   30 1
    27   15   31 1
    28   17   22 ar
    29   17   18 ar
    30   18   19 ar
    31   18   32 1
    32   19   20 ar
    33   19   33 1
    34   20   21 ar
    35   20   34 1
    36   21   22 ar
    37   21   35 1
    38   22   36 1
@<TRIPOS>MOLECULE
ZINC04765038
   36    38     0     0     0
SMALL
USER_CHARGES
7-chloro-4-methyl-3-phenyl-4a,5,6,7,8,8a-hexahydrochromen-2-one
@<TRIPOS>ATOM
      1 C1          2.8818    2.0232   -2.2546 C.3       1 <0>        -0.1372
      2 C2          3.2968    1.1795   -1.0769 C.2       1 <0>        -0.0153
      3 C3          2.4811    1.0700   -0.0149 C.2       1 <0>        -0.1744
      4 C4          2.8775    0.2370    1.1424 C.2       1 <0>         0.5217
      5 O1          2.1071    0.0336    2.0596 O.2       1 <0>        -0.4404
      6 O2          4.1268   -0.2987    1.1473 O.3       1 <0>        -0.3517
      7 C5          4.5783   -0.7399   -0.1617 C.3       1 <0>         0.0970
      8 H1          3.8752   -1.4766   -0.5503 H         1 <0>         0.0901
      9 C6          4.6168    0.4682   -1.0996 C.3       1 <0>        -0.0974
     10 H2          5.3896    1.1495   -0.7439 H         1 <0>         0.1076
     11 C7          4.9834   -0.0017   -2.5048 C.3       1 <0>        -0.1132
     12 C8          6.3737   -0.6450   -2.4618 C.3       1 <0>        -0.1287
     13 C9          6.3753   -1.8272   -1.4927 C.3       1 <0>        -0.0003
     14 H3          7.3739   -2.2625   -1.4551 H         1 <0>         0.1154
     15 C10         5.9720   -1.3590   -0.0903 C.3       1 <0>        -0.1193
     16 Cl1         5.2048   -3.0726   -2.0669 Cl        1 <0>        -0.1759
     17 C11         1.1839    1.7902    0.0004 C.ar      1 <0>        -0.0347
     18 C12        -0.0126    1.0758    0.0080 C.ar      1 <0>        -0.0927
     19 C13        -1.2163    1.7509    0.0173 C.ar      1 <0>        -0.1175
     20 C14        -1.2365    3.1339    0.0293 C.ar      1 <0>        -0.1141
     21 C15        -0.0519    3.8481    0.0223 C.ar      1 <0>        -0.1203
     22 C16         1.1575    3.1835    0.0076 C.ar      1 <0>        -0.1042
     23 H4          1.9014    2.4589   -2.0619 H         1 <0>         0.0822
     24 H5          3.6102    2.8199   -2.4055 H         1 <0>         0.0833
     25 H6          2.8335    1.4010   -3.1483 H         1 <0>         0.0839
     26 H7          4.2524   -0.7339   -2.8477 H         1 <0>         0.0814
     27 H8          4.9961    0.8510   -3.1837 H         1 <0>         0.0863
     28 H9          6.6413   -0.9946   -3.4589 H         1 <0>         0.0873
     29 H10         7.1036    0.0933   -2.1296 H         1 <0>         0.0882
     30 H11         5.9592   -2.2107    0.5898 H         1 <0>         0.0955
     31 H12         6.6861   -0.6169    0.2667 H         1 <0>         0.0991
     32 H13         0.0021   -0.0041    0.0020 H         1 <0>         0.1207
     33 H14        -2.1442    1.1982    0.0191 H         1 <0>         0.1255
     34 H15        -2.1807    3.6581    0.0400 H         1 <0>         0.1241
     35 H16        -0.0735    4.9279    0.0279 H         1 <0>         0.1255
     36 H17         2.0818    3.7421    0.0014 H         1 <0>         0.1226
@<TRIPOS>BOND
     1    1    2 1
     2    1   23 1
     3    1   24 1
     4    1   25 1
     5    2    9 1
     6    2    3 2
     7    3    4 1
     8    3   17 1
     9    4    5 2
    10    4    6 1
    11    6    7 1
    12    7    8 1
    13    7   15 1
    14    7    9 1
    15    9   10 1
    16    9   11 1
    17   11   12 1
    18   11   26 1
    19   11   27 1
    20   12   13 1
    21   12   28 1
    22   12   29 1
    23   13   14 1
    24   13   15 1
    25   13   16 1
    26   15   30 1
    27   15   31 1
    28   17   22 ar
    29   17   18 ar
    30   18   19 ar
    31   18   32 1
    32   19   20 ar
    33   19   33 1
    34   20   21 ar
    35   20   34 1
    36   21   22 ar
    37   21   35 1
    38   22   36 1
@<TRIPOS>MOLECULE
ZINC02576403
   35    37     0     0     0
SMALL
USER_CHARGES
7-ethoxy-3-(4-hydroxyphenyl)-chromen-4-one
@<TRIPOS>ATOM
      1 C1          8.2601   -1.4446   -0.0805 C.3       1 <0>        -0.1543
      2 C2          7.1258   -0.4179   -0.0652 C.3       1 <0>         0.0507
      3 O1          5.8686   -1.0971   -0.0578 O.3       1 <0>        -0.3054
      4 C3          4.7516   -0.3258   -0.0440 C.ar      1 <0>         0.1979
      5 C4          4.8713    1.0625   -0.0377 C.ar      1 <0>        -0.2342
      6 C5          3.7561    1.8504   -0.0233 C.ar      1 <0>         0.0127
      7 C6          2.4913    1.2604   -0.0149 C.ar      1 <0>        -0.2593
      8 C7          2.3595   -0.1392   -0.0211 C.ar      1 <0>         0.1876
      9 C8          3.5041   -0.9258   -0.0358 C.ar      1 <0>        -0.1829
     10 O2          1.1375   -0.7073   -0.0126 O.3       1 <0>        -0.2175
     11 C9          0.0021   -0.0041    0.0020 C.2       1 <0>         0.1351
     12 C10        -0.0163    1.3537    0.0095 C.2       1 <0>        -0.2446
     13 C11         1.2656    2.0790    0.0011 C.2       1 <0>         0.4320
     14 O3          1.3107    3.2971    0.0068 O.2       1 <0>        -0.4557
     15 C12        -1.3027    2.0923    0.0196 C.ar      1 <0>        -0.0355
     16 C13        -1.5200    3.1036    0.9539 C.ar      1 <0>        -0.0711
     17 C14        -2.7150    3.7924    0.9571 C.ar      1 <0>        -0.1428
     18 C15        -3.7050    3.4717    0.0385 C.ar      1 <0>         0.1093
     19 C16        -3.4939    2.4613   -0.8895 C.ar      1 <0>        -0.1439
     20 C17        -2.2988    1.7726   -0.9014 C.ar      1 <0>        -0.0951
     21 O4         -4.8838    4.1482    0.0481 O.3       1 <0>        -0.4992
     22 H1          8.1924   -2.0740    0.8068 H         1 <0>         0.0687
     23 H2          8.1768   -2.0647   -0.9731 H         1 <0>         0.0687
     24 H3          9.2191   -0.9265   -0.0862 H         1 <0>         0.0826
     25 H4          7.1935    0.2116   -0.9525 H         1 <0>         0.0687
     26 H5          7.2091    0.2022    0.8274 H         1 <0>         0.0687
     27 H6          5.8507    1.5175   -0.0446 H         1 <0>         0.1422
     28 H7          3.8524    2.9261   -0.0181 H         1 <0>         0.1463
     29 H8          3.4210   -2.0026   -0.0406 H         1 <0>         0.1532
     30 H9         -0.9379   -0.5359    0.0085 H         1 <0>         0.2041
     31 H10        -0.7519    3.3503    1.6720 H         1 <0>         0.1279
     32 H11        -2.8824    4.5789    1.6781 H         1 <0>         0.1319
     33 H12        -4.2660    2.2143   -1.6031 H         1 <0>         0.1323
     34 H13        -2.1352    0.9863   -1.6235 H         1 <0>         0.1288
     35 H14        -5.5589    3.7539    0.6173 H         1 <0>         0.3920
@<TRIPOS>BOND
     1    1    2 1
     2    1   22 1
     3    1   23 1
     4    1   24 1
     5    2    3 1
     6    2   25 1
     7    2   26 1
     8    3    4 1
     9    4    9 ar
    10    4    5 ar
    11    5    6 ar
    12    5   27 1
    13    6    7 ar
    14    6   28 1
    15    7   13 1
    16    7    8 ar
    17    8    9 ar
    18    8   10 1
    19    9   29 1
    20   10   11 1
    21   11   12 2
    22   11   30 1
    23   12   13 1
    24   12   15 1
    25   13   14 2
    26   15   20 ar
    27   15   16 ar
    28   16   17 ar
    29   16   31 1
    30   17   18 ar
    31   17   32 1
    32   18   19 ar
    33   18   21 1
    34   19   20 ar
    35   19   33 1
    36   20   34 1
    37   21   35 1
@<TRIPOS>MOLECULE
ZINC02576376
   38    40     0     0     0
SMALL
USER_CHARGES
7-(3-bromopropoxy)-3-(4-hydroxyphenyl)-chromen-4-one
@<TRIPOS>ATOM
      1 C1         -3.0780   -8.8211   -0.9470 C.ar      1 <0>        -0.0711
      2 C2         -3.3516  -10.1730   -0.9469 C.ar      1 <0>        -0.1428
      3 C3         -4.2380  -10.7032   -0.0196 C.ar      1 <0>         0.1097
      4 C4         -4.8484   -9.8759    0.9130 C.ar      1 <0>        -0.1439
      5 C5         -4.5750   -8.5240    0.9215 C.ar      1 <0>        -0.0949
      6 C6         -3.6850   -7.9887   -0.0081 C.ar      1 <0>        -0.0360
      7 C7         -3.3890   -6.5352   -0.0021 C.2       1 <0>        -0.2439
      8 C8         -4.3958   -5.6239    0.0129 C.2       1 <0>         0.1350
      9 O1         -4.1731   -4.3070    0.0179 O.3       1 <0>        -0.2172
     10 C9         -2.9392   -3.7653    0.0094 C.ar      1 <0>         0.1881
     11 C10        -2.7729   -2.3864    0.0157 C.ar      1 <0>        -0.1808
     12 C11        -1.4981   -1.8467    0.0064 C.ar      1 <0>         0.1972
     13 C12        -0.3773   -2.6744   -0.0145 C.ar      1 <0>        -0.2340
     14 C13        -0.5231   -4.0322   -0.0160 C.ar      1 <0>         0.0130
     15 C14        -1.8019   -4.5913   -0.0063 C.ar      1 <0>        -0.2578
     16 C15        -1.9976   -6.0523   -0.0128 C.2       1 <0>         0.4317
     17 O2         -1.0536   -6.8235   -0.0268 O.2       1 <0>        -0.4549
     18 O3         -1.3386   -0.4987    0.0122 O.3       1 <0>        -0.3016
     19 C16         0.0021   -0.0041    0.0020 C.3       1 <0>         0.0570
     20 C17        -0.0187    1.5258    0.0104 C.3       1 <0>        -0.1223
     21 C18         1.4167    2.0553   -0.0004 C.3       1 <0>        -0.0806
     22 Br1         1.3901    4.0211    0.0104 Br        1 <0>        -0.1450
     23 O4         -4.5091  -12.0349   -0.0251 O.3       1 <0>        -0.4992
     24 H1         -2.3911   -8.4086   -1.6712 H         1 <0>         0.1278
     25 H2         -2.8785  -10.8192   -1.6715 H         1 <0>         0.1320
     26 H3         -5.5379  -10.2913    1.6330 H         1 <0>         0.1324
     27 H4         -5.0502   -7.8809    1.6474 H         1 <0>         0.1289
     28 H5         -5.4161   -5.9779    0.0204 H         1 <0>         0.2045
     29 H6         -3.6358   -1.7370    0.0275 H         1 <0>         0.1540
     30 H7          0.6114   -2.2401   -0.0261 H         1 <0>         0.1419
     31 H8          0.3477   -4.6709   -0.0284 H         1 <0>         0.1467
     32 H9          0.5123   -0.3556   -0.8948 H         1 <0>         0.0727
     33 H10         0.5293   -0.3651    0.8851 H         1 <0>         0.0727
     34 H11        -0.5459    1.8868   -0.8726 H         1 <0>         0.0899
     35 H12        -0.5289    1.8773    0.9072 H         1 <0>         0.0899
     36 H13         1.9439    1.6943    0.8826 H         1 <0>         0.1043
     37 H14         1.9269    1.7038   -0.8972 H         1 <0>         0.1043
     38 H15        -5.2563  -12.2819   -0.5871 H         1 <0>         0.3921
@<TRIPOS>BOND
     1    1    6 ar
     2    1    2 ar
     3    1   24 1
     4    2    3 ar
     5    2   25 1
     6    3    4 ar
     7    3   23 1
     8    4    5 ar
     9    4   26 1
    10    5    6 ar
    11    5   27 1
    12    6    7 1
    13    7   16 1
    14    7    8 2
    15    8    9 1
    16    8   28 1
    17    9   10 1
    18   10   15 ar
    19   10   11 ar
    20   11   12 ar
    21   11   29 1
    22   12   13 ar
    23   12   18 1
    24   13   14 ar
    25   13   30 1
    26   14   15 ar
    27   14   31 1
    28   15   16 1
    29   16   17 2
    30   18   19 1
    31   19   20 1
    32   19   32 1
    33   19   33 1
    34   20   21 1
    35   20   34 1
    36   20   35 1
    37   21   22 1
    38   21   36 1
    39   21   37 1
    40   23   38 1
@<TRIPOS>MOLECULE
ZINC04349762
   50    53     0     0     0
SMALL
USER_CHARGES

@<TRIPOS>ATOM
      1 C1         -0.0168    1.3896    0.0097 C.ar      1 <0>        -0.0906
      2 C2          1.1691    2.0940    0.0021 C.ar      1 <0>        -0.1449
      3 C3          2.3804    1.4164   -0.0135 C.ar      1 <0>         0.1107
      4 C4          2.4025    0.0286   -0.0216 C.ar      1 <0>        -0.1435
      5 C5          1.2201   -0.6816   -0.0137 C.ar      1 <0>        -0.0709
      6 C6          0.0021   -0.0041    0.0020 C.ar      1 <0>        -0.0376
      7 C7         -1.2714   -0.7647    0.0106 C.2       1 <0>        -0.2416
      8 C8         -2.1312   -0.6984   -1.0395 C.2       1 <0>         0.1302
      9 O1         -3.2792   -1.3783   -1.0768 O.3       1 <0>        -0.2154
     10 C9         -3.8134   -1.9293    0.0301 C.ar      1 <0>         0.1758
     11 C10        -5.1368   -2.3510    0.0428 C.ar      1 <0>        -0.1757
     12 C11        -5.6660   -2.9233    1.1868 C.ar      1 <0>         0.1896
     13 C12        -4.8838   -3.0822    2.3291 C.ar      1 <0>        -0.2055
     14 C13        -3.5815   -2.6701    2.3350 C.ar      1 <0>         0.0086
     15 C14        -3.0361   -2.0875    1.1913 C.ar      1 <0>        -0.2481
     16 C15        -1.6365   -1.6187    1.1568 C.2       1 <0>         0.4331
     17 O2         -0.8326   -1.9150    2.0240 O.2       1 <0>        -0.4511
     18 O3         -6.9599   -3.3335    1.1962 O.3       1 <0>        -0.3234
     19 C16        -7.4470   -3.9162    2.4066 C.3       1 <0>         0.2114
     20 H1         -7.2819   -3.2264    3.2343 H         1 <0>         0.1196
     21 C17        -8.9452   -4.2002    2.2697 C.3       1 <0>         0.0681
     22 H2         -9.4710   -3.2752    2.0329 H         1 <0>         0.0785
     23 C18        -9.1636   -5.2158    1.1441 C.3       1 <0>         0.0811
     24 H3         -8.8284   -4.7898    0.1985 H         1 <0>         0.0862
     25 C19        -8.3576   -6.4819    1.4502 C.3       1 <0>         0.0928
     26 H4         -8.4633   -7.1888    0.6272 H         1 <0>         0.0734
     27 C20        -6.8822   -6.1098    1.6187 C.3       1 <0>         0.1033
     28 H5         -6.5032   -5.6940    0.6851 H         1 <0>         0.0847
     29 O4         -6.7527   -5.1393    2.6599 O.3       1 <0>        -0.3473
     30 C21        -6.0791   -7.3600    1.9836 C.3       1 <0>         0.0890
     31 O5         -4.6879   -7.0367    2.0267 O.3       1 <0>        -0.5667
     32 O6         -8.8421   -7.0767    2.6558 O.3       1 <0>        -0.5323
     33 O7        -10.5524   -5.5408    1.0564 O.3       1 <0>        -0.5512
     34 O8         -9.4445   -4.7323    3.4983 O.3       1 <0>        -0.5132
     35 O9          3.5472    2.1133   -0.0214 O.3       1 <0>        -0.5000
     36 H6         -0.9590    1.9174    0.0260 H         1 <0>         0.1284
     37 H7          1.1551    3.1739    0.0081 H         1 <0>         0.1320
     38 H8          3.3466   -0.4958   -0.0346 H         1 <0>         0.1322
     39 H9          1.2380   -1.7614   -0.0204 H         1 <0>         0.1282
     40 H10        -1.8752   -0.0690   -1.8790 H         1 <0>         0.2007
     41 H11        -5.7514   -2.2323   -0.8373 H         1 <0>         0.1513
     42 H12        -5.3090   -3.5334    3.2135 H         1 <0>         0.1477
     43 H13        -2.9771   -2.7942    3.2214 H         1 <0>         0.1452
     44 H14        -6.3979   -7.7244    2.9602 H         1 <0>         0.0687
     45 H15        -6.2495   -8.1328    1.2341 H         1 <0>         0.0625
     46 H16        -4.1172   -7.7840    2.2526 H         1 <0>         0.3837
     47 H17        -9.7737   -7.3336    2.6209 H         1 <0>         0.3853
     48 H18       -11.1228   -4.7824    0.8702 H         1 <0>         0.3863
     49 H19        -9.3346   -4.1419    4.2562 H         1 <0>         0.3778
     50 H20         3.8936    2.3103    0.8597 H         1 <0>         0.3929
@<TRIPOS>BOND
     1    1    6 ar
     2    1    2 ar
     3    1   36 1
     4    2    3 ar
     5    2   37 1
     6    3    4 ar
     7    3   35 1
     8    4    5 ar
     9    4   38 1
    10    5    6 ar
    11    5   39 1
    12    6    7 1
    13    7   16 1
    14    7    8 2
    15    8    9 1
    16    8   40 1
    17    9   10 1
    18   10   15 ar
    19   10   11 ar
    20   11   12 ar
    21   11   41 1
    22   12   13 ar
    23   12   18 1
    24   13   14 ar
    25   13   42 1
    26   14   15 ar
    27   14   43 1
    28   15   16 1
    29   16   17 2
    30   18   19 1
    31   19   20 1
    32   19   29 1
    33   19   21 1
    34   21   22 1
    35   21   23 1
    36   21   34 1
    37   23   24 1
    38   23   25 1
    39   23   33 1
    40   25   26 1
    41   25   27 1
    42   25   32 1
    43   27   28 1
    44   27   29 1
    45   27   30 1
    46   30   31 1
    47   30   44 1
    48   30   45 1
    49   31   46 1
    50   32   47 1
    51   33   48 1
    52   34   49 1
    53   35   50 1
@<TRIPOS>MOLECULE
ZINC12374719
   50    53     0     0     0
SMALL
USER_CHARGES

@<TRIPOS>ATOM
      1 C1         -0.0168    1.3896    0.0097 C.ar      1 <0>        -0.0903
      2 C2          1.1691    2.0940    0.0021 C.ar      1 <0>        -0.1446
      3 C3          2.3804    1.4164   -0.0135 C.ar      1 <0>         0.1107
      4 C4          2.4025    0.0286   -0.0216 C.ar      1 <0>        -0.1438
      5 C5          1.2201   -0.6816   -0.0137 C.ar      1 <0>        -0.0711
      6 C6          0.0021   -0.0041    0.0020 C.ar      1 <0>        -0.0376
      7 C7         -1.2714   -0.7647    0.0106 C.2       1 <0>        -0.2416
      8 C8         -2.1312   -0.6984   -1.0395 C.2       1 <0>         0.1309
      9 O1         -3.2792   -1.3783   -1.0768 O.3       1 <0>        -0.2147
     10 C9         -3.8134   -1.9293    0.0301 C.ar      1 <0>         0.1779
     11 C10        -5.1368   -2.3510    0.0428 C.ar      1 <0>        -0.1735
     12 C11        -5.6660   -2.9233    1.1868 C.ar      1 <0>         0.1923
     13 C12        -4.8838   -3.0822    2.3291 C.ar      1 <0>        -0.2085
     14 C13        -3.5815   -2.6701    2.3350 C.ar      1 <0>         0.0091
     15 C14        -3.0361   -2.0875    1.1913 C.ar      1 <0>        -0.2498
     16 C15        -1.6365   -1.6187    1.1568 C.2       1 <0>         0.4339
     17 O2         -0.8326   -1.9150    2.0240 O.2       1 <0>        -0.4518
     18 O3         -6.9599   -3.3335    1.1962 O.3       1 <0>        -0.2864
     19 C16        -7.4470   -3.9162    2.4066 C.3       1 <0>         0.2226
     20 H1         -6.7554   -4.6889    2.7421 H         1 <0>         0.0741
     21 C17        -8.8238   -4.5371    2.1564 C.3       1 <0>         0.0665
     22 H2         -8.7343   -5.3379    1.4224 H         1 <0>         0.0752
     23 C18        -9.3653   -5.1062    3.4714 C.3       1 <0>         0.0795
     24 H3         -8.7102   -5.9043    3.8204 H         1 <0>         0.0813
     25 C19        -9.4132   -3.9882    4.5174 C.3       1 <0>         0.0898
     26 H4         -9.7452   -4.3965    5.4720 H         1 <0>         0.0768
     27 C20        -8.0137   -3.3886    4.6765 C.3       1 <0>         0.1118
     28 H5         -7.3294   -4.1543    5.0419 H         1 <0>         0.0824
     29 O4         -7.5568   -2.9060    3.4114 O.3       1 <0>        -0.3615
     30 C21        -8.0650   -2.2313    5.6760 C.3       1 <0>         0.0893
     31 O5         -6.7415   -1.7473    5.9127 O.3       1 <0>        -0.5685
     32 O6        -10.3234   -2.9729    4.0899 O.3       1 <0>        -0.5284
     33 O7        -10.6806   -5.6243    3.2624 O.3       1 <0>        -0.5451
     34 O8         -9.7169   -3.5359    1.6642 O.3       1 <0>        -0.5201
     35 O9          3.5472    2.1133   -0.0214 O.3       1 <0>        -0.5000
     36 H6         -0.9590    1.9174    0.0260 H         1 <0>         0.1288
     37 H7          1.1551    3.1739    0.0081 H         1 <0>         0.1322
     38 H8          3.3466   -0.4958   -0.0346 H         1 <0>         0.1320
     39 H9          1.2380   -1.7614   -0.0204 H         1 <0>         0.1280
     40 H10        -1.8752   -0.0690   -1.8790 H         1 <0>         0.2012
     41 H11        -5.7514   -2.2323   -0.8373 H         1 <0>         0.1535
     42 H12        -5.3090   -3.5334    3.2135 H         1 <0>         0.1415
     43 H13        -2.9771   -2.7942    3.2214 H         1 <0>         0.1460
     44 H14        -8.6787   -1.4273    5.2697 H         1 <0>         0.0703
     45 H15        -8.4975   -2.5800    6.6138 H         1 <0>         0.0656
     46 H16        -6.6979   -1.0111    6.5382 H         1 <0>         0.3853
     47 H17       -11.2301   -3.2848    3.9646 H         1 <0>         0.3861
     48 H18       -10.7244   -6.3330    2.6060 H         1 <0>         0.3878
     49 H19        -9.4327   -3.1290    0.8343 H         1 <0>         0.3822
     50 H20         3.8936    2.3103    0.8597 H         1 <0>         0.3929
@<TRIPOS>BOND
     1    1    6 ar
     2    1    2 ar
     3    1   36 1
     4    2    3 ar
     5    2   37 1
     6    3    4 ar
     7    3   35 1
     8    4    5 ar
     9    4   38 1
    10    5    6 ar
    11    5   39 1
    12    6    7 1
    13    7   16 1
    14    7    8 2
    15    8    9 1
    16    8   40 1
    17    9   10 1
    18   10   15 ar
    19   10   11 ar
    20   11   12 ar
    21   11   41 1
    22   12   13 ar
    23   12   18 1
    24   13   14 ar
    25   13   42 1
    26   14   15 ar
    27   14   43 1
    28   15   16 1
    29   16   17 2
    30   18   19 1
    31   19   20 1
    32   19   29 1
    33   19   21 1
    34   21   22 1
    35   21   23 1
    36   21   34 1
    37   23   24 1
    38   23   25 1
    39   23   33 1
    40   25   26 1
    41   25   27 1
    42   25   32 1
    43   27   28 1
    44   27   29 1
    45   27   30 1
    46   30   31 1
    47   30   44 1
    48   30   45 1
    49   31   46 1
    50   32   47 1
    51   33   48 1
    52   34   49 1
    53   35   50 1
@<TRIPOS>MOLECULE
ZINC12374720
   50    53     0     0     0
SMALL
USER_CHARGES

@<TRIPOS>ATOM
      1 C1         -0.0168    1.3896    0.0097 C.ar      1 <0>        -0.0903
      2 C2          1.1691    2.0940    0.0021 C.ar      1 <0>        -0.1447
      3 C3          2.3804    1.4164   -0.0135 C.ar      1 <0>         0.1107
      4 C4          2.4025    0.0286   -0.0216 C.ar      1 <0>        -0.1437
      5 C5          1.2201   -0.6816   -0.0137 C.ar      1 <0>        -0.0710
      6 C6          0.0021   -0.0041    0.0020 C.ar      1 <0>        -0.0376
      7 C7         -1.2714   -0.7647    0.0106 C.2       1 <0>        -0.2416
      8 C8         -2.1312   -0.6984   -1.0395 C.2       1 <0>         0.1309
      9 O1         -3.2792   -1.3783   -1.0768 O.3       1 <0>        -0.2146
     10 C9         -3.8134   -1.9293    0.0301 C.ar      1 <0>         0.1778
     11 C10        -5.1368   -2.3510    0.0428 C.ar      1 <0>        -0.1733
     12 C11        -5.6660   -2.9233    1.1868 C.ar      1 <0>         0.1914
     13 C12        -4.8838   -3.0822    2.3291 C.ar      1 <0>        -0.2080
     14 C13        -3.5815   -2.6701    2.3350 C.ar      1 <0>         0.0092
     15 C14        -3.0361   -2.0875    1.1913 C.ar      1 <0>        -0.2494
     16 C15        -1.6365   -1.6187    1.1568 C.2       1 <0>         0.4338
     17 O2         -0.8326   -1.9150    2.0240 O.2       1 <0>        -0.4516
     18 O3         -6.9599   -3.3335    1.1962 O.3       1 <0>        -0.2875
     19 C16        -7.4470   -3.9162    2.4066 C.3       1 <0>         0.2265
     20 H1         -6.7554   -4.6889    2.7421 H         1 <0>         0.0781
     21 C17        -8.8238   -4.5371    2.1564 C.3       1 <0>         0.0623
     22 H2         -9.5053   -3.7732    1.7820 H         1 <0>         0.0943
     23 C18        -9.3653   -5.1062    3.4714 C.3       1 <0>         0.0866
     24 H3         -8.7102   -5.9043    3.8204 H         1 <0>         0.0775
     25 C19        -9.4132   -3.9882    4.5174 C.3       1 <0>         0.0865
     26 H4         -9.7452   -4.3965    5.4720 H         1 <0>         0.0889
     27 C20        -8.0137   -3.3886    4.6765 C.3       1 <0>         0.1090
     28 H5         -7.3294   -4.1544    5.0419 H         1 <0>         0.0880
     29 O4         -7.5568   -2.9060    3.4114 O.3       1 <0>        -0.3670
     30 C21        -8.0650   -2.2313    5.6760 C.3       1 <0>         0.0888
     31 O5         -6.7415   -1.7473    5.9127 O.3       1 <0>        -0.5675
     32 O6        -10.3234   -2.9729    4.0899 O.3       1 <0>        -0.5454
     33 O7        -10.6806   -5.6243    3.2624 O.3       1 <0>        -0.5528
     34 O8         -8.7067   -5.5860    1.1930 O.3       1 <0>        -0.5570
     35 O9          3.5472    2.1133   -0.0214 O.3       1 <0>        -0.5000
     36 H6         -0.9590    1.9174    0.0260 H         1 <0>         0.1287
     37 H7          1.1551    3.1739    0.0081 H         1 <0>         0.1322
     38 H8          3.3466   -0.4958   -0.0346 H         1 <0>         0.1321
     39 H9          1.2380   -1.7614   -0.0204 H         1 <0>         0.1281
     40 H10        -1.8752   -0.0690   -1.8790 H         1 <0>         0.2012
     41 H11        -5.7514   -2.2323   -0.8373 H         1 <0>         0.1536
     42 H12        -5.3090   -3.5334    3.2135 H         1 <0>         0.1414
     43 H13        -2.9771   -2.7942    3.2214 H         1 <0>         0.1462
     44 H14        -8.6787   -1.4273    5.2697 H         1 <0>         0.0702
     45 H15        -8.4975   -2.5800    6.6138 H         1 <0>         0.0676
     46 H16        -6.6979   -1.0111    6.5382 H         1 <0>         0.3862
     47 H17       -11.2301   -3.2848    3.9646 H         1 <0>         0.3904
     48 H18       -10.7244   -6.3330    2.6060 H         1 <0>         0.3968
     49 H19        -8.3647   -5.2966    0.3360 H         1 <0>         0.3950
     50 H20         3.8936    2.3103    0.8597 H         1 <0>         0.3929
@<TRIPOS>BOND
     1    1    6 ar
     2    1    2 ar
     3    1   36 1
     4    2    3 ar
     5    2   37 1
     6    3    4 ar
     7    3   35 1
     8    4    5 ar
     9    4   38 1
    10    5    6 ar
    11    5   39 1
    12    6    7 1
    13    7   16 1
    14    7    8 2
    15    8    9 1
    16    8   40 1
    17    9   10 1
    18   10   15 ar
    19   10   11 ar
    20   11   12 ar
    21   11   41 1
    22   12   13 ar
    23   12   18 1
    24   13   14 ar
    25   13   42 1
    26   14   15 ar
    27   14   43 1
    28   15   16 1
    29   16   17 2
    30   18   19 1
    31   19   20 1
    32   19   29 1
    33   19   21 1
    34   21   22 1
    35   21   23 1
    36   21   34 1
    37   23   24 1
    38   23   25 1
    39   23   33 1
    40   25   26 1
    41   25   27 1
    42   25   32 1
    43   27   28 1
    44   27   29 1
    45   27   30 1
    46   30   31 1
    47   30   44 1
    48   30   45 1
    49   31   46 1
    50   32   47 1
    51   33   48 1
    52   34   49 1
    53   35   50 1
@<TRIPOS>MOLECULE
ZINC12374721
   50    53     0     0     0
SMALL
USER_CHARGES

@<TRIPOS>ATOM
      1 C1         -0.0168    1.3896    0.0097 C.ar      1 <0>        -0.0907
      2 C2          1.1691    2.0940    0.0021 C.ar      1 <0>        -0.1448
      3 C3          2.3804    1.4164   -0.0135 C.ar      1 <0>         0.1105
      4 C4          2.4025    0.0286   -0.0216 C.ar      1 <0>        -0.1435
      5 C5          1.2201   -0.6816   -0.0137 C.ar      1 <0>        -0.0710
      6 C6          0.0021   -0.0041    0.0020 C.ar      1 <0>        -0.0372
      7 C7         -1.2714   -0.7647    0.0106 C.2       1 <0>        -0.2422
      8 C8         -2.1312   -0.6984   -1.0395 C.2       1 <0>         0.1305
      9 O1         -3.2792   -1.3783   -1.0768 O.3       1 <0>        -0.2154
     10 C9         -3.8134   -1.9293    0.0301 C.ar      1 <0>         0.1761
     11 C10        -5.1368   -2.3510    0.0428 C.ar      1 <0>        -0.1754
     12 C11        -5.6660   -2.9233    1.1868 C.ar      1 <0>         0.1884
     13 C12        -4.8838   -3.0822    2.3291 C.ar      1 <0>        -0.2074
     14 C13        -3.5815   -2.6701    2.3350 C.ar      1 <0>         0.0085
     15 C14        -3.0361   -2.0875    1.1913 C.ar      1 <0>        -0.2492
     16 C15        -1.6365   -1.6187    1.1568 C.2       1 <0>         0.4334
     17 O2         -0.8326   -1.9150    2.0240 O.2       1 <0>        -0.4519
     18 O3         -6.9599   -3.3335    1.1962 O.3       1 <0>        -0.3129
     19 C16        -7.4470   -3.9162    2.4066 C.3       1 <0>         0.2134
     20 H1         -7.2819   -3.2264    3.2343 H         1 <0>         0.1202
     21 C17        -8.9452   -4.2002    2.2697 C.3       1 <0>         0.0663
     22 H2         -9.3258   -4.6071    3.2065 H         1 <0>         0.1037
     23 C18        -9.1636   -5.2158    1.1441 C.3       1 <0>         0.0839
     24 H3         -8.8284   -4.7898    0.1985 H         1 <0>         0.0821
     25 C19        -8.3576   -6.4819    1.4502 C.3       1 <0>         0.0900
     26 H4         -8.4633   -7.1888    0.6272 H         1 <0>         0.0849
     27 C20        -6.8822   -6.1098    1.6187 C.3       1 <0>         0.1004
     28 H5         -6.5032   -5.6940    0.6851 H         1 <0>         0.0897
     29 O4         -6.7527   -5.1393    2.6599 O.3       1 <0>        -0.3526
     30 C21        -6.0791   -7.3600    1.9836 C.3       1 <0>         0.0887
     31 O5         -4.6879   -7.0367    2.0267 O.3       1 <0>        -0.5656
     32 O6         -8.8421   -7.0767    2.6558 O.3       1 <0>        -0.5489
     33 O7        -10.5524   -5.5408    1.0564 O.3       1 <0>        -0.5590
     34 O8         -9.6348   -2.9873    1.9607 O.3       1 <0>        -0.5505
     35 O9          3.5472    2.1133   -0.0214 O.3       1 <0>        -0.5000
     36 H6         -0.9590    1.9174    0.0260 H         1 <0>         0.1284
     37 H7          1.1551    3.1739    0.0081 H         1 <0>         0.1320
     38 H8          3.3466   -0.4958   -0.0346 H         1 <0>         0.1321
     39 H9          1.2380   -1.7614   -0.0204 H         1 <0>         0.1282
     40 H10        -1.8752   -0.0690   -1.8790 H         1 <0>         0.2005
     41 H11        -5.7514   -2.2323   -0.8373 H         1 <0>         0.1512
     42 H12        -5.3090   -3.5334    3.2135 H         1 <0>         0.1470
     43 H13        -2.9771   -2.7942    3.2214 H         1 <0>         0.1448
     44 H14        -6.3979   -7.7244    2.9602 H         1 <0>         0.0686
     45 H15        -6.2495   -8.1328    1.2341 H         1 <0>         0.0642
     46 H16        -4.1172   -7.7840    2.2526 H         1 <0>         0.3846
     47 H17        -9.7737   -7.3336    2.6209 H         1 <0>         0.3895
     48 H18       -11.1228   -4.7824    0.8702 H         1 <0>         0.3951
     49 H19        -9.5357   -2.2969    2.6305 H         1 <0>         0.3884
     50 H20         3.8936    2.3103    0.8597 H         1 <0>         0.3929
@<TRIPOS>BOND
     1    1    6 ar
     2    1    2 ar
     3    1   36 1
     4    2    3 ar
     5    2   37 1
     6    3    4 ar
     7    3   35 1
     8    4    5 ar
     9    4   38 1
    10    5    6 ar
    11    5   39 1
    12    6    7 1
    13    7   16 1
    14    7    8 2
    15    8    9 1
    16    8   40 1
    17    9   10 1
    18   10   15 ar
    19   10   11 ar
    20   11   12 ar
    21   11   41 1
    22   12   13 ar
    23   12   18 1
    24   13   14 ar
    25   13   42 1
    26   14   15 ar
    27   14   43 1
    28   15   16 1
    29   16   17 2
    30   18   19 1
    31   19   20 1
    32   19   29 1
    33   19   21 1
    34   21   22 1
    35   21   23 1
    36   21   34 1
    37   23   24 1
    38   23   25 1
    39   23   33 1
    40   25   26 1
    41   25   27 1
    42   25   32 1
    43   27   28 1
    44   27   29 1
    45   27   30 1
    46   30   31 1
    47   30   44 1
    48   30   45 1
    49   31   46 1
    50   32   47 1
    51   33   48 1
    52   34   49 1
    53   35   50 1
@<TRIPOS>MOLECULE
ZINC04175523
   29    30     0     0     0
SMALL
USER_CHARGES

@<TRIPOS>ATOM
      1 C1         -0.0167    1.3799    0.0096 C.ar      1 <0>        -0.1046
      2 C2          1.1681    2.0956    0.0022 C.ar      1 <0>        -0.1230
      3 C3          2.3775    1.4337   -0.0130 C.ar      1 <0>        -0.0921
      4 C4          2.4050    0.0351   -0.0208 C.ar      1 <0>        -0.0848
      5 C5          1.2032   -0.6808   -0.0131 C.ar      1 <0>        -0.0984
      6 C6          0.0021   -0.0041    0.0020 C.ar      1 <0>        -0.1230
      7 C7          3.6911   -0.6791   -0.0374 C.2       1 <0>        -0.0089
      8 C8          3.7136   -2.0291   -0.0449 C.2       1 <0>        -0.2384
      9 C9          4.9924   -2.7393   -0.0614 C.2       1 <0>         0.4257
     10 O1          6.0365   -2.1130   -0.0684 O.2       1 <0>        -0.4588
     11 C10         5.0170   -4.2158   -0.0696 C.ar      1 <0>        -0.1716
     12 C11         3.8195   -4.9366   -0.0673 C.ar      1 <0>        -0.0556
     13 C12         3.8467   -6.3132   -0.0749 C.ar      1 <0>        -0.1593
     14 C13         5.0631   -6.9862   -0.0849 C.ar      1 <0>         0.1386
     15 C14         6.2565   -6.2730   -0.0871 C.ar      1 <0>        -0.1582
     16 C15         6.2378   -4.8962   -0.0854 C.ar      1 <0>        -0.0446
     17 O2          5.0857   -8.3431   -0.0919 O.3       1 <0>        -0.4980
     18 H1         -0.9608    1.9042    0.0260 H         1 <0>         0.1259
     19 H2          1.1451    3.1753    0.0078 H         1 <0>         0.1278
     20 H3          3.3010    1.9935   -0.0191 H         1 <0>         0.1290
     21 H4          1.2162   -1.7607   -0.0194 H         1 <0>         0.1277
     22 H5         -0.9266   -0.5553    0.0083 H         1 <0>         0.1273
     23 H6          4.6173   -0.1235   -0.0436 H         1 <0>         0.1359
     24 H7          2.7875   -2.5847   -0.0387 H         1 <0>         0.1346
     25 H8          2.8741   -4.4145   -0.0593 H         1 <0>         0.1363
     26 H9          2.9218   -6.8709   -0.0729 H         1 <0>         0.1366
     27 H10         7.1994   -6.7995   -0.0945 H         1 <0>         0.1367
     28 H11         7.1653   -4.3429   -0.0917 H         1 <0>         0.1394
     29 H12         5.0876   -8.7319   -0.9773 H         1 <0>         0.3974
@<TRIPOS>BOND
     1    1    6 ar
     2    1    2 ar
     3    1   18 1
     4    2    3 ar
     5    2   19 1
     6    3    4 ar
     7    3   20 1
     8    4    5 ar
     9    4    7 1
    10    5    6 ar
    11    5   21 1
    12    6   22 1
    13    7    8 2
    14    7   23 1
    15    8    9 1
    16    8   24 1
    17    9   10 2
    18    9   11 1
    19   11   16 ar
    20   11   12 ar
    21   12   13 ar
    22   12   25 1
    23   13   14 ar
    24   13   26 1
    25   14   15 ar
    26   14   17 1
    27   15   16 ar
    28   15   27 1
    29   16   28 1
    30   17   29 1
@<TRIPOS>MOLECULE
ZINC00162733
   28    30     0     0     0
SMALL
USER_CHARGES
7-hydroxy-4-phenyl-chromen-2-one
@<TRIPOS>ATOM
      1 C1          7.3931    1.4241   -0.0601 C.ar      1 <0>        -0.1023
      2 C2          7.1810    0.4091    0.8561 C.ar      1 <0>        -0.1173
      3 C3          5.9819   -0.2729    0.8691 C.ar      1 <0>        -0.0902
      4 C4          4.9816    0.0628   -0.0445 C.ar      1 <0>        -0.0740
      5 C5          5.2042    1.0838   -0.9698 C.ar      1 <0>        -0.0972
      6 C6          6.4056    1.7619   -0.9685 C.ar      1 <0>        -0.1183
      7 C7          3.6932   -0.6644   -0.0362 C.2       1 <0>         0.0774
      8 C8          3.6540   -2.0459   -0.0428 C.2       1 <0>        -0.2439
      9 C9          2.4121   -2.7033   -0.0345 C.2       1 <0>         0.5125
     10 O1          2.3867   -3.9215   -0.0400 O.2       1 <0>        -0.4590
     11 O2          1.2530   -2.0265   -0.0203 O.3       1 <0>        -0.2712
     12 C10         1.2148   -0.6767   -0.0132 C.ar      1 <0>         0.1700
     13 C11         2.4117    0.0604   -0.0206 C.ar      1 <0>        -0.1577
     14 C12         2.3756    1.4566   -0.0128 C.ar      1 <0>        -0.0390
     15 C13         1.1734    2.1047    0.0022 C.ar      1 <0>        -0.1648
     16 C14        -0.0167    1.3813    0.0096 C.ar      1 <0>         0.1694
     17 C15         0.0021   -0.0041    0.0020 C.ar      1 <0>        -0.1653
     18 O3         -1.2045    2.0387    0.0188 O.3       1 <0>        -0.4902
     19 H1          8.3334    1.9552   -0.0659 H         1 <0>         0.1284
     20 H2          7.9557    0.1505    1.5627 H         1 <0>         0.1307
     21 H3          5.8174   -1.0647    1.5849 H         1 <0>         0.1299
     22 H4          4.4360    1.3452   -1.6825 H         1 <0>         0.1296
     23 H5          6.5774    2.5551   -1.6810 H         1 <0>         0.1307
     24 H6          4.5712   -2.6161   -0.0539 H         1 <0>         0.1669
     25 H7          3.2956    2.0222   -0.0189 H         1 <0>         0.1462
     26 H8          1.1455    3.1844    0.0082 H         1 <0>         0.1438
     27 H9         -0.9248   -0.5584    0.0082 H         1 <0>         0.1527
     28 H10        -1.5444    2.2244    0.9048 H         1 <0>         0.4024
@<TRIPOS>BOND
     1    1    6 ar
     2    1    2 ar
     3    1   19 1
     4    2    3 ar
     5    2   20 1
     6    3    4 ar
     7    3   21 1
     8    4    5 ar
     9    4    7 1
    10    5    6 ar
    11    5   22 1
    12    6   23 1
    13    7   13 1
    14    7    8 2
    15    8    9 1
    16    8   24 1
    17    9   10 2
    18    9   11 1
    19   11   12 1
    20   12   17 ar
    21   12   13 ar
    22   13   14 ar
    23   14   15 ar
    24   14   25 1
    25   15   16 ar
    26   15   26 1
    27   16   17 ar
    28   16   18 1
    29   17   27 1
    30   18   28 1
@<TRIPOS>MOLECULE
ZINC18847044
   33    35     0     0     0
SMALL
USER_CHARGES

@<TRIPOS>ATOM
      1 C1         -0.0173    1.4248    0.0099 C.3       1 <0>         0.0217
      2 O1          0.0021   -0.0041    0.0020 O.3       1 <0>        -0.3031
      3 C2          0.6051   -0.6064   -1.0545 C.ar      1 <0>         0.2089
      4 C3          1.1708    0.1722   -2.0588 C.ar      1 <0>        -0.2663
      5 C4          1.7904   -0.4313   -3.1374 C.ar      1 <0>         0.2404
      6 C5          1.8446   -1.8288   -3.2062 C.ar      1 <0>        -0.2870
      7 C6          1.2657   -2.6161   -2.1945 C.ar      1 <0>         0.1970
      8 C7          0.6550   -1.9897   -1.1172 C.ar      1 <0>        -0.1892
      9 O2          1.3042   -3.9607   -2.2738 O.3       1 <0>        -0.2135
     10 C8          2.1288   -4.5916   -3.1129 C.2       1 <0>         0.1257
     11 C9          2.7486   -3.9627   -4.1450 C.2       1 <0>        -0.2382
     12 C10         2.5069   -2.5179   -4.3266 C.2       1 <0>         0.4308
     13 O3          2.8352   -1.9306   -5.3433 O.2       1 <0>        -0.4345
     14 C11         3.6443   -4.7070   -5.0636 C.ar      1 <0>        -0.0347
     15 C12         5.0052   -4.4085   -5.1063 C.ar      1 <0>        -0.0783
     16 C13         5.8356   -5.1028   -5.9613 C.ar      1 <0>        -0.1426
     17 C14         5.3173   -6.0978   -6.7787 C.ar      1 <0>         0.1109
     18 C15         3.9625   -6.3971   -6.7389 C.ar      1 <0>        -0.1430
     19 C16         3.1279   -5.7104   -5.8819 C.ar      1 <0>        -0.0876
     20 O4          6.1381   -6.7801   -7.6201 O.3       1 <0>        -0.4989
     21 O5          2.3410    0.3241   -4.1210 O.3       1 <0>        -0.4737
     22 H1          1.0053    1.8021    0.0021 H         1 <0>         0.0625
     23 H2         -0.5445    1.7859   -0.8732 H         1 <0>         0.0632
     24 H3         -0.5275    1.7763    0.9067 H         1 <0>         0.1090
     25 H4          1.1257    1.2495   -1.9961 H         1 <0>         0.1493
     26 H5          0.2145   -2.5814   -0.3283 H         1 <0>         0.1557
     27 H6          2.3103   -5.6460   -2.9652 H         1 <0>         0.2015
     28 H7          5.4090   -3.6342   -4.4708 H         1 <0>         0.1253
     29 H8          6.8900   -4.8717   -5.9951 H         1 <0>         0.1321
     30 H9          3.5622   -7.1714   -7.3766 H         1 <0>         0.1328
     31 H10         2.0747   -5.9470   -5.8479 H         1 <0>         0.1296
     32 H11         6.5267   -7.5757   -7.2312 H         1 <0>         0.3922
     33 H12         3.2685    0.5517   -3.9697 H         1 <0>         0.4021
@<TRIPOS>BOND
     1    1    2 1
     2    1   22 1
     3    1   23 1
     4    1   24 1
     5    2    3 1
     6    3    8 ar
     7    3    4 ar
     8    4    5 ar
     9    4   25 1
    10    5    6 ar
    11    5   21 1
    12    6   12 1
    13    6    7 ar
    14    7    8 ar
    15    7    9 1
    16    8   26 1
    17    9   10 1
    18   10   11 2
    19   10   27 1
    20   11   12 1
    21   11   14 1
    22   12   13 2
    23   14   19 ar
    24   14   15 ar
    25   15   16 ar
    26   15   28 1
    27   16   17 ar
    28   16   29 1
    29   17   18 ar
    30   17   20 1
    31   18   19 ar
    32   18   30 1
    33   19   31 1
    34   20   32 1
    35   21   33 1
@<TRIPOS>MOLECULE
ZINC18847034
   29    31     0     0     0
SMALL
USER_CHARGES

@<TRIPOS>ATOM
      1 C1         -0.0168    1.3896    0.0097 C.ar      1 <0>        -0.0902
      2 C2          1.1691    2.0940    0.0021 C.ar      1 <0>        -0.1446
      3 C3          2.3804    1.4164   -0.0135 C.ar      1 <0>         0.1115
      4 C4          2.4025    0.0286   -0.0216 C.ar      1 <0>        -0.1436
      5 C5          1.2201   -0.6816   -0.0137 C.ar      1 <0>        -0.0710
      6 C6          0.0021   -0.0041    0.0020 C.ar      1 <0>        -0.0389
      7 C7         -1.2714   -0.7647    0.0106 C.2       1 <0>        -0.2424
      8 C8         -2.1312   -0.6984   -1.0395 C.2       1 <0>         0.1320
      9 O1         -3.2792   -1.3783   -1.0768 O.3       1 <0>        -0.2161
     10 C9         -3.8134   -1.9293    0.0301 C.ar      1 <0>         0.1584
     11 C10        -5.1368   -2.3510    0.0428 C.ar      1 <0>        -0.1704
     12 C11        -5.6660   -2.9233    1.1868 C.ar      1 <0>         0.1737
     13 C12        -4.8838   -3.0822    2.3291 C.ar      1 <0>        -0.1705
     14 C13        -3.5815   -2.6701    2.3350 C.ar      1 <0>        -0.0140
     15 C14        -3.0361   -2.0875    1.1913 C.ar      1 <0>        -0.2284
     16 C15        -1.6365   -1.6187    1.1568 C.2       1 <0>         0.4311
     17 O2         -0.8326   -1.9150    2.0240 O.2       1 <0>        -0.4478
     18 O3         -6.9599   -3.3335    1.1962 O.3       1 <0>        -0.4913
     19 O4          3.5472    2.1133   -0.0214 O.3       1 <0>        -0.4998
     20 H1         -0.9590    1.9174    0.0260 H         1 <0>         0.1287
     21 H2          1.1551    3.1739    0.0081 H         1 <0>         0.1325
     22 H3          3.3466   -0.4958   -0.0346 H         1 <0>         0.1325
     23 H4          1.2380   -1.7614   -0.0204 H         1 <0>         0.1281
     24 H5         -1.8752   -0.0690   -1.8790 H         1 <0>         0.2014
     25 H6         -5.7514   -2.2323   -0.8373 H         1 <0>         0.1516
     26 H7         -5.3090   -3.5334    3.2135 H         1 <0>         0.1442
     27 H8         -2.9771   -2.7942    3.2214 H         1 <0>         0.1474
     28 H9         -7.0838   -4.2506    0.9156 H         1 <0>         0.4028
     29 H10         3.8936    2.3103    0.8597 H         1 <0>         0.3933
@<TRIPOS>BOND
     1    1    6 ar
     2    1    2 ar
     3    1   20 1
     4    2    3 ar
     5    2   21 1
     6    3    4 ar
     7    3   19 1
     8    4    5 ar
     9    4   22 1
    10    5    6 ar
    11    5   23 1
    12    6    7 1
    13    7   16 1
    14    7    8 2
    15    8    9 1
    16    8   24 1
    17    9   10 1
    18   10   15 ar
    19   10   11 ar
    20   11   12 ar
    21   11   25 1
    22   12   13 ar
    23   12   18 1
    24   13   14 ar
    25   13   26 1
    26   14   15 ar
    27   14   27 1
    28   15   16 1
    29   16   17 2
    30   18   28 1
    31   19   29 1
