@<TRIPOS>MOLECULE
ZINC00596737
   36    38     0     0     0
SMALL
USER_CHARGES
2-[3-[(4-bromo-2-fluoro-phenyl)methyl]-7-chloro-2,4-dioxo-quinazolin-1-yl]acetic acid
@<TRIPOS>ATOM
      1 C1          0.3311    5.1927    2.9649 C.ar      1 <0>        -0.1614
      2 C2         -0.6668    4.4229    3.5242 C.ar      1 <0>        -0.0009
      3 C3         -1.0081    3.2078    2.9351 C.ar      1 <0>        -0.2048
      4 C4         -0.3336    2.7707    1.7808 C.ar      1 <0>         0.2401
      5 C5          0.6626    3.5596    1.2289 C.ar      1 <0>        -0.1556
      6 C6          0.9926    4.7635    1.8231 C.ar      1 <0>         0.0371
      7 Cl1         2.2458    5.7476    1.1341 Cl        1 <0>        -0.0566
      8 N1         -0.6984    1.5583    1.2133 N.am      1 <0>        -0.5072
      9 C7         -1.6712    0.8104    1.7622 C.2       1 <0>         0.7084
     10 O1         -1.9578   -0.2480    1.2370 O.2       1 <0>        -0.5330
     11 N2         -2.3399    1.1823    2.8649 N.am      1 <0>        -0.5541
     12 C8         -2.0660    2.3467    3.4920 C.2       1 <0>         0.5643
     13 O2         -2.6771    2.6761    4.4904 O.2       1 <0>        -0.4857
     14 C9         -3.3871    0.3079    3.3989 C.3       1 <0>         0.1527
     15 C10        -2.7821   -0.6532    4.3896 C.ar      1 <0>        -0.1341
     16 C11        -2.4971   -1.9508    4.0081 C.ar      1 <0>        -0.0533
     17 C12        -1.9379   -2.8314    4.9148 C.ar      1 <0>        -0.1081
     18 C13        -1.6724   -2.4181    6.2083 C.ar      1 <0>        -0.0571
     19 C14        -1.9617   -1.1220    6.5931 C.ar      1 <0>        -0.1379
     20 C15        -2.5171   -0.2381    5.6835 C.ar      1 <0>         0.1280
     21 F1         -2.8007    1.0285    6.0584 F         1 <0>        -0.1068
     22 Br1        -0.9145   -3.6261    7.4501 Br        1 <0>        -0.0402
     23 C16        -0.0127    1.0858    0.0080 C.3       1 <0>         0.0628
     24 C17        -0.7416    1.5850   -1.2129 C.2       1 <0>         0.4560
     25 O3         -1.7322    2.2656   -1.0889 O.co2     1 <0>        -0.6211
     26 H1          0.5993    6.1357    3.4180 H         1 <0>         0.1433
     27 H2         -1.1799    4.7596    4.4129 H         1 <0>         0.1511
     28 H3          1.1826    3.2331    0.3403 H         1 <0>         0.1514
     29 H4         -4.1464    0.9118    3.8957 H         1 <0>         0.1128
     30 H5         -3.8444   -0.2516    2.5828 H         1 <0>         0.1176
     31 H6         -2.7080   -2.2757    3.0000 H         1 <0>         0.1514
     32 H7         -1.7117   -3.8439    4.6147 H         1 <0>         0.1419
     33 H8         -1.7550   -0.7992    7.6028 H         1 <0>         0.1453
     34 H9          0.0021   -0.0041    0.0020 H         1 <0>         0.1087
     35 H10         1.0099    1.4631    0.0003 H         1 <0>         0.0986
     36 O4         -0.2903    1.2736   -2.4381 O.co2     1 <0>        -0.7535
@<TRIPOS>BOND
     1    1    6 ar
     2    1    2 ar
     3    1   26 1
     4    2    3 ar
     5    2   27 1
     6    3   12 1
     7    3    4 ar
     8    4    5 ar
     9    4    8 1
    10    5    6 ar
    11    5   28 1
    12    6    7 1
    13    8    9 am
    14    8   23 1
    15    9   10 2
    16    9   11 am
    17   11   12 am
    18   11   14 1
    19   12   13 2
    20   14   15 1
    21   14   29 1
    22   14   30 1
    23   15   20 ar
    24   15   16 ar
    25   16   17 ar
    26   16   31 1
    27   17   18 ar
    28   17   32 1
    29   18   19 ar
    30   18   22 1
    31   19   20 ar
    32   19   33 1
    33   20   21 1
    34   23   24 1
    35   23   34 1
    36   23   35 1
    37   24   25 2
    38   24   36 1
@<TRIPOS>MOLECULE
ZINC13781422
   22    22     0     0     0
SMALL
USER_CHARGES
2-(methyl-(1H-pyrrole-2-carbonyl)amino)acetic acid
@<TRIPOS>ATOM
      1 C1         -0.1734    2.1477    2.5761 C.3       1 <0>         0.0717
      2 N1         -0.8560    1.9515    1.2947 N.am      1 <0>        -0.5908
      3 C2         -0.1571    1.2992    0.1847 C.3       1 <0>         0.0733
      4 C3         -0.3899   -0.1883    0.2492 C.2       1 <0>         0.4515
      5 O1         -1.0699   -0.6556    1.1319 O.co2     1 <0>        -0.6281
      6 C4         -2.1271    2.3712    1.1371 C.2       1 <0>         0.5844
      7 O2         -2.7319    2.1094    0.1141 O.2       1 <0>        -0.5280
      8 C5         -2.7813    3.1435    2.1987 C.2       1 <0>        -0.0342
      9 C6         -4.1101    3.5090    2.2398 C.2       1 <0>        -0.1185
     10 C7         -4.3020    4.2277    3.4239 C.2       1 <0>        -0.2120
     11 C8         -3.1116    4.2954    4.0665 C.2       1 <0>         0.0026
     12 N2         -2.1793    3.6405    3.3324 N.pl3     1 <0>        -0.5456
     13 H1         -1.2436    3.5386    3.5671 H         1 <0>         0.4192
     14 H2          0.2510    3.1510    2.6118 H         1 <0>         0.0499
     15 H3         -0.8875    2.0260    3.3905 H         1 <0>         0.0677
     16 H4          0.6241    1.4119    2.6792 H         1 <0>         0.0841
     17 H5          0.9112    1.5033    0.2579 H         1 <0>         0.0814
     18 H6         -0.5368    1.6857   -0.7611 H         1 <0>         0.0898
     19 H7         -4.8617    3.2808    1.4986 H         1 <0>         0.1453
     20 H8         -5.2332    4.6567    3.7635 H         1 <0>         0.1393
     21 H9         -2.9341    4.7907    5.0097 H         1 <0>         0.1668
     22 O3          0.1582   -0.9940   -0.6738 O.co2     1 <0>        -0.7699
@<TRIPOS>BOND
     1    1    2 1
     2    1   14 1
     3    1   15 1
     4    1   16 1
     5    2    3 1
     6    2    6 am
     7    3    4 1
     8    3   17 1
     9    3   18 1
    10    4    5 2
    11    4   22 1
    12    6    7 2
    13    6    8 1
    14    8   12 1
    15    8    9 2
    16    9   10 1
    17    9   19 1
    18   10   11 2
    19   10   20 1
    20   11   12 1
    21   11   21 1
    22   12   13 1
@<TRIPOS>MOLECULE
ZINC05224053
   28    29     0     0     0
SMALL
USER_CHARGES
(3S)-1-[(4-chlorophenyl)methyl]-5-oxo-pyrrolidine-3-carboxylic acid
@<TRIPOS>ATOM
      1 C1          0.3682   -0.6810   -3.1869 C.ar      1 <0>        -0.0919
      2 C2          0.0857   -1.8636   -3.8442 C.ar      1 <0>        -0.1147
      3 C3         -1.0911   -1.9928   -4.5601 C.ar      1 <0>        -0.0347
      4 C4         -1.9872   -0.9399   -4.6129 C.ar      1 <0>        -0.1135
      5 C5         -1.7062    0.2402   -3.9505 C.ar      1 <0>        -0.0846
      6 C6         -0.5302    0.3686   -3.2353 C.ar      1 <0>        -0.0958
      7 C7         -0.2244    1.6556   -2.5133 C.3       1 <0>         0.1645
      8 N1         -0.7589    1.5900   -1.1508 N.am      1 <0>        -0.6048
      9 C8         -0.0127    1.0858    0.0080 C.3       1 <0>         0.1155
     10 C9         -0.7746    1.6033    1.2482 C.3       1 <0>        -0.1437
     11 H1         -0.7613    0.8653    2.0502 H         1 <0>         0.0966
     12 C10        -2.2051    1.7849    0.6835 C.3       1 <0>        -0.1352
     13 C11        -1.9955    1.9843   -0.8014 C.2       1 <0>         0.5252
     14 O1         -2.8231    2.4341   -1.5655 O.2       1 <0>        -0.5479
     15 C12        -0.2089    2.9184    1.7188 C.2       1 <0>         0.4694
     16 O2          0.7212    3.4202    1.1331 O.co2     1 <0>        -0.6308
     17 Cl1        -1.4436   -3.4755   -5.3914 Cl        1 <0>        -0.0785
     18 H2          1.2888   -0.5785   -2.6317 H         1 <0>         0.1333
     19 H3          0.7856   -2.6851   -3.8027 H         1 <0>         0.1321
     20 H4         -2.9062   -1.0403   -5.1713 H         1 <0>         0.1317
     21 H5         -2.4058    1.0620   -3.9913 H         1 <0>         0.1366
     22 H6         -0.6850    2.4885   -3.0446 H         1 <0>         0.0899
     23 H7          0.8549    1.8023   -2.4735 H         1 <0>         0.0908
     24 H8          0.0021   -0.0041    0.0020 H         1 <0>         0.0583
     25 H9          1.0049    1.4764    0.0004 H         1 <0>         0.0921
     26 H10        -2.6798    2.6622    1.1229 H         1 <0>         0.1065
     27 H11        -2.8042    0.8932    0.8679 H         1 <0>         0.0954
     28 O3         -0.7382    3.5323    2.7887 O.co2     1 <0>        -0.7617
@<TRIPOS>BOND
     1    1    6 ar
     2    1    2 ar
     3    1   18 1
     4    2    3 ar
     5    2   19 1
     6    3    4 ar
     7    3   17 1
     8    4    5 ar
     9    4   20 1
    10    5    6 ar
    11    5   21 1
    12    6    7 1
    13    7    8 1
    14    7   22 1
    15    7   23 1
    16    8   13 am
    17    8    9 1
    18    9   10 1
    19    9   24 1
    20    9   25 1
    21   10   11 1
    22   10   12 1
    23   10   15 1
    24   12   13 1
    25   12   26 1
    26   12   27 1
    27   13   14 2
    28   15   16 2
    29   15   28 1
@<TRIPOS>MOLECULE
ZINC05252975
   28    29     0     0     0
SMALL
USER_CHARGES
1-[(4-chlorophenyl)methyl]-5-oxo-pyrrolidine-3-carboxylic acid
@<TRIPOS>ATOM
      1 C1          5.4531    1.1131   -3.4086 C.ar      1 <0>        -0.0846
      2 C2          6.7721    1.5237   -3.4518 C.ar      1 <0>        -0.1134
      3 C3          7.6309    1.2015   -2.4160 C.ar      1 <0>        -0.0347
      4 C4          7.1673    0.4732   -1.3349 C.ar      1 <0>        -0.1147
      5 C5          5.8466    0.0681   -1.2901 C.ar      1 <0>        -0.0919
      6 C6          4.9891    0.3900   -2.3256 C.ar      1 <0>        -0.0957
      7 C7          3.5495   -0.0529   -2.2767 C.3       1 <0>         0.1642
      8 N1          2.7440    0.9767   -1.6154 N.am      1 <0>        -0.6063
      9 C8          2.4877    1.0269   -0.1712 C.3       1 <0>         0.1144
     10 C9          1.2804    1.9752    0.0004 C.3       1 <0>        -0.1439
     11 H1          1.3804    2.5753    0.9049 H         1 <0>         0.0967
     12 C10         1.3907    2.8580   -1.2643 C.3       1 <0>        -0.1358
     13 C11         2.1444    1.9966   -2.2534 C.2       1 <0>         0.5249
     14 O1          2.1991    2.1966   -3.4484 O.2       1 <0>        -0.5476
     15 C12        -0.0143    1.2041    0.0087 C.2       1 <0>         0.4695
     16 O2          0.0021   -0.0041    0.0020 O.co2     1 <0>        -0.6316
     17 Cl1         9.2897    1.7102   -2.4732 Cl        1 <0>        -0.0785
     18 H2          4.7837    1.3607   -4.2192 H         1 <0>         0.1366
     19 H3          7.1335    2.0922   -4.2960 H         1 <0>         0.1317
     20 H4          7.8373    0.2211   -0.5262 H         1 <0>         0.1321
     21 H5          5.4846   -0.5004   -0.4462 H         1 <0>         0.1334
     22 H6          3.4753   -0.9863   -1.7187 H         1 <0>         0.0908
     23 H7          3.1817   -0.2059   -3.2913 H         1 <0>         0.0898
     24 H8          3.3570    1.4244    0.3526 H         1 <0>         0.0584
     25 H9          2.2428    0.0329    0.2032 H         1 <0>         0.0937
     26 H10         0.3996    3.1009   -1.6476 H         1 <0>         0.1087
     27 H11         1.9482    3.7689   -1.0463 H         1 <0>         0.0947
     28 O3         -1.1857    1.8593    0.0178 O.co2     1 <0>        -0.7610
@<TRIPOS>BOND
     1    1    6 ar
     2    1    2 ar
     3    1   18 1
     4    2    3 ar
     5    2   19 1
     6    3    4 ar
     7    3   17 1
     8    4    5 ar
     9    4   20 1
    10    5    6 ar
    11    5   21 1
    12    6    7 1
    13    7    8 1
    14    7   22 1
    15    7   23 1
    16    8   13 am
    17    8    9 1
    18    9   10 1
    19    9   24 1
    20    9   25 1
    21   10   11 1
    22   10   12 1
    23   10   15 1
    24   12   13 1
    25   12   26 1
    26   12   27 1
    27   13   14 2
    28   15   16 2
    29   15   28 1
@<TRIPOS>MOLECULE
ZINC00002070
   26    28     0     0     0
SMALL
USER_CHARGES

@<TRIPOS>ATOM
      1 C1         -0.0167    1.3801    0.0096 C.ar      1 <0>        -0.0990
      2 C2          1.1701    2.0848    0.0021 C.ar      1 <0>        -0.1186
      3 C3          2.3855    1.4100   -0.0123 C.ar      1 <0>         0.1542
      4 C4          2.4028    0.0246   -0.0169 C.ar      1 <0>        -0.1549
      5 C5          1.2099   -0.6782   -0.0114 C.ar      1 <0>        -0.0989
      6 C6          0.0021   -0.0041    0.0020 C.ar      1 <0>         0.0694
      7 F1         -1.1583   -0.6960    0.0081 F         1 <0>        -0.1342
      8 C7          3.6992   -0.7359   -0.0229 C.3       1 <0>         0.1719
      9 C8          4.8552    0.1695   -0.4367 C.3       1 <0>        -0.1544
     10 C9          4.7464    1.4825    0.3507 C.3       1 <0>         0.0573
     11 O1          3.5337    2.1363   -0.0253 O.3       1 <0>        -0.3038
     12 C10         3.9627   -1.3398    1.3369 C.2       1 <0>         0.5371
     13 O2          4.1092   -0.7502    2.3860 O.2       1 <0>        -0.4481
     14 N1          4.0007   -2.6737    1.1374 N.am      1 <0>        -0.6781
     15 C11         3.7990   -2.9857   -0.1487 C.2       1 <0>         0.7047
     16 O3          3.7883   -4.1240   -0.5744 O.2       1 <0>        -0.5297
     17 N2          3.6097   -1.8965   -0.9179 N.am      1 <0>        -0.7116
     18 H1         -0.9588    1.9080    0.0260 H         1 <0>         0.1498
     19 H2          1.1544    3.1647    0.0070 H         1 <0>         0.1504
     20 H3          1.2225   -1.7581   -0.0176 H         1 <0>         0.1355
     21 H4          5.8031   -0.3179   -0.2088 H         1 <0>         0.1010
     22 H5          4.7955    0.3761   -1.5053 H         1 <0>         0.1057
     23 H6          4.7312    1.2686    1.4194 H         1 <0>         0.0856
     24 H7          5.5963    2.1229    0.1144 H         1 <0>         0.1255
     25 H8          4.1546   -3.3257    1.8389 H         1 <0>         0.4374
     26 H9          3.4463   -1.8817   -1.8739 H         1 <0>         0.4456
@<TRIPOS>BOND
     1    1    6 ar
     2    1    2 ar
     3    1   18 1
     4    2    3 ar
     5    2   19 1
     6    3   11 1
     7    3    4 ar
     8    4    5 ar
     9    4    8 1
    10    5    6 ar
    11    5   20 1
    12    6    7 1
    13    8   17 1
    14    8    9 1
    15    8   12 1
    16    9   10 1
    17    9   21 1
    18    9   22 1
    19   10   11 1
    20   10   23 1
    21   10   24 1
    22   12   13 2
    23   12   14 am
    24   14   15 am
    25   14   25 1
    26   15   16 2
    27   15   17 am
    28   17   26 1
@<TRIPOS>MOLECULE
ZINC03780343
   37    38     0     0     0
SMALL
USER_CHARGES

@<TRIPOS>ATOM
      1 C1          2.4337   -0.6161   -1.2464 C.3       1 <0>         0.0561
      2 N1          1.1760   -1.0005   -0.6009 N.pl3     1 <0>        -0.4647
      3 C2          1.1956   -1.8358    0.6025 C.3       1 <0>         0.0136
      4 C3          1.2610   -0.9556    1.8240 C.2       1 <0>         0.5006
      5 O1          1.2886    0.2571    1.7007 O.co2     1 <0>        -0.6791
      6 O2          1.2863   -1.4562    2.9354 O.co2     1 <0>        -0.6856
      7 C4          0.0008   -0.5856   -1.1141 C.2       1 <0>         0.3683
      8 S1         -1.4605   -0.9226   -0.2883 S.2       1 <0>        -0.5802
      9 C5         -0.0262    0.1575   -2.3849 C.ar      1 <0>        -0.0334
     10 C6          0.1653    1.5335   -2.4062 C.ar      1 <0>        -0.0908
     11 C7          0.1393    2.2316   -3.6056 C.ar      1 <0>        -0.0750
     12 C8         -0.0720    1.6062   -4.7961 C.ar      1 <0>        -0.1240
     13 C9         -0.2731    0.2166   -4.8500 C.ar      1 <0>         0.0285
     14 C10        -0.2489   -0.5377   -3.6510 C.ar      1 <0>        -0.0605
     15 C11        -0.4428   -1.9239   -3.6991 C.ar      1 <0>        -0.0158
     16 C12        -0.6474   -2.5353   -4.8989 C.ar      1 <0>        -0.2023
     17 C13        -0.6665   -1.7970   -6.0856 C.ar      1 <0>         0.1946
     18 C14        -0.4927   -0.4420   -6.0714 C.ar      1 <0>        -0.2313
     19 C15        -0.5163    0.3389   -7.3601 C.3       1 <0>         0.5200
     20 F1          0.6708    1.0685   -7.4851 F         1 <0>        -0.1789
     21 F2         -0.6365   -0.5444   -8.4384 F         1 <0>        -0.1637
     22 F3         -1.6050    1.2174   -7.3533 F         1 <0>        -0.1779
     23 O3         -0.8728   -2.4340   -7.2681 O.3       1 <0>        -0.2991
     24 C16        -1.0609   -3.8497   -7.2182 C.3       1 <0>         0.0201
     25 H1          2.7474   -1.4053   -1.9297 H         1 <0>         0.0700
     26 H2          2.2883    0.3098   -1.8029 H         1 <0>         0.0820
     27 H3          3.2011   -0.4668   -0.4869 H         1 <0>         0.0912
     28 H4          0.2902   -2.4415    0.6391 H         1 <0>         0.1126
     29 H5          2.0685   -2.4882    0.5776 H         1 <0>         0.0861
     30 H6          0.3354    2.0646   -1.4813 H         1 <0>         0.1406
     31 H7          0.2906    3.3009   -3.5941 H         1 <0>         0.1360
     32 H8         -0.0855    2.1840   -5.7084 H         1 <0>         0.1314
     33 H9         -0.4298   -2.5054   -2.7891 H         1 <0>         0.1394
     34 H10        -0.7963   -3.6044   -4.9338 H         1 <0>         0.1441
     35 H11        -1.2149   -4.2316   -8.2275 H         1 <0>         0.1051
     36 H12        -0.1782   -4.3184   -6.7832 H         1 <0>         0.0604
     37 H13        -1.9330   -4.0791   -6.6060 H         1 <0>         0.0615
@<TRIPOS>BOND
     1    1    2 1
     2    1   25 1
     3    1   26 1
     4    1   27 1
     5    2    3 1
     6    2    7 1
     7    3    4 1
     8    3   28 1
     9    3   29 1
    10    4    5 2
    11    4    6 1
    12    7    8 2
    13    7    9 1
    14    9   14 ar
    15    9   10 ar
    16   10   11 ar
    17   10   30 1
    18   11   12 ar
    19   11   31 1
    20   12   13 ar
    21   12   32 1
    22   13   18 ar
    23   13   14 ar
    24   14   15 ar
    25   15   16 ar
    26   15   33 1
    27   16   17 ar
    28   16   34 1
    29   17   18 ar
    30   17   23 1
    31   18   19 1
    32   19   20 1
    33   19   21 1
    34   19   22 1
    35   23   24 1
    36   24   35 1
    37   24   36 1
    38   24   37 1
@<TRIPOS>MOLECULE
ZINC00538211
   35    37     0     0     0
SMALL
USER_CHARGES

@<TRIPOS>ATOM
      1 C1         -0.0165    1.3627    0.0095 C.ar      1 <0>        -0.0929
      2 C2          1.1654    2.0924    0.0022 C.ar      1 <0>        -0.1289
      3 C3          2.3861    1.4540   -0.0134 C.ar      1 <0>        -0.0568
      4 C4          2.4294    0.0605   -0.0213 C.ar      1 <0>        -0.1348
      5 C5          1.2244   -0.6786   -0.0133 C.ar      1 <0>        -0.0423
      6 C6          0.0021   -0.0041    0.0020 C.ar      1 <0>        -0.1011
      7 C7          1.3000   -2.1396   -0.0224 C.2       1 <0>         0.1202
      8 N1          2.4575   -2.7306   -0.0371 N.2       1 <0>        -0.1227
      9 N2          3.6626   -2.0276   -0.0452 N.am      1 <0>        -0.4387
     10 C8          3.6977   -0.6787   -0.0384 C.2       1 <0>         0.5198
     11 O1          4.7616   -0.0856   -0.0461 O.2       1 <0>        -0.5442
     12 C9          4.9232   -2.7737   -0.0618 C.3       1 <0>         0.1765
     13 C10         5.3696   -3.0372    1.3533 C.ar      1 <0>        -0.1367
     14 C11         6.3386   -2.2394    1.9323 C.ar      1 <0>        -0.0601
     15 C12         6.7481   -2.4801    3.2301 C.ar      1 <0>        -0.1184
     16 C13         6.1890   -3.5202    3.9512 C.ar      1 <0>        -0.0564
     17 C14         5.2199   -4.3196    3.3736 C.ar      1 <0>        -0.1435
     18 C15         4.8051   -4.0748    2.0754 C.ar      1 <0>         0.1436
     19 F1          3.8543   -4.8517    1.5118 F         1 <0>        -0.0845
     20 Br1         6.7507   -3.8489    5.7267 Br        1 <0>        -0.0474
     21 C16         0.0356   -2.9595   -0.0143 C.3       1 <0>        -0.1331
     22 C17         0.3870   -4.4249   -0.0262 C.2       1 <0>         0.4871
     23 O2          1.5559   -4.7714   -0.0401 O.co2     1 <0>        -0.6424
     24 O3         -0.4975   -5.2640   -0.0221 O.co2     1 <0>        -0.7075
     25 H1         -0.9631    1.8823    0.0259 H         1 <0>         0.1295
     26 H2          1.1269    3.1717    0.0083 H         1 <0>         0.1292
     27 H3          3.3010    2.0277   -0.0197 H         1 <0>         0.1369
     28 H4         -0.9242   -0.5594    0.0075 H         1 <0>         0.1398
     29 H5          4.7775   -3.7219   -0.5793 H         1 <0>         0.1108
     30 H6          5.6841   -2.1901   -0.5800 H         1 <0>         0.1048
     31 H7          6.7761   -1.4277    1.3701 H         1 <0>         0.1442
     32 H8          7.5053   -1.8562    3.6816 H         1 <0>         0.1367
     33 H9          4.7839   -5.1320    3.9360 H         1 <0>         0.1450
     34 H10        -0.5398   -2.7311    0.8829 H         1 <0>         0.0838
     35 H11        -0.5578   -2.7210   -0.8970 H         1 <0>         0.0846
@<TRIPOS>BOND
     1    1    6 ar
     2    1    2 ar
     3    1   25 1
     4    2    3 ar
     5    2   26 1
     6    3    4 ar
     7    3   27 1
     8    4   10 1
     9    4    5 ar
    10    5    6 ar
    11    5    7 1
    12    6   28 1
    13    7    8 2
    14    7   21 1
    15    8    9 1
    16    9   10 am
    17    9   12 1
    18   10   11 2
    19   12   13 1
    20   12   29 1
    21   12   30 1
    22   13   18 ar
    23   13   14 ar
    24   14   15 ar
    25   14   31 1
    26   15   16 ar
    27   15   32 1
    28   16   17 ar
    29   16   20 1
    30   17   18 ar
    31   17   33 1
    32   18   19 1
    33   21   22 1
    34   21   34 1
    35   21   35 1
    36   22   23 2
    37   22   24 1
@<TRIPOS>MOLECULE
ZINC03789766
   30    32     0     0     0
SMALL
USER_CHARGES

@<TRIPOS>ATOM
      1 C1         -0.0167    1.3801    0.0096 C.ar      1 <0>        -0.0966
      2 C2          1.1701    2.0848    0.0021 C.ar      1 <0>        -0.1122
      3 C3          2.3855    1.4100   -0.0123 C.ar      1 <0>         0.1542
      4 C4          2.4028    0.0246   -0.0169 C.ar      1 <0>        -0.1575
      5 C5          1.2099   -0.6782   -0.0114 C.ar      1 <0>        -0.0975
      6 C6          0.0021   -0.0041    0.0020 C.ar      1 <0>         0.0727
      7 F1         -1.1583   -0.6960    0.0081 F         1 <0>        -0.1328
      8 C7          3.6992   -0.7359   -0.0229 C.3       1 <0>         0.1749
      9 C8          4.8552    0.1695   -0.4367 C.3       1 <0>        -0.1454
     10 C9          4.7464    1.4825    0.3507 C.3       1 <0>         0.0713
     11 H1          4.7311    1.2686    1.4194 H         1 <0>         0.1194
     12 O1          3.5337    2.1363   -0.0253 O.3       1 <0>        -0.2767
     13 C10         5.9241    2.3657    0.0278 C.2       1 <0>         0.5299
     14 O2          5.7517    3.4213   -0.5440 O.2       1 <0>        -0.5075
     15 N1          7.1688    1.9826    0.3745 N.am      1 <0>        -0.8455
     16 C11         3.9627   -1.3398    1.3369 C.2       1 <0>         0.5367
     17 O3          4.1092   -0.7502    2.3860 O.2       1 <0>        -0.4470
     18 N2          4.0007   -2.6737    1.1374 N.am      1 <0>        -0.6760
     19 C12         3.7990   -2.9857   -0.1487 C.2       1 <0>         0.7048
     20 O4          3.7883   -4.1240   -0.5744 O.2       1 <0>        -0.5256
     21 N3          3.6097   -1.8965   -0.9179 N.am      1 <0>        -0.7097
     22 H2         -0.9588    1.9080    0.0260 H         1 <0>         0.1519
     23 H3          1.1544    3.1647    0.0070 H         1 <0>         0.1533
     24 H4          1.2225   -1.7581   -0.0176 H         1 <0>         0.1373
     25 H5          5.8031   -0.3179   -0.2088 H         1 <0>         0.1059
     26 H6          4.7955    0.3761   -1.5053 H         1 <0>         0.1146
     27 H7          7.3067    1.1383    0.8318 H         1 <0>         0.4036
     28 H8          7.9268    2.5510    0.1667 H         1 <0>         0.4136
     29 H9          4.1552   -3.3257    1.8388 H         1 <0>         0.4388
     30 H10         3.4463   -1.8817   -1.8739 H         1 <0>         0.4472
@<TRIPOS>BOND
     1    1    6 ar
     2    1    2 ar
     3    1   22 1
     4    2    3 ar
     5    2   23 1
     6    3   12 1
     7    3    4 ar
     8    4    5 ar
     9    4    8 1
    10    5    6 ar
    11    5   24 1
    12    6    7 1
    13    8   21 1
    14    8    9 1
    15    8   16 1
    16    9   10 1
    17    9   25 1
    18    9   26 1
    19   10   11 1
    20   10   12 1
    21   10   13 1
    22   13   14 2
    23   13   15 am
    24   15   27 1
    25   15   28 1
    26   16   17 2
    27   16   18 am
    28   18   19 am
    29   18   29 1
    30   19   20 2
    31   19   21 am
    32   21   30 1
@<TRIPOS>MOLECULE
ZINC03789766
   29    31     0     0     0
SMALL
USER_CHARGES

@<TRIPOS>ATOM
      1 C1         -0.0167    1.3801    0.0096 C.ar      1 <0>        -0.1197
      2 C2          1.1701    2.0848    0.0021 C.ar      1 <0>        -0.1206
      3 C3          2.3854    1.4100   -0.0127 C.ar      1 <0>         0.1375
      4 C4          2.4028    0.0245   -0.0173 C.ar      1 <0>        -0.1088
      5 C5          1.2099   -0.6782   -0.0113 C.ar      1 <0>        -0.0974
      6 C6          0.0021   -0.0041    0.0020 C.ar      1 <0>         0.0627
      7 F1         -1.1583   -0.6959    0.0081 F         1 <0>        -0.1424
      8 C7          3.6991   -0.7356   -0.0238 C.3       1 <0>         0.1385
      9 C8          4.8557    0.1693   -0.4361 C.3       1 <0>        -0.1264
     10 C9          4.7463    1.4826    0.3509 C.3       1 <0>         0.0701
     11 H1          4.7304    1.2689    1.4197 H         1 <0>         0.1294
     12 O1          3.5338    2.1362   -0.0260 O.3       1 <0>        -0.2876
     13 C10         5.9241    2.3658    0.0286 C.2       1 <0>         0.5349
     14 O2          5.7519    3.4212   -0.5436 O.2       1 <0>        -0.5264
     15 N1          7.1687    1.9828    0.3761 N.am      1 <0>        -0.8468
     16 C11         3.9618   -1.3454    1.3330 C.2       1 <0>         0.4681
     17 O3          4.1233   -0.6922    2.4952 O.3       1 <0>        -0.6321
     18 N2          3.9996   -2.6382    1.1453 N.2       1 <0>        -0.6653
     19 C12         3.8007   -2.9763   -0.1357 C.2       1 <0>         0.6600
     20 O4          3.7933   -4.1229   -0.5432 O.2       1 <0>        -0.5847
     21 N3          3.6097   -1.8961   -0.9205 N.am      1 <0>        -0.7602
     22 H2         -0.9588    1.9080    0.0260 H         1 <0>         0.1409
     23 H3          1.1545    3.1646    0.0073 H         1 <0>         0.1425
     24 H4          1.2224   -1.7581   -0.0176 H         1 <0>         0.1355
     25 H5          5.8032   -0.3183   -0.2069 H         1 <0>         0.0926
     26 H6          4.7975    0.3758   -1.5048 H         1 <0>         0.0846
     27 H7          7.3064    1.1387    0.8337 H         1 <0>         0.4074
     28 H8          7.9267    2.5513    0.1686 H         1 <0>         0.4061
     29 H9          3.4473   -1.8873   -1.8767 H         1 <0>         0.4079
@<TRIPOS>BOND
     1    1    6 ar
     2    1    2 ar
     3    1   22 1
     4    2    3 ar
     5    2   23 1
     6    3   12 1
     7    3    4 ar
     8    4    5 ar
     9    4    8 1
    10    5    6 ar
    11    5   24 1
    12    6    7 1
    13    8   21 1
    14    8    9 1
    15    8   16 1
    16    9   10 1
    17    9   25 1
    18    9   26 1
    19   10   11 1
    20   10   12 1
    21   10   13 1
    22   13   14 2
    23   13   15 am
    24   15   27 1
    25   15   28 1
    26   16   17 1
    27   16   18 2
    28   18   19 1
    29   19   20 2
    30   19   21 am
    31   21   29 1
