@<TRIPOS>MOLECULE
ZINC49783661
   55    57     0     0     0
SMALL
USER_CHARGES

@<TRIPOS>ATOM
      1 C1         -1.4287    1.4215    1.2574 C.3       1 <0>        -0.1415
      2 C2         -1.3485   -0.0818    1.1897 C.2       1 <0>         0.4757
      3 O1         -1.4612   -0.7388    2.1975 O.2       1 <0>        -0.4959
      4 O2         -1.1517   -0.6913    0.0093 O.3       1 <0>        -0.2870
      5 C3         -0.9819   -2.0383    0.0080 C.ar      1 <0>         0.2210
      6 C4          0.2891   -2.5801    0.0575 C.ar      1 <0>        -0.2429
      7 C5          0.4608   -3.9602    0.0566 C.ar      1 <0>         0.2126
      8 C6         -0.6346   -4.8085    0.0061 C.ar      1 <0>        -0.1770
      9 C7         -1.9166   -4.2838   -0.0445 C.ar      1 <0>         0.2047
     10 C8         -2.0930   -2.8891   -0.0378 C.ar      1 <0>        -0.2680
     11 C9         -3.4644   -2.3545   -0.0865 C.2       1 <0>         0.4281
     12 O3         -3.6769   -1.1529   -0.0884 O.2       1 <0>        -0.4650
     13 C10        -4.5269   -3.2898   -0.1314 C.2       1 <0>        -0.3088
     14 C11        -4.2489   -4.6201   -0.1280 C.2       1 <0>         0.2092
     15 O4         -2.9939   -5.0953   -0.0953 O.3       1 <0>        -0.2140
     16 C12        -5.3704   -5.5798   -0.1748 C.ar      1 <0>        -0.0746
     17 C13        -6.6873   -5.1177   -0.2272 C.ar      1 <0>        -0.0795
     18 C14        -7.7300   -6.0197   -0.2707 C.ar      1 <0>        -0.1206
     19 C15        -7.4736   -7.3795   -0.2620 C.ar      1 <0>        -0.0921
     20 C16        -6.1713   -7.8442   -0.2097 C.ar      1 <0>        -0.1227
     21 C17        -5.1187   -6.9534   -0.1726 C.ar      1 <0>        -0.0785
     22 O5          1.7132   -4.4817    0.1050 O.3       1 <0>        -0.2979
     23 C18         2.8002   -3.5555    0.1551 C.3       1 <0>         0.0523
     24 C19         4.1226   -4.3233    0.2050 C.3       1 <0>        -0.1193
     25 C20         5.2864   -3.3316    0.2586 C.3       1 <0>        -0.1165
     26 C21         6.6089   -4.0994    0.3085 C.3       1 <0>        -0.1144
     27 C22         7.7727   -3.1077    0.3621 C.3       1 <0>        -0.1113
     28 C23         9.0952   -3.8755    0.4120 C.3       1 <0>         0.0260
     29 O6         10.1822   -2.9492    0.4621 O.3       1 <0>        -0.2252
     30 N1         11.4583   -3.5609    0.5110 N.pl3     1 <0>         0.1280
     31 O7         11.5514   -4.7663    0.5078 O.2       1 <0>        -0.1287
     32 O8         12.4548   -2.8778    0.5560 O.3       1 <0>        -0.0743
     33 H1         -1.5903    1.7306    2.2901 H         1 <0>         0.1069
     34 H2         -0.4967    1.8519    0.8910 H         1 <0>         0.1031
     35 H3         -2.2570    1.7693    0.6402 H         1 <0>         0.1085
     36 H4          1.1506   -1.9301    0.0968 H         1 <0>         0.1492
     37 H5         -0.4889   -5.8786    0.0059 H         1 <0>         0.1597
     38 H6         -5.5508   -2.9484   -0.1677 H         1 <0>         0.1651
     39 H7         -6.8888   -4.0567   -0.2333 H         1 <0>         0.1359
     40 H8         -8.7488   -5.6638   -0.3112 H         1 <0>         0.1347
     41 H9         -8.2938   -8.0813   -0.2958 H         1 <0>         0.1310
     42 H10        -5.9783   -8.9068   -0.2029 H         1 <0>         0.1329
     43 H11        -4.1025   -7.3175   -0.1371 H         1 <0>         0.1357
     44 H12         2.7802   -2.9235   -0.7328 H         1 <0>         0.0709
     45 H13         2.7071   -2.9339    1.0456 H         1 <0>         0.0697
     46 H14         4.1426   -4.9552    1.0929 H         1 <0>         0.0793
     47 H15         4.2157   -4.9449   -0.6856 H         1 <0>         0.0795
     48 H16         5.2665   -2.6996   -0.6293 H         1 <0>         0.0712
     49 H17         5.1934   -2.7100    1.1492 H         1 <0>         0.0709
     50 H18         6.6288   -4.7313    1.1964 H         1 <0>         0.0741
     51 H19         6.7019   -4.7210   -0.5820 H         1 <0>         0.0742
     52 H20         7.7528   -2.4757   -0.5257 H         1 <0>         0.0824
     53 H21         7.6797   -2.4861    1.2527 H         1 <0>         0.0823
     54 H22         9.1151   -4.5074    1.2999 H         1 <0>         0.0906
     55 H23         9.1882   -4.4971   -0.4785 H         1 <0>         0.0906
@<TRIPOS>BOND
     1    1    2 1
     2    1   33 1
     3    1   34 1
     4    1   35 1
     5    2    3 2
     6    2    4 1
     7    4    5 1
     8    5   10 ar
     9    5    6 ar
    10    6    7 ar
    11    6   36 1
    12    7    8 ar
    13    7   22 1
    14    8    9 ar
    15    8   37 1
    16    9   15 1
    17    9   10 ar
    18   10   11 1
    19   11   12 2
    20   11   13 1
    21   13   14 2
    22   13   38 1
    23   14   15 1
    24   14   16 1
    25   16   21 ar
    26   16   17 ar
    27   17   18 ar
    28   17   39 1
    29   18   19 ar
    30   18   40 1
    31   19   20 ar
    32   19   41 1
    33   20   21 ar
    34   20   42 1
    35   21   43 1
    36   22   23 1
    37   23   24 1
    38   23   44 1
    39   23   45 1
    40   24   25 1
    41   24   46 1
    42   24   47 1
    43   25   26 1
    44   25   48 1
    45   25   49 1
    46   26   27 1
    47   26   50 1
    48   26   51 1
    49   27   28 1
    50   27   52 1
    51   27   53 1
    52   28   29 1
    53   28   54 1
    54   28   55 1
    55   29   30 1
    56   30   31 2
    57   30   32 1
@<TRIPOS>MOLECULE
ZINC49124829
   49    51     0     0     0
SMALL
USER_CHARGES

@<TRIPOS>ATOM
      1 C1         -1.4287    1.4215    1.2574 C.3       1 <0>        -0.1416
      2 C2         -1.3485   -0.0818    1.1897 C.2       1 <0>         0.4759
      3 O1         -1.4612   -0.7388    2.1975 O.2       1 <0>        -0.4958
      4 O2         -1.1517   -0.6913    0.0093 O.3       1 <0>        -0.2869
      5 C3         -0.9819   -2.0383    0.0080 C.ar      1 <0>         0.2213
      6 C4          0.2891   -2.5801    0.0575 C.ar      1 <0>        -0.2429
      7 C5          0.4608   -3.9602    0.0566 C.ar      1 <0>         0.2117
      8 C6         -0.6346   -4.8085    0.0061 C.ar      1 <0>        -0.1756
      9 C7         -1.9166   -4.2838   -0.0445 C.ar      1 <0>         0.2050
     10 C8         -2.0930   -2.8891   -0.0378 C.ar      1 <0>        -0.2668
     11 C9         -3.4644   -2.3545   -0.0865 C.2       1 <0>         0.4279
     12 O3         -3.6769   -1.1529   -0.0884 O.2       1 <0>        -0.4643
     13 C10        -4.5269   -3.2898   -0.1314 C.2       1 <0>        -0.3086
     14 C11        -4.2489   -4.6201   -0.1280 C.2       1 <0>         0.2095
     15 O4         -2.9939   -5.0953   -0.0953 O.3       1 <0>        -0.2138
     16 C12        -5.3704   -5.5798   -0.1748 C.ar      1 <0>        -0.0749
     17 C13        -6.6873   -5.1177   -0.2272 C.ar      1 <0>        -0.0794
     18 C14        -7.7300   -6.0197   -0.2707 C.ar      1 <0>        -0.1206
     19 C15        -7.4736   -7.3795   -0.2620 C.ar      1 <0>        -0.0919
     20 C16        -6.1713   -7.8442   -0.2097 C.ar      1 <0>        -0.1227
     21 C17        -5.1187   -6.9534   -0.1726 C.ar      1 <0>        -0.0785
     22 O5          1.7132   -4.4817    0.1050 O.3       1 <0>        -0.2969
     23 C18         2.8002   -3.5555    0.1551 C.3       1 <0>         0.0548
     24 C19         4.1226   -4.3233    0.2050 C.3       1 <0>        -0.1154
     25 C20         5.2864   -3.3316    0.2586 C.3       1 <0>        -0.1089
     26 C21         6.6089   -4.0994    0.3085 C.3       1 <0>         0.0283
     27 O6          7.6959   -3.1731    0.3586 O.3       1 <0>        -0.2255
     28 N1          8.9720   -3.7848    0.4075 N.pl3     1 <0>         0.1283
     29 O7          9.0651   -4.9902    0.4043 O.2       1 <0>        -0.1264
     30 O8          9.9685   -3.1017    0.4524 O.3       1 <0>        -0.0718
     31 H1         -1.5903    1.7306    2.2901 H         1 <0>         0.1071
     32 H2         -0.4967    1.8519    0.8910 H         1 <0>         0.1033
     33 H3         -2.2570    1.7693    0.6402 H         1 <0>         0.1087
     34 H4          1.1506   -1.9301    0.0968 H         1 <0>         0.1493
     35 H5         -0.4889   -5.8786    0.0059 H         1 <0>         0.1602
     36 H6         -5.5508   -2.9484   -0.1677 H         1 <0>         0.1653
     37 H7         -6.8888   -4.0567   -0.2333 H         1 <0>         0.1359
     38 H8         -8.7488   -5.6638   -0.3112 H         1 <0>         0.1348
     39 H9         -8.2938   -8.0813   -0.2958 H         1 <0>         0.1311
     40 H10        -5.9783   -8.9068   -0.2029 H         1 <0>         0.1330
     41 H11        -4.1025   -7.3175   -0.1371 H         1 <0>         0.1357
     42 H12         2.7802   -2.9235   -0.7328 H         1 <0>         0.0745
     43 H13         2.7071   -2.9339    1.0456 H         1 <0>         0.0732
     44 H14         4.1426   -4.9552    1.0929 H         1 <0>         0.0869
     45 H15         4.2157   -4.9449   -0.6856 H         1 <0>         0.0871
     46 H16         5.2665   -2.6996   -0.6293 H         1 <0>         0.0871
     47 H17         5.1934   -2.7100    1.1492 H         1 <0>         0.0868
     48 H18         6.6288   -4.7313    1.1964 H         1 <0>         0.0933
     49 H19         6.7019   -4.7210   -0.5820 H         1 <0>         0.0934
@<TRIPOS>BOND
     1    1    2 1
     2    1   31 1
     3    1   32 1
     4    1   33 1
     5    2    3 2
     6    2    4 1
     7    4    5 1
     8    5   10 ar
     9    5    6 ar
    10    6    7 ar
    11    6   34 1
    12    7    8 ar
    13    7   22 1
    14    8    9 ar
    15    8   35 1
    16    9   15 1
    17    9   10 ar
    18   10   11 1
    19   11   12 2
    20   11   13 1
    21   13   14 2
    22   13   36 1
    23   14   15 1
    24   14   16 1
    25   16   21 ar
    26   16   17 ar
    27   17   18 ar
    28   17   37 1
    29   18   19 ar
    30   18   38 1
    31   19   20 ar
    32   19   39 1
    33   20   21 ar
    34   20   40 1
    35   21   41 1
    36   22   23 1
    37   23   24 1
    38   23   42 1
    39   23   43 1
    40   24   25 1
    41   24   44 1
    42   24   45 1
    43   25   26 1
    44   25   46 1
    45   25   47 1
    46   26   27 1
    47   26   48 1
    48   26   49 1
    49   27   28 1
    50   28   29 2
    51   28   30 1
@<TRIPOS>MOLECULE
ZINC49785128
   43    45     0     0     0
SMALL
USER_CHARGES

@<TRIPOS>ATOM
      1 C1         -1.2650    1.4383   -1.4014 C.3       1 <0>        -0.1404
      2 C2         -1.1852   -0.0657   -1.3498 C.2       1 <0>         0.4762
      3 O1         -2.1877   -0.7285   -1.4749 O.2       1 <0>        -0.4957
      4 O2          0.0001   -0.6692   -1.1646 O.3       1 <0>        -0.2862
      5 C3          0.0123   -2.0191   -1.0206 C.ar      1 <0>         0.2224
      6 C4         -0.0326   -2.5855    0.2399 C.ar      1 <0>        -0.2433
      7 C5         -0.0205   -3.9685    0.3852 C.ar      1 <0>         0.2089
      8 C6          0.0366   -4.7953   -0.7261 C.ar      1 <0>        -0.1720
      9 C7          0.0827   -4.2459   -1.9979 C.ar      1 <0>         0.2063
     10 C8          0.0648   -2.8483   -2.1476 C.ar      1 <0>        -0.2641
     11 C9          0.1089   -2.2872   -3.5086 C.2       1 <0>         0.4278
     12 O3          0.1011   -1.0818   -3.6982 O.2       1 <0>        -0.4625
     13 C10         0.1611   -3.2017   -4.5887 C.2       1 <0>        -0.3084
     14 C11         0.1685   -4.5370   -4.3362 C.2       1 <0>         0.2100
     15 O4          0.1399   -5.0364   -3.0905 O.3       1 <0>        -0.2134
     16 C12         0.2228   -5.4748   -5.4758 C.ar      1 <0>        -0.0756
     17 C13         0.2713   -4.9873   -6.7836 C.ar      1 <0>        -0.0791
     18 C14         0.3218   -5.8689   -7.8433 C.ar      1 <0>        -0.1205
     19 C15         0.3241   -7.2333   -7.6129 C.ar      1 <0>        -0.0914
     20 C16         0.2759   -7.7232   -6.3196 C.ar      1 <0>        -0.1225
     21 C17         0.2318   -6.8529   -5.2503 C.ar      1 <0>        -0.0783
     22 O5         -0.0645   -4.5142    1.6275 O.3       1 <0>        -0.2973
     23 C18        -0.1219   -3.6093    2.7319 C.3       1 <0>         0.0636
     24 C19        -0.1653   -4.4025    4.0395 C.3       1 <0>         0.0306
     25 O6          1.0596   -5.1203    4.2021 O.3       1 <0>        -0.2205
     26 N1          1.1223   -5.8913    5.3882 N.pl3     1 <0>         0.1287
     27 O7          0.1872   -5.8985    6.1546 O.2       1 <0>        -0.1263
     28 O8          2.1108   -6.5423    5.6345 O.3       1 <0>        -0.0669
     29 H1         -1.4293    1.8282   -0.3968 H         1 <0>         0.1088
     30 H2         -0.3320    1.8383   -1.7983 H         1 <0>         0.1008
     31 H3         -2.0916    1.7364   -2.0464 H         1 <0>         0.1092
     32 H4         -0.0769   -1.9523    1.1137 H         1 <0>         0.1498
     33 H5          0.0455   -5.8680   -0.6009 H         1 <0>         0.1608
     34 H6          0.1945   -2.8405   -5.6060 H         1 <0>         0.1661
     35 H7          0.2688   -3.9226   -6.9648 H         1 <0>         0.1360
     36 H8          0.3593   -5.4933   -8.8552 H         1 <0>         0.1351
     37 H9          0.3635   -7.9190   -8.4463 H         1 <0>         0.1313
     38 H10         0.2776   -8.7893   -6.1470 H         1 <0>         0.1332
     39 H11         0.1994   -7.2366   -4.2412 H         1 <0>         0.1355
     40 H12         0.7609   -2.9699    2.7240 H         1 <0>         0.0902
     41 H13        -1.0174   -2.9932    2.6507 H         1 <0>         0.1103
     42 H14        -0.2984   -3.7168    4.8762 H         1 <0>         0.1171
     43 H15        -0.9975   -5.1059    4.0103 H         1 <0>         0.1057
@<TRIPOS>BOND
     1    1    2 1
     2    1   29 1
     3    1   30 1
     4    1   31 1
     5    2    3 2
     6    2    4 1
     7    4    5 1
     8    5   10 ar
     9    5    6 ar
    10    6    7 ar
    11    6   32 1
    12    7    8 ar
    13    7   22 1
    14    8    9 ar
    15    8   33 1
    16    9   15 1
    17    9   10 ar
    18   10   11 1
    19   11   12 2
    20   11   13 1
    21   13   14 2
    22   13   34 1
    23   14   15 1
    24   14   16 1
    25   16   21 ar
    26   16   17 ar
    27   17   18 ar
    28   17   35 1
    29   18   19 ar
    30   18   36 1
    31   19   20 ar
    32   19   37 1
    33   20   21 ar
    34   20   38 1
    35   21   39 1
    36   22   23 1
    37   23   24 1
    38   23   40 1
    39   23   41 1
    40   24   25 1
    41   24   42 1
    42   24   43 1
    43   25   26 1
    44   26   27 2
    45   26   28 1
@<TRIPOS>MOLECULE
ZINC03872070
   29    31     0     0     0
SMALL
USER_CHARGES

@<TRIPOS>ATOM
      1 C1         -0.0167    1.3795    0.0096 C.ar      1 <0>        -0.0927
      2 C2          1.1683    2.0940    0.0021 C.ar      1 <0>        -0.1229
      3 C3          2.3774    1.4303   -0.0130 C.ar      1 <0>        -0.0794
      4 C4          2.4038    0.0341   -0.0208 C.ar      1 <0>        -0.0750
      5 C5          1.2040   -0.6806   -0.0131 C.ar      1 <0>        -0.0800
      6 C6          0.0021   -0.0041    0.0020 C.ar      1 <0>        -0.1206
      7 C7          3.6945   -0.6834   -0.0374 C.2       1 <0>         0.2076
      8 C8          3.6865   -2.0422   -0.0503 C.2       1 <0>        -0.3115
      9 C9          4.9147   -2.7475   -0.0669 C.2       1 <0>         0.4227
     10 O1          4.9453   -3.9673   -0.0791 O.2       1 <0>        -0.4538
     11 C10         6.1531   -1.9509   -0.0693 C.ar      1 <0>        -0.2663
     12 C11         7.4124   -2.5640   -0.0858 C.ar      1 <0>         0.2193
     13 C12         8.5511   -1.7802   -0.0879 C.ar      1 <0>        -0.2051
     14 C13         8.4449   -0.3935   -0.0739 C.ar      1 <0>         0.1922
     15 C14         7.2019    0.2199   -0.0571 C.ar      1 <0>        -0.1832
     16 C15         6.0486   -0.5493   -0.0551 C.ar      1 <0>         0.1831
     17 O2          4.8303    0.0319   -0.0449 O.3       1 <0>        -0.2180
     18 O3          9.5695    0.3668   -0.0761 O.3       1 <0>        -0.4872
     19 O4          7.5139   -3.9173   -0.0990 O.3       1 <0>        -0.4722
     20 H1         -0.9606    1.9042    0.0260 H         1 <0>         0.1309
     21 H2          1.1464    3.1738    0.0078 H         1 <0>         0.1326
     22 H3          3.3016    1.9892   -0.0192 H         1 <0>         0.1349
     23 H4          1.2173   -1.7605   -0.0194 H         1 <0>         0.1361
     24 H5         -0.9265   -0.5555    0.0079 H         1 <0>         0.1347
     25 H6          2.7503   -2.5805   -0.0475 H         1 <0>         0.1636
     26 H7          9.5256   -2.2457   -0.1002 H         1 <0>         0.1502
     27 H8          7.1320    1.2975   -0.0459 H         1 <0>         0.1533
     28 H9          9.8879    0.5955   -0.9601 H         1 <0>         0.4037
     29 H10         7.5357   -4.3014   -0.9862 H         1 <0>         0.4030
@<TRIPOS>BOND
     1    1    6 ar
     2    1    2 ar
     3    1   20 1
     4    2    3 ar
     5    2   21 1
     6    3    4 ar
     7    3   22 1
     8    4    5 ar
     9    4    7 1
    10    5    6 ar
    11    5   23 1
    12    6   24 1
    13    7   17 1
    14    7    8 2
    15    8    9 1
    16    8   25 1
    17    9   10 2
    18    9   11 1
    19   11   16 ar
    20   11   12 ar
    21   12   13 ar
    22   12   19 1
    23   13   14 ar
    24   13   26 1
    25   14   15 ar
    26   14   18 1
    27   15   16 ar
    28   15   27 1
    29   16   17 1
    30   18   28 1
    31   19   29 1
@<TRIPOS>MOLECULE
ZINC03872070
   28    30     0     0     0
SMALL
USER_CHARGES

@<TRIPOS>ATOM
      1 C1         -0.0167    1.3797    0.0096 C.ar      1 <0>        -0.1070
      2 C2          1.1682    2.0946    0.0022 C.ar      1 <0>        -0.1239
      3 C3          2.3774    1.4315   -0.0129 C.ar      1 <0>        -0.0844
      4 C4          2.4042    0.0344   -0.0206 C.ar      1 <0>        -0.0523
      5 C5          1.2037   -0.6807   -0.0130 C.ar      1 <0>        -0.0872
      6 C6          0.0021   -0.0041    0.0020 C.ar      1 <0>        -0.1230
      7 C7          3.6938   -0.6822   -0.0372 C.2       1 <0>         0.1725
      8 C8          3.6987   -2.0599   -0.0503 C.2       1 <0>        -0.2684
      9 C9          4.9147   -2.7500   -0.0661 C.2       1 <0>         0.3652
     10 C10         6.1116   -2.0009   -0.0682 C.2       1 <0>        -0.3412
     11 C11         7.3668   -2.6443   -0.0844 C.2       1 <0>         0.2654
     12 C12         8.5111   -1.9002   -0.0865 C.2       1 <0>        -0.3783
     13 C13         8.4435   -0.4975   -0.0722 C.2       1 <0>         0.3617
     14 O1          9.5678    0.2204   -0.0740 O.2       1 <0>        -0.6670
     15 C14         7.2040    0.1518   -0.0566 C.2       1 <0>        -0.3151
     16 C15         6.0392   -0.5896   -0.0543 C.2       1 <0>         0.2114
     17 O2          4.8365    0.0229   -0.0448 O.3       1 <0>        -0.2195
     18 O3          7.4365   -3.9993   -0.0974 O.3       1 <0>        -0.4477
     19 O4          4.9436   -4.1007   -0.0786 O.3       1 <0>        -0.5790
     20 H1         -0.9606    1.9042    0.0260 H         1 <0>         0.1247
     21 H2          1.1460    3.1743    0.0078 H         1 <0>         0.1280
     22 H3          3.3014    1.9906   -0.0191 H         1 <0>         0.1359
     23 H4          1.2169   -1.7606   -0.0192 H         1 <0>         0.1351
     24 H5         -0.9266   -0.5554    0.0079 H         1 <0>         0.1291
     25 H6          2.7663   -2.6050   -0.0479 H         1 <0>         0.1462
     26 H7          9.4725   -2.3921   -0.0990 H         1 <0>         0.1160
     27 H8          7.1585    1.2308   -0.0456 H         1 <0>         0.1202
     28 H9          8.3389   -4.3466   -0.1079 H         1 <0>         0.3827
@<TRIPOS>BOND
     1    1    6 ar
     2    1    2 ar
     3    1   20 1
     4    2    3 ar
     5    2   21 1
     6    3    4 ar
     7    3   22 1
     8    4    5 ar
     9    4    7 1
    10    5    6 ar
    11    5   23 1
    12    6   24 1
    13    7   17 1
    14    7    8 2
    15    8    9 1
    16    8   25 1
    17    9   10 2
    18    9   19 1
    19   10   16 1
    20   10   11 1
    21   11   12 2
    22   11   18 1
    23   12   13 1
    24   12   26 1
    25   13   14 2
    26   13   15 1
    27   15   16 2
    28   15   27 1
    29   16   17 1
    30   18   28 1
@<TRIPOS>MOLECULE
ZINC00966884
   37    39     0     0     0
SMALL
USER_CHARGES
2-[(5Z)-4-oxo-5-[(3-phenoxyphenyl)methylene]-2-thioxo-thiazolidin-3-yl]acetic acid
@<TRIPOS>ATOM
      1 C1          1.8946   -0.3332   -0.7129 C.ar      1 <0>        -0.1183
      2 C2          1.8881    0.3813    0.4708 C.ar      1 <0>        -0.1062
      3 C3          0.7849    1.1372    0.8167 C.ar      1 <0>        -0.1290
      4 C4         -0.3174    1.1792   -0.0249 C.ar      1 <0>         0.0827
      5 C5         -0.3084    0.4612   -1.2123 C.ar      1 <0>        -0.1216
      6 C6          0.7975   -0.2928   -1.5537 C.ar      1 <0>        -0.1065
      7 O1         -1.4061    1.9175    0.3157 O.3       1 <0>        -0.2540
      8 C7         -1.3723    3.2540    0.0718 C.ar      1 <0>         0.1296
      9 C8         -0.2452    3.8259   -0.5052 C.ar      1 <0>        -0.1772
     10 C9         -0.2036    5.1851   -0.7573 C.ar      1 <0>        -0.0828
     11 C10        -1.2810    5.9843   -0.4368 C.ar      1 <0>        -0.1135
     12 C11        -2.4211    5.4190    0.1451 C.ar      1 <0>        -0.0440
     13 C12        -2.4627    4.0431    0.3932 C.ar      1 <0>        -0.1191
     14 C13        -3.5722    6.2664    0.4886 C.2       1 <0>         0.0527
     15 C14        -4.6189    5.7431    1.1738 C.2       1 <0>        -0.2067
     16 C15        -5.9197    6.3551    1.5198 C.2       1 <0>         0.5475
     17 O2         -6.1992    7.4927    1.1906 O.2       1 <0>        -0.4524
     18 N1         -6.7655    5.6010    2.2015 N.am      1 <0>        -0.4893
     19 C16        -6.4490    4.3430    2.5700 C.2       1 <0>         0.2819
     20 S1         -7.3967    3.2242    3.4537 S.2       1 <0>        -0.3540
     21 S2         -4.8025    4.1264    1.9141 S.3       1 <0>         0.0555
     22 C17        -8.0740    6.1469    2.5702 C.3       1 <0>         0.0341
     23 C18        -7.9745    6.8282    3.9107 C.2       1 <0>         0.4675
     24 O3         -6.9188    6.8550    4.4978 O.co2     1 <0>        -0.6246
     25 H1          2.7581   -0.9236   -0.9815 H         1 <0>         0.1280
     26 H2          2.7462    0.3480    1.1258 H         1 <0>         0.1307
     27 H3          0.7802    1.6948    1.7416 H         1 <0>         0.1328
     28 H4         -1.1653    0.4919   -1.8690 H         1 <0>         0.1331
     29 H5          0.8054   -0.8512   -2.4781 H         1 <0>         0.1310
     30 H6          0.6023    3.2061   -0.7584 H         1 <0>         0.1330
     31 H7          0.6759    5.6223   -1.2064 H         1 <0>         0.1342
     32 H8         -1.2448    7.0453   -0.6352 H         1 <0>         0.1380
     33 H9         -3.3409    3.5989    0.8380 H         1 <0>         0.1413
     34 H10        -3.5843    7.3057    0.1951 H         1 <0>         0.1664
     35 H11        -8.3913    6.8693    1.8181 H         1 <0>         0.1078
     36 H12        -8.8023    5.3379    2.6270 H         1 <0>         0.1179
     37 O4         -9.0586    7.4053    4.4524 O.co2     1 <0>        -0.7464
@<TRIPOS>BOND
     1    1    6 ar
     2    1    2 ar
     3    1   25 1
     4    2    3 ar
     5    2   26 1
     6    3    4 ar
     7    3   27 1
     8    4    5 ar
     9    4    7 1
    10    5    6 ar
    11    5   28 1
    12    6   29 1
    13    7    8 1
    14    8   13 ar
    15    8    9 ar
    16    9   10 ar
    17    9   30 1
    18   10   11 ar
    19   10   31 1
    20   11   12 ar
    21   11   32 1
    22   12   13 ar
    23   12   14 1
    24   13   33 1
    25   14   15 2
    26   14   34 1
    27   15   21 1
    28   15   16 1
    29   16   17 2
    30   16   18 am
    31   18   19 1
    32   18   22 1
    33   19   20 2
    34   19   21 1
    35   22   23 1
    36   22   35 1
    37   22   36 1
    38   23   24 2
    39   23   37 1
@<TRIPOS>MOLECULE
ZINC18185774
   31    33     0     0     0
SMALL
USER_CHARGES

@<TRIPOS>ATOM
      1 C1         -0.0169    1.3929    0.0097 C.ar      1 <0>        -0.0705
      2 C2          1.1675    2.0983    0.0022 C.ar      1 <0>        -0.1309
      3 C3          2.3803    1.4240   -0.0135 C.ar      1 <0>         0.1099
      4 C4          2.4067    0.0300   -0.0212 C.ar      1 <0>         0.0792
      5 C5          1.2240   -0.6832   -0.0138 C.ar      1 <0>        -0.0904
      6 C6          0.0021   -0.0041    0.0020 C.ar      1 <0>        -0.0661
      7 C7         -1.2642   -0.7606    0.0105 C.2       1 <0>         0.2069
      8 C8         -2.4374   -0.0724    0.0203 C.2       1 <0>        -0.3067
      9 C9         -3.6620   -0.7813    0.0286 C.2       1 <0>         0.4226
     10 O1         -4.7331   -0.1964    0.0371 O.2       1 <0>        -0.4521
     11 C10        -3.5935   -2.2524    0.0260 C.ar      1 <0>        -0.2661
     12 C11        -4.7554   -3.0344    0.0332 C.ar      1 <0>         0.2196
     13 C12        -4.6484   -4.4128    0.0300 C.ar      1 <0>        -0.2046
     14 C13        -3.3955   -5.0163    0.0203 C.ar      1 <0>         0.1928
     15 C14        -2.2415   -4.2483    0.0131 C.ar      1 <0>        -0.1829
     16 C15        -2.3286   -2.8648    0.0157 C.ar      1 <0>         0.1832
     17 O2         -1.2147   -2.1022    0.0028 O.3       1 <0>        -0.2181
     18 O3         -3.3016   -6.3705    0.0182 O.3       1 <0>        -0.4872
     19 O4         -5.9771   -2.4436    0.0436 O.3       1 <0>        -0.4722
     20 O5          3.5971   -0.6274   -0.0366 O.3       1 <0>        -0.4831
     21 O6          3.5446    2.1239   -0.0217 O.3       1 <0>        -0.4848
     22 H1         -0.9593    1.9201    0.0260 H         1 <0>         0.1451
     23 H2          1.1515    3.1781    0.0081 H         1 <0>         0.1468
     24 H3          1.2430   -1.7630   -0.0205 H         1 <0>         0.1466
     25 H4         -2.4342    1.0076    0.0222 H         1 <0>         0.1649
     26 H5         -5.5400   -5.0224    0.0355 H         1 <0>         0.1504
     27 H6         -1.2739   -4.7281    0.0059 H         1 <0>         0.1535
     28 H7         -3.2809   -6.7620   -0.8658 H         1 <0>         0.4041
     29 H8         -6.3379   -2.2705   -0.8367 H         1 <0>         0.4034
     30 H9          3.9502   -0.8223    0.8423 H         1 <0>         0.3919
     31 H10         3.8907    2.3221    0.8592 H         1 <0>         0.3948
@<TRIPOS>BOND
     1    1    6 ar
     2    1    2 ar
     3    1   22 1
     4    2    3 ar
     5    2   23 1
     6    3    4 ar
     7    3   21 1
     8    4    5 ar
     9    4   20 1
    10    5    6 ar
    11    5   24 1
    12    6    7 1
    13    7   17 1
    14    7    8 2
    15    8    9 1
    16    8   25 1
    17    9   10 2
    18    9   11 1
    19   11   16 ar
    20   11   12 ar
    21   12   13 ar
    22   12   19 1
    23   13   14 ar
    24   13   26 1
    25   14   15 ar
    26   14   18 1
    27   15   16 ar
    28   15   27 1
    29   16   17 1
    30   18   28 1
    31   19   29 1
    32   20   30 1
    33   21   31 1
@<TRIPOS>MOLECULE
ZINC02779401
   32    34     0     0     0
SMALL
USER_CHARGES
5-[(3-phenoxyphenyl)methylene]-2-thioxo-thiazolidin-4-one
@<TRIPOS>ATOM
      1 C1          1.8817   -0.3383   -0.7423 C.ar      1 <0>        -0.1135
      2 C2          1.8810    0.3711    0.4445 C.ar      1 <0>        -0.1053
      3 C3          0.7808    1.1281    0.7975 C.ar      1 <0>        -0.1285
      4 C4         -0.3243    1.1763   -0.0403 C.ar      1 <0>         0.0751
      5 C5         -0.3210    0.4635   -1.2308 C.ar      1 <0>        -0.1201
      6 C6          0.7820   -0.2916   -1.5792 C.ar      1 <0>        -0.1049
      7 O1         -1.4101    1.9158    0.3072 O.3       1 <0>        -0.2529
      8 C7         -1.3752    3.2527    0.0661 C.ar      1 <0>         0.1303
      9 C8         -0.2475    3.8249   -0.5098 C.ar      1 <0>        -0.1648
     10 C9         -0.2047    5.1846   -0.7587 C.ar      1 <0>        -0.0812
     11 C10        -1.2813    5.9841   -0.4363 C.ar      1 <0>        -0.1049
     12 C11        -2.4219    5.4186    0.1444 C.ar      1 <0>        -0.0644
     13 C12        -2.4649    4.0421    0.3890 C.ar      1 <0>        -0.1138
     14 C13        -3.5722    6.2663    0.4901 C.2       1 <0>         0.0925
     15 C14        -4.6187    5.7427    1.1753 C.2       1 <0>        -0.2455
     16 C15        -5.9217    6.3525    1.5166 C.2       1 <0>         0.5480
     17 O2         -6.2035    7.4882    1.1830 O.2       1 <0>        -0.4575
     18 N1         -6.7654    5.5998    2.2026 N.am      1 <0>        -0.6280
     19 C16        -6.4491    4.3415    2.5699 C.2       1 <0>         0.2544
     20 S1         -7.3973    3.2217    3.4519 S.2       1 <0>        -0.3284
     21 S2         -4.8054    4.1227    1.9077 S.3       1 <0>         0.0980
     22 H1          2.7429   -0.9296   -1.0164 H         1 <0>         0.1306
     23 H2          2.7412    0.3329    1.0964 H         1 <0>         0.1326
     24 H3          0.7806    1.6817    1.7248 H         1 <0>         0.1322
     25 H4         -1.1800    0.4991   -1.8844 H         1 <0>         0.1333
     26 H5          0.7853   -0.8460   -2.5060 H         1 <0>         0.1333
     27 H6          0.5993    3.2049   -0.7645 H         1 <0>         0.1378
     28 H7          0.6752    5.6221   -1.2069 H         1 <0>         0.1390
     29 H8         -1.2442    7.0456   -0.6322 H         1 <0>         0.1408
     30 H9         -3.3436    3.5976    0.8326 H         1 <0>         0.1369
     31 H10        -3.5837    7.3060    0.1982 H         1 <0>         0.1699
     32 H11        -7.6315    5.9614    2.4476 H         1 <0>         0.4292
@<TRIPOS>BOND
     1    1    6 ar
     2    1    2 ar
     3    1   22 1
     4    2    3 ar
     5    2   23 1
     6    3    4 ar
     7    3   24 1
     8    4    5 ar
     9    4    7 1
    10    5    6 ar
    11    5   25 1
    12    6   26 1
    13    7    8 1
    14    8   13 ar
    15    8    9 ar
    16    9   10 ar
    17    9   27 1
    18   10   11 ar
    19   10   28 1
    20   11   12 ar
    21   11   29 1
    22   12   13 ar
    23   12   14 1
    24   13   30 1
    25   14   15 2
    26   14   31 1
    27   15   21 1
    28   15   16 1
    29   16   17 2
    30   16   18 am
    31   18   19 1
    32   18   32 1
    33   19   20 2
    34   19   21 1
@<TRIPOS>MOLECULE
ZINC13343658
   30    31     0     0     0
SMALL
USER_CHARGES
2-[(5Z)-5-[(3-methoxyphenyl)methylene]-4-oxo-2-thioxo-thiazolidin-3-yl]acetic acid
@<TRIPOS>ATOM
      1 C1         -2.0468    7.1150   -1.4212 C.3       1 <0>         0.0260
      2 O1         -1.4209    5.8316   -1.3654 O.3       1 <0>        -0.3109
      3 C2         -0.1932    5.7685   -0.7860 C.ar      1 <0>         0.1339
      4 C3          0.3960    6.9210   -0.2814 C.ar      1 <0>        -0.1915
      5 C4          1.6453    6.8650    0.3093 C.ar      1 <0>        -0.0825
      6 C5          2.3161    5.6636    0.4029 C.ar      1 <0>        -0.1201
      7 C6          1.7318    4.4966   -0.1016 C.ar      1 <0>        -0.0439
      8 C7          0.4709    4.5575   -0.7040 C.ar      1 <0>        -0.1266
      9 C8          2.4425    3.2134   -0.0044 C.2       1 <0>         0.0547
     10 C9          1.8061    2.0598   -0.3257 C.2       1 <0>        -0.2088
     11 C10         2.3452    0.6885   -0.4485 C.2       1 <0>         0.5478
     12 O2          3.5211    0.4436   -0.2538 O.2       1 <0>        -0.4532
     13 N1          1.4837   -0.2582   -0.7808 N.am      1 <0>        -0.4896
     14 C11         0.1812    0.0176   -0.9949 C.2       1 <0>         0.2837
     15 S1         -1.0762   -1.0605   -1.4281 S.2       1 <0>        -0.3556
     16 S2          0.0847    1.7788   -0.7173 S.3       1 <0>         0.0564
     17 C12         1.9551   -1.6384   -0.9192 C.3       1 <0>         0.0343
     18 C13         2.3922   -1.8798   -2.3410 C.2       1 <0>         0.4674
     19 O3          2.3176   -0.9902   -3.1553 O.co2     1 <0>        -0.6247
     20 H1         -2.1804    7.4984   -0.4096 H         1 <0>         0.0563
     21 H2         -1.4190    7.8010   -1.9898 H         1 <0>         0.0563
     22 H3         -3.0186    7.0246   -1.9067 H         1 <0>         0.1027
     23 H4         -0.1238    7.8651   -0.3510 H         1 <0>         0.1328
     24 H5          2.0970    7.7653    0.6989 H         1 <0>         0.1324
     25 H6          3.2913    5.6236    0.8654 H         1 <0>         0.1358
     26 H7          0.0155    3.6618   -1.0997 H         1 <0>         0.1424
     27 H8          3.4714    3.1894    0.3230 H         1 <0>         0.1654
     28 H9          2.7972   -1.8038   -0.2471 H         1 <0>         0.1079
     29 H10         1.1476   -2.3252   -0.6657 H         1 <0>         0.1179
     30 O4          2.8644   -3.0830   -2.7029 O.co2     1 <0>        -0.7465
@<TRIPOS>BOND
     1    1    2 1
     2    1   20 1
     3    1   21 1
     4    1   22 1
     5    2    3 1
     6    3    8 ar
     7    3    4 ar
     8    4    5 ar
     9    4   23 1
    10    5    6 ar
    11    5   24 1
    12    6    7 ar
    13    6   25 1
    14    7    8 ar
    15    7    9 1
    16    8   26 1
    17    9   10 2
    18    9   27 1
    19   10   16 1
    20   10   11 1
    21   11   12 2
    22   11   13 am
    23   13   14 1
    24   13   17 1
    25   14   15 2
    26   14   16 1
    27   17   18 1
    28   17   28 1
    29   17   29 1
    30   18   19 2
    31   18   30 1
@<TRIPOS>MOLECULE
ZINC38204050
   31    33     0     0     0
SMALL
USER_CHARGES

@<TRIPOS>ATOM
      1 C1          3.6491    1.5249   -3.3590 C.ar      1 <0>        -0.1556
      2 C2          3.5560    0.1459   -3.4011 C.ar      1 <0>        -0.0807
      3 C3          3.5596   -0.5839   -2.2283 C.ar      1 <0>        -0.1930
      4 C4          3.6566    0.0680   -1.0072 C.ar      1 <0>         0.1233
      5 C5          3.7499    1.4519   -0.9678 C.ar      1 <0>        -0.1486
      6 C6          3.7459    2.1770   -2.1435 C.ar      1 <0>        -0.0852
      7 O1          3.6599   -0.6475    0.1479 O.3       1 <0>        -0.2587
      8 C7          3.5152   -1.9943    0.0636 C.ar      1 <0>         0.0863
      9 C8          2.2716   -2.5732    0.2939 C.ar      1 <0>        -0.1260
     10 C9          2.1189   -3.9381    0.2098 C.ar      1 <0>        -0.0793
     11 C10         3.2194   -4.7452   -0.1092 C.ar      1 <0>        -0.0662
     12 C11         4.4700   -4.1562   -0.3407 C.ar      1 <0>        -0.0869
     13 C12         4.6097   -2.7898   -0.2585 C.ar      1 <0>        -0.1250
     14 C13         3.0632   -6.2004   -0.1998 C.2       1 <0>         0.0164
     15 C14         4.0840   -6.9667   -0.6756 C.2       1 <0>        -0.1649
     16 C15         4.2105   -8.3887   -0.7273 C.2       1 <0>         0.4833
     17 O2          3.2261   -9.1893   -0.2600 O.3       1 <0>        -0.5769
     18 N1          5.2911   -8.8919   -1.2331 N.2       1 <0>        -0.6213
     19 C16         6.2809   -8.1139   -1.7033 C.2       1 <0>         0.3700
     20 S1          7.7733   -8.5764   -2.4032 S.2       1 <0>        -0.5240
     21 S2          5.6351   -6.4721   -1.4165 S.3       1 <0>        -0.1457
     22 H1          3.6506    2.0933   -4.2773 H         1 <0>         0.1236
     23 H2          3.4802   -0.3609   -4.3517 H         1 <0>         0.1263
     24 H3          3.4865   -1.6609   -2.2617 H         1 <0>         0.1310
     25 H4          3.8251    1.9618   -0.0186 H         1 <0>         0.1310
     26 H5          3.8185    3.2541   -2.1134 H         1 <0>         0.1292
     27 H6          1.4243   -1.9502    0.5397 H         1 <0>         0.1344
     28 H7          1.1530   -4.3865    0.3896 H         1 <0>         0.1390
     29 H8          5.3216   -4.7733   -0.5865 H         1 <0>         0.1528
     30 H9          5.5719   -2.3345   -0.4407 H         1 <0>         0.1347
     31 H10         2.1388   -6.6646    0.1106 H         1 <0>         0.1566
@<TRIPOS>BOND
     1    1    6 ar
     2    1    2 ar
     3    1   22 1
     4    2    3 ar
     5    2   23 1
     6    3    4 ar
     7    3   24 1
     8    4    5 ar
     9    4    7 1
    10    5    6 ar
    11    5   25 1
    12    6   26 1
    13    7    8 1
    14    8   13 ar
    15    8    9 ar
    16    9   10 ar
    17    9   27 1
    18   10   11 ar
    19   10   28 1
    20   11   12 ar
    21   11   14 1
    22   12   13 ar
    23   12   29 1
    24   13   30 1
    25   14   15 2
    26   14   31 1
    27   15   21 1
    28   15   16 1
    29   16   17 1
    30   16   18 2
    31   18   19 1
    32   19   20 2
    33   19   21 1
@<TRIPOS>MOLECULE
ZINC01199750
   35    37     0     0     0
SMALL
USER_CHARGES
5-[(3-benzyloxyphenyl)methylene]-2-thioxo-thiazolidin-4-one
@<TRIPOS>ATOM
      1 C1          0.8954    8.4813   -0.7917 C.ar      1 <0>        -0.1064
      2 C2          0.3887    7.6025   -1.7308 C.ar      1 <0>        -0.1222
      3 C3          0.1895    6.2755   -1.3989 C.ar      1 <0>        -0.0939
      4 C4          0.4974    5.8271   -0.1281 C.ar      1 <0>        -0.1019
      5 C5          0.9992    6.7070    0.8126 C.ar      1 <0>        -0.0944
      6 C6          1.2025    8.0331    0.4794 C.ar      1 <0>        -0.1226
      7 C7          0.2803    4.3804    0.2337 C.3       1 <0>         0.1012
      8 O1          1.4635    3.6338   -0.0573 O.3       1 <0>        -0.3031
      9 C8          1.4349    2.3021    0.2126 C.ar      1 <0>         0.1373
     10 C9          0.2889    1.7270    0.7472 C.ar      1 <0>        -0.1807
     11 C10         0.2520    0.3725    1.0246 C.ar      1 <0>        -0.0792
     12 C11         1.3535   -0.4183    0.7728 C.ar      1 <0>        -0.1115
     13 C12         2.5130    0.1506    0.2344 C.ar      1 <0>        -0.0628
     14 C13         2.5471    1.5206   -0.0454 C.ar      1 <0>        -0.1220
     15 C14         3.6898   -0.6879   -0.0363 C.2       1 <0>         0.0937
     16 C15         4.7449   -0.1760   -0.7173 C.2       1 <0>        -0.2473
     17 C16         6.0833   -0.7567   -0.9573 C.2       1 <0>         0.5476
     18 O2          6.3923   -1.8517   -0.5259 O.2       1 <0>        -0.4579
     19 N1          6.9272   -0.0251   -1.6654 N.am      1 <0>        -0.6282
     20 C17         6.5806    1.1880   -2.1415 C.2       1 <0>         0.2559
     21 S1          7.5239    2.2750   -3.0687 S.2       1 <0>        -0.3289
     22 S2          4.8975    1.3832   -1.5783 S.3       1 <0>         0.1002
     23 H1          1.0517    9.5179   -1.0512 H         1 <0>         0.1257
     24 H2          0.1488    7.9527   -2.7239 H         1 <0>         0.1268
     25 H3         -0.2064    5.5889   -2.1326 H         1 <0>         0.1247
     26 H4          1.2357    6.3576    1.8068 H         1 <0>         0.1243
     27 H5          1.5987    8.7196    1.2130 H         1 <0>         0.1264
     28 H6         -0.5524    3.9819   -0.3458 H         1 <0>         0.0748
     29 H7          0.0535    4.3018    1.2970 H         1 <0>         0.0746
     30 H8         -0.5787    2.3395    0.9431 H         1 <0>         0.1372
     31 H9         -0.6425   -0.0674    1.4401 H         1 <0>         0.1376
     32 H10         1.3210   -1.4756    0.9907 H         1 <0>         0.1389
     33 H11         3.4385    1.9669   -0.4607 H         1 <0>         0.1380
     34 H12         3.7140   -1.7115    0.3071 H         1 <0>         0.1691
     35 H13         7.8161   -0.3687   -1.8461 H         1 <0>         0.4293
@<TRIPOS>BOND
     1    1    6 ar
     2    1    2 ar
     3    1   23 1
     4    2    3 ar
     5    2   24 1
     6    3    4 ar
     7    3   25 1
     8    4    5 ar
     9    4    7 1
    10    5    6 ar
    11    5   26 1
    12    6   27 1
    13    7    8 1
    14    7   28 1
    15    7   29 1
    16    8    9 1
    17    9   14 ar
    18    9   10 ar
    19   10   11 ar
    20   10   30 1
    21   11   12 ar
    22   11   31 1
    23   12   13 ar
    24   12   32 1
    25   13   14 ar
    26   13   15 1
    27   14   33 1
    28   15   16 2
    29   15   34 1
    30   16   22 1
    31   16   17 1
    32   17   18 2
    33   17   19 am
    34   19   20 1
    35   19   35 1
    36   20   21 2
    37   20   22 1
@<TRIPOS>MOLECULE
ZINC19770127
   30    31     0     0     0
SMALL
USER_CHARGES
2-[(5Z)-5-cinnamylidene-2,4-dioxo-thiazolidin-3-yl]acetic acid
@<TRIPOS>ATOM
      1 C1          4.8513   -0.3014   -0.0449 C.ar      1 <0>        -0.1144
      2 C2          4.8369    1.0827   -0.0378 C.ar      1 <0>        -0.1237
      3 C3          3.6381    1.7633   -0.0232 C.ar      1 <0>        -0.1008
      4 C4          2.4337    1.0510   -0.0155 C.ar      1 <0>        -0.0680
      5 C5          2.4571   -0.3482   -0.0174 C.ar      1 <0>        -0.1037
      6 C6          3.6643   -1.0135   -0.0374 C.ar      1 <0>        -0.1204
      7 C7          1.1506    1.7687    0.0006 C.2       1 <0>        -0.0605
      8 C8         -0.0126    1.0758    0.0080 C.2       1 <0>        -0.1434
      9 C9         -1.2424    1.7637    0.0175 C.2       1 <0>         0.0293
     10 C10        -2.4143    1.0657    0.0193 C.2       1 <0>        -0.1794
     11 C11        -3.8032    1.5609    0.0346 C.2       1 <0>         0.5558
     12 O1         -4.0570    2.7514    0.0484 O.2       1 <0>        -0.4705
     13 N1         -4.7593    0.6473    0.0278 N.am      1 <0>        -0.5497
     14 C12        -4.4738   -0.6708    0.0198 C.2       1 <0>         0.5699
     15 O2         -5.2454   -1.6111    0.0185 O.2       1 <0>        -0.4176
     16 S1         -2.6884   -0.7008    0.0116 S.3       1 <0>        -0.0881
     17 C13        -6.1600    1.0766    0.0358 C.3       1 <0>         0.0460
     18 C14        -6.6342    1.2171    1.4593 C.2       1 <0>         0.4593
     19 O3         -5.8796    0.9826    2.3734 O.co2     1 <0>        -0.6264
     20 O4         -7.8949    1.6026    1.7118 O.co2     1 <0>        -0.7531
     21 H1          5.7938   -0.8286   -0.0567 H         1 <0>         0.1220
     22 H2          5.7674    1.6310   -0.0441 H         1 <0>         0.1237
     23 H3          3.6286    2.8433   -0.0181 H         1 <0>         0.1268
     24 H4          1.5319   -0.9053   -0.0074 H         1 <0>         0.1291
     25 H5          3.6841   -2.0933   -0.0434 H         1 <0>         0.1251
     26 H6          1.1357    2.8686    0.0066 H         1 <0>         0.1347
     27 H7          0.0024   -0.0241    0.0066 H         1 <0>         0.1299
     28 H8         -1.2573    2.8636    0.0235 H         1 <0>         0.1569
     29 H9         -6.2496    2.0452   -0.4778 H         1 <0>         0.1077
     30 H10        -6.7760    0.3278   -0.4837 H         1 <0>         0.1036
@<TRIPOS>BOND
     1    1    6 ar
     2    1    2 ar
     3    1   21 1
     4    2    3 ar
     5    2   22 1
     6    3    4 ar
     7    3   23 1
     8    4    5 ar
     9    4    7 1
    10    5    6 ar
    11    5   24 1
    12    6   25 1
    13    7    8 2
    14    7   26 1
    15    8    9 1
    16    8   27 1
    17    9   10 2
    18    9   28 1
    19   10   16 1
    20   10   11 1
    21   11   12 2
    22   11   13 am
    23   13   14 am
    24   13   17 1
    25   14   15 2
    26   14   16 1
    27   17   18 1
    28   17   29 1
    29   17   30 1
    30   18   19 2
    31   18   20 1
@<TRIPOS>MOLECULE
ZINC00967110
   40    42     0     0     0
SMALL
USER_CHARGES
2-[5-[(3-benzyloxyphenyl)methylene]-4-oxo-2-thioxo-thiazolidin-3-yl]acetic acid
@<TRIPOS>ATOM
      1 C1          4.6651   12.5651    0.2359 C.ar      1 <0>        -0.1089
      2 C2          4.1254   12.0892   -0.9444 C.ar      1 <0>        -0.1232
      3 C3          3.2355   11.0317   -0.9205 C.ar      1 <0>        -0.0940
      4 C4          2.8856   10.4498    0.2836 C.ar      1 <0>        -0.0987
      5 C5          3.4214   10.9291    1.4644 C.ar      1 <0>        -0.0939
      6 C6          4.3146   11.9838    1.4401 C.ar      1 <0>        -0.1228
      7 C7          1.9155    9.2968    0.3096 C.3       1 <0>         0.1014
      8 O1          2.6343    8.0669    0.1975 O.3       1 <0>        -0.3024
      9 C8          1.9025    6.9217    0.2048 C.ar      1 <0>         0.1369
     10 C9          0.5193    6.9828    0.3179 C.ar      1 <0>        -0.1926
     11 C10        -0.2323    5.8219    0.3266 C.ar      1 <0>        -0.0815
     12 C11         0.3858    4.5934    0.2220 C.ar      1 <0>        -0.1203
     13 C12         1.7784    4.5202    0.1072 C.ar      1 <0>        -0.0431
     14 C13         2.5363    5.6959    0.1045 C.ar      1 <0>        -0.1261
     15 C14         2.4425    3.2133   -0.0040 C.2       1 <0>         0.0542
     16 C15         3.7653    3.1476   -0.2952 C.2       1 <0>        -0.2087
     17 C16         4.6699    1.9780   -0.3119 C.2       1 <0>         0.5478
     18 O2          4.2745    0.8597   -0.0406 O.2       1 <0>        -0.4532
     19 N1          5.9305    2.2099   -0.6372 N.am      1 <0>        -0.4896
     20 C17         6.3642    3.4509   -0.9376 C.2       1 <0>         0.2835
     21 S1          7.9422    3.9476   -1.3783 S.2       1 <0>        -0.3554
     22 S2          4.8952    4.4510   -0.7646 S.3       1 <0>         0.0570
     23 C18         6.8776    1.0928   -0.6726 C.3       1 <0>         0.0342
     24 C19         7.5146    0.9311    0.6835 C.2       1 <0>         0.4674
     25 O3          7.2089    1.6730    1.5869 O.co2     1 <0>        -0.6246
     26 H1          5.3609   13.3909    0.2172 H         1 <0>         0.1240
     27 H2          4.3992   12.5434   -1.8852 H         1 <0>         0.1254
     28 H3          2.8138   10.6599   -1.8426 H         1 <0>         0.1245
     29 H4          3.1447   10.4773    2.4055 H         1 <0>         0.1247
     30 H5          4.7365   12.3554    2.3622 H         1 <0>         0.1255
     31 H6          1.2198    9.3885   -0.5245 H         1 <0>         0.0726
     32 H7          1.3613    9.3095    1.2481 H         1 <0>         0.0725
     33 H8          0.0285    7.9414    0.3998 H         1 <0>         0.1323
     34 H9         -1.3073    5.8775    0.4152 H         1 <0>         0.1326
     35 H10        -0.2044    3.6890    0.2285 H         1 <0>         0.1357
     36 H11         3.6119    5.6471    0.0203 H         1 <0>         0.1423
     37 H12         1.8769    2.3057    0.1462 H         1 <0>         0.1653
     38 H13         6.3493    0.1768   -0.9374 H         1 <0>         0.1079
     39 H14         7.6497    1.2944   -1.4151 H         1 <0>         0.1178
     40 O4          8.4217   -0.0370    0.8878 O.co2     1 <0>        -0.7466
@<TRIPOS>BOND
     1    1    6 ar
     2    1    2 ar
     3    1   26 1
     4    2    3 ar
     5    2   27 1
     6    3    4 ar
     7    3   28 1
     8    4    5 ar
     9    4    7 1
    10    5    6 ar
    11    5   29 1
    12    6   30 1
    13    7    8 1
    14    7   31 1
    15    7   32 1
    16    8    9 1
    17    9   14 ar
    18    9   10 ar
    19   10   11 ar
    20   10   33 1
    21   11   12 ar
    22   11   34 1
    23   12   13 ar
    24   12   35 1
    25   13   14 ar
    26   13   15 1
    27   14   36 1
    28   15   16 2
    29   15   37 1
    30   16   22 1
    31   16   17 1
    32   17   18 2
    33   17   19 am
    34   19   20 1
    35   19   23 1
    36   20   21 2
    37   20   22 1
    38   23   24 1
    39   23   38 1
    40   23   39 1
    41   24   25 2
    42   24   40 1
@<TRIPOS>MOLECULE
ZINC01238457
   40    42     0     0     0
SMALL
USER_CHARGES
2-[(5Z)-5-[(4-benzyloxyphenyl)methylene]-4-oxo-2-thioxo-thiazolidin-3-yl]acetic acid
@<TRIPOS>ATOM
      1 C1          1.6162    3.3505    1.0416 C.ar      1 <0>        -0.1098
      2 C2          0.6641    2.4420    0.6185 C.ar      1 <0>        -0.1235
      3 C3         -0.6527    2.8373    0.4745 C.ar      1 <0>        -0.0942
      4 C4         -1.0192    4.1385    0.7636 C.ar      1 <0>        -0.0968
      5 C5         -0.0671    5.0470    1.1866 C.ar      1 <0>        -0.0947
      6 C6          1.2506    4.6530    1.3256 C.ar      1 <0>        -0.1239
      7 C7         -2.4557    4.5681    0.6117 C.3       1 <0>         0.0952
      8 O1         -2.6709    5.0497   -0.7164 O.3       1 <0>        -0.3040
      9 C8         -3.9223    5.4791   -1.0212 C.ar      1 <0>         0.1526
     10 C9         -4.9243    5.4311   -0.0589 C.ar      1 <0>        -0.2066
     11 C10        -6.1937    5.8705   -0.3606 C.ar      1 <0>        -0.0466
     12 C11        -6.4773    6.3557   -1.6433 C.ar      1 <0>        -0.1252
     13 C12        -5.4654    6.3964   -2.6105 C.ar      1 <0>        -0.0386
     14 C13        -4.1982    5.9597   -2.2960 C.ar      1 <0>        -0.1547
     15 C14        -7.8307    6.8205   -1.9727 C.2       1 <0>         0.0675
     16 C15        -8.8493    6.6181   -1.0987 C.2       1 <0>        -0.2247
     17 C16       -10.2320    7.1357   -1.1284 C.2       1 <0>         0.5477
     18 O2        -10.6241    7.8608   -2.0238 O.2       1 <0>        -0.4564
     19 N1        -11.0224    6.7717   -0.1327 N.am      1 <0>        -0.4884
     20 C17       -10.5838    5.9681    0.8575 C.2       1 <0>         0.2887
     21 S1        -11.4462    5.3913    2.2193 S.2       1 <0>        -0.3614
     22 S2         -8.8881    5.6454    0.4006 S.3       1 <0>         0.0429
     23 C18       -12.4061    7.2522   -0.1049 C.3       1 <0>         0.0319
     24 C19       -13.2912    6.2772   -0.8378 C.2       1 <0>         0.4677
     25 O3        -12.8150    5.2831   -1.3326 O.co2     1 <0>        -0.6246
     26 O4        -14.6086    6.5132   -0.9409 O.co2     1 <0>        -0.7468
     27 H1          2.6458    3.0427    1.1498 H         1 <0>         0.1239
     28 H2          0.9498    1.4244    0.3963 H         1 <0>         0.1256
     29 H3         -1.3957    2.1287    0.1397 H         1 <0>         0.1256
     30 H4         -0.3527    6.0647    1.4082 H         1 <0>         0.1249
     31 H5          1.9945    5.3629    1.6558 H         1 <0>         0.1252
     32 H6         -3.1171    3.7101    0.8023 H         1 <0>         0.0775
     33 H7         -2.6771    5.3689    1.3325 H         1 <0>         0.0767
     34 H8         -4.7056    5.0523    0.9286 H         1 <0>         0.1366
     35 H9         -6.9702    5.8372    0.3892 H         1 <0>         0.1367
     36 H10        -5.6785    6.7699   -3.6012 H         1 <0>         0.1421
     37 H11        -3.4170    5.9910   -3.0410 H         1 <0>         0.1383
     38 H12        -8.0191    7.3327   -2.9278 H         1 <0>         0.1661
     39 H13       -12.7428    7.3402    0.9386 H         1 <0>         0.1189
     40 H14       -12.4623    8.2366   -0.5926 H         1 <0>         0.1088
@<TRIPOS>BOND
     1    1    6 ar
     2    1    2 ar
     3    1   27 1
     4    2    3 ar
     5    2   28 1
     6    3    4 ar
     7    3   29 1
     8    4    5 ar
     9    4    7 1
    10    5    6 ar
    11    5   30 1
    12    6   31 1
    13    7    8 1
    14    7   32 1
    15    7   33 1
    16    8    9 1
    17    9   14 ar
    18    9   10 ar
    19   10   11 ar
    20   10   34 1
    21   11   12 ar
    22   11   35 1
    23   12   13 ar
    24   12   15 1
    25   13   14 ar
    26   13   36 1
    27   14   37 1
    28   15   16 2
    29   15   38 1
    30   16   22 1
    31   16   17 1
    32   17   18 2
    33   17   19 am
    34   19   20 1
    35   19   23 1
    36   20   21 2
    37   20   22 1
    38   23   24 1
    39   23   39 1
    40   23   40 1
    41   24   25 2
    42   24   26 1
@<TRIPOS>MOLECULE
ZINC12368669
   25    26     0     0     0
SMALL
USER_CHARGES
(5Z)-5-[(4-methoxyphenyl)methylene]-2-thioxo-thiazolidin-4-one
@<TRIPOS>ATOM
      1 C1          2.2693    4.1128    0.5670 C.3       1 <0>         0.0221
      2 O1          1.0600    3.4365    0.2176 O.3       1 <0>        -0.3085
      3 C2          1.1066    2.0808    0.1596 C.ar      1 <0>         0.1652
      4 C3         -0.0356    1.3623   -0.1746 C.ar      1 <0>        -0.1498
      5 C4          0.0059   -0.0124   -0.2348 C.ar      1 <0>        -0.0403
      6 C5          1.2017   -0.6869    0.0412 C.ar      1 <0>        -0.1474
      7 C6          2.3492    0.0420    0.3772 C.ar      1 <0>        -0.0270
      8 C7          2.2963    1.4164    0.4345 C.ar      1 <0>        -0.2145
      9 C8          1.2519   -2.1532   -0.0210 C.2       1 <0>         0.1083
     10 C9          0.1940   -2.8484   -0.5110 C.2       1 <0>        -0.2631
     11 C10        -0.0445   -4.3054   -0.5365 C.2       1 <0>         0.5478
     12 O2          0.7614   -5.0933   -0.0772 O.2       1 <0>        -0.4621
     13 N1         -1.1803   -4.7104   -1.0794 N.am      1 <0>        -0.6279
     14 C11        -2.0672   -3.8344   -1.5938 C.2       1 <0>         0.2602
     15 S1         -3.5738   -4.1604   -2.3388 S.2       1 <0>        -0.3348
     16 S2         -1.2899   -2.2522   -1.3099 S.3       1 <0>         0.0889
     17 H1          2.0941    5.1886    0.5771 H         1 <0>         0.1066
     18 H2          2.5945    3.7884    1.5555 H         1 <0>         0.0610
     19 H3          3.0418    3.8773   -0.1650 H         1 <0>         0.0610
     20 H4         -0.9561    1.8838   -0.3916 H         1 <0>         0.1444
     21 H5         -0.8822   -0.5696   -0.4942 H         1 <0>         0.1354
     22 H6          3.2740   -0.4732    0.5914 H         1 <0>         0.1405
     23 H7          3.1807    1.9795    0.6935 H         1 <0>         0.1403
     24 H8          2.1306   -2.6785    0.3231 H         1 <0>         0.1647
     25 H9         -1.3778   -5.6595   -1.1127 H         1 <0>         0.4288
@<TRIPOS>BOND
     1    1    2 1
     2    1   17 1
     3    1   18 1
     4    1   19 1
     5    2    3 1
     6    3    8 ar
     7    3    4 ar
     8    4    5 ar
     9    4   20 1
    10    5    6 ar
    11    5   21 1
    12    6    7 ar
    13    6    9 1
    14    7    8 ar
    15    7   22 1
    16    8   23 1
    17    9   10 2
    18    9   24 1
    19   10   16 1
    20   10   11 1
    21   11   12 2
    22   11   13 am
    23   13   14 1
    24   13   25 1
    25   14   15 2
    26   14   16 1
@<TRIPOS>MOLECULE
ZINC16904964
   32    33     0     0     0
SMALL
USER_CHARGES
2-[(5Z)-5-[[4-(carboxymethyloxy)phenyl]methylene]-2,4-dioxo-thiazolidin-3-yl]acetic acid
@<TRIPOS>ATOM
      1 C1          0.2802    1.3729   -0.7785 C.ar      1 <0>        -0.0400
      2 C2          0.4434    0.0283   -1.0248 C.ar      1 <0>        -0.1656
      3 C3          1.6598   -0.5878   -0.7544 C.ar      1 <0>         0.1650
      4 C4          2.7178    0.1491   -0.2346 C.ar      1 <0>        -0.2167
      5 C5          2.5657    1.4942    0.0156 C.ar      1 <0>        -0.0427
      6 C6          1.3425    2.1201   -0.2549 C.ar      1 <0>        -0.1457
      7 C7          1.1745    3.5548    0.0094 C.2       1 <0>         0.0707
      8 C8          2.1372    4.2389    0.6781 C.2       1 <0>        -0.2099
      9 C9          2.2724    5.6910    0.9079 C.2       1 <0>         0.5631
     10 O1          1.4564    6.4851    0.4779 O.2       1 <0>        -0.4803
     11 N1          3.3252    6.0854    1.6042 N.am      1 <0>        -0.5511
     12 C10         4.2271    5.2021    2.0788 C.2       1 <0>         0.5430
     13 O2          5.2315    5.4233    2.7282 O.2       1 <0>        -0.4303
     14 S1          3.5859    3.6288    1.5294 S.3       1 <0>        -0.0626
     15 C11         3.5160    7.5141    1.8662 C.3       1 <0>         0.0483
     16 C12         2.8321    7.8837    3.1572 C.2       1 <0>         0.4598
     17 O3          2.2455    7.0402    3.7931 O.co2     1 <0>        -0.6243
     18 O4          1.8153   -1.9141   -0.9992 O.3       1 <0>        -0.2825
     19 C13         3.0908   -2.4842   -0.6986 C.3       1 <0>         0.0141
     20 C14         3.0756   -3.9536   -1.0328 C.2       1 <0>         0.4705
     21 O5          2.0752   -4.4606   -1.4823 O.co2     1 <0>        -0.6152
     22 H1         -0.6640    1.8514   -0.9929 H         1 <0>         0.1357
     23 H2         -0.3752   -0.5489   -1.4286 H         1 <0>         0.1363
     24 H3          3.6606   -0.3346   -0.0263 H         1 <0>         0.1364
     25 H4          3.3881    2.0657    0.4198 H         1 <0>         0.1367
     26 H5          0.2848    4.0655   -0.3282 H         1 <0>         0.1576
     27 H6          4.5815    7.7299    1.9448 H         1 <0>         0.0994
     28 H7          3.0871    8.0938    1.0489 H         1 <0>         0.1036
     29 H8          3.8598   -1.9853   -1.2884 H         1 <0>         0.0704
     30 H9          3.3055   -2.3550    0.3622 H         1 <0>         0.0711
     31 O6          2.8746    9.1499    3.6006 O.co2     1 <0>        -0.7593
     32 O7          4.1735   -4.6991   -0.8311 O.co2     1 <0>        -0.7553
@<TRIPOS>BOND
     1    1    6 ar
     2    1    2 ar
     3    1   22 1
     4    2    3 ar
     5    2   23 1
     6    3    4 ar
     7    3   18 1
     8    4    5 ar
     9    4   24 1
    10    5    6 ar
    11    5   25 1
    12    6    7 1
    13    7    8 2
    14    7   26 1
    15    8   14 1
    16    8    9 1
    17    9   10 2
    18    9   11 am
    19   11   12 am
    20   11   15 1
    21   12   13 2
    22   12   14 1
    23   15   16 1
    24   15   27 1
    25   15   28 1
    26   16   17 2
    27   16   31 1
    28   18   19 1
    29   19   20 1
    30   19   29 1
    31   19   30 1
    32   20   21 2
    33   20   32 1
@<TRIPOS>MOLECULE
ZINC16904965
   32    33     0     0     0
SMALL
USER_CHARGES
2-[3-[(Z)-[3-(carboxymethyl)-2,4-dioxo-thiazolidin-5-ylidene]methyl]phenoxy]acetic acid
@<TRIPOS>ATOM
      1 C1         -0.5708   -3.9622    0.4303 C.ar      1 <0>        -0.0834
      2 C2         -1.8229   -4.5391    0.3906 C.ar      1 <0>        -0.1371
      3 C3         -2.9393   -3.7622    0.0622 C.ar      1 <0>        -0.0456
      4 C4         -2.7783   -2.4016   -0.2191 C.ar      1 <0>        -0.1314
      5 C5         -1.5155   -1.8374   -0.1814 C.ar      1 <0>         0.1441
      6 C6         -0.4140   -2.6178    0.1462 C.ar      1 <0>        -0.2002
      7 O1         -1.3534   -0.5170   -0.4598 O.3       1 <0>        -0.2823
      8 C7         -0.0230    0.0008   -0.3965 C.3       1 <0>         0.0174
      9 C8         -0.0391    1.4696   -0.7329 C.2       1 <0>         0.4687
     10 O2         -1.0821    2.0158   -1.0044 O.co2     1 <0>        -0.6082
     11 C9         -4.2764   -4.3721    0.0184 C.2       1 <0>         0.0445
     12 C10        -5.3283   -3.6656   -0.4636 C.2       1 <0>        -0.1878
     13 C11        -6.7672   -4.0053   -0.4726 C.2       1 <0>         0.5630
     14 O3         -7.1808   -5.0495   -0.0045 O.2       1 <0>        -0.4780
     15 N1         -7.5820   -3.1141   -1.0118 N.am      1 <0>        -0.5522
     16 C12        -7.1184   -1.9616   -1.5364 C.2       1 <0>         0.5368
     17 O4         -7.7483   -1.0650   -2.0641 O.2       1 <0>        -0.4248
     18 S1         -5.3562   -2.0704   -1.2701 S.3       1 <0>        -0.0355
     19 C13        -9.0207   -3.3885   -1.0463 C.3       1 <0>         0.0481
     20 C14        -9.3624   -4.1184   -2.3197 C.2       1 <0>         0.4602
     21 O5         -8.4934   -4.3823   -3.1166 O.co2     1 <0>        -0.6243
     22 H1          0.2904   -4.5626    0.6838 H         1 <0>         0.1259
     23 H2         -1.9416   -5.5893    0.6130 H         1 <0>         0.1287
     24 H3         -3.6359   -1.7946   -0.4690 H         1 <0>         0.1436
     25 H4          0.5695   -2.1727    0.1788 H         1 <0>         0.1321
     26 H5          0.6073   -0.5287   -1.1109 H         1 <0>         0.0671
     27 H6          0.3731   -0.1372    0.6096 H         1 <0>         0.0664
     28 H7         -4.4206   -5.3830    0.3702 H         1 <0>         0.1610
     29 H8         -9.2937   -4.0048   -0.1898 H         1 <0>         0.1033
     30 H9         -9.5709   -2.4483   -1.0076 H         1 <0>         0.1003
     31 O6          1.1060    2.1699   -0.7363 O.co2     1 <0>        -0.7602
     32 O7        -10.6322   -4.4753   -2.5686 O.co2     1 <0>        -0.7600
@<TRIPOS>BOND
     1    1    6 ar
     2    1    2 ar
     3    1   22 1
     4    2    3 ar
     5    2   23 1
     6    3    4 ar
     7    3   11 1
     8    4    5 ar
     9    4   24 1
    10    5    6 ar
    11    5    7 1
    12    6   25 1
    13    7    8 1
    14    8    9 1
    15    8   26 1
    16    8   27 1
    17    9   10 2
    18    9   31 1
    19   11   12 2
    20   11   28 1
    21   12   18 1
    22   12   13 1
    23   13   14 2
    24   13   15 am
    25   15   16 am
    26   15   19 1
    27   16   17 2
    28   16   18 1
    29   19   20 1
    30   19   29 1
    31   19   30 1
    32   20   21 2
    33   20   32 1
@<TRIPOS>MOLECULE
ZINC28822568
   36    37     0     0     0
SMALL
USER_CHARGES
2-[4-[(Z)-[3-(carboxymethyl)-2,4-dioxo-thiazolidin-5-ylidene]methyl]-2-methoxy-phenoxy]acetic acid
@<TRIPOS>ATOM
      1 C1          4.7447    0.7000    1.4415 C.3       1 <0>         0.0185
      2 O1          4.5442    2.1113    1.3410 O.3       1 <0>        -0.2964
      3 C2          3.3092    2.5338    0.9594 C.ar      1 <0>         0.0931
      4 C3          2.3158    1.6120    0.6942 C.ar      1 <0>        -0.1461
      5 C4          1.0469    2.0508    0.2964 C.ar      1 <0>        -0.1070
      6 C5          0.7899    3.4223    0.1802 C.ar      1 <0>        -0.0678
      7 C6          1.7857    4.3344    0.4519 C.ar      1 <0>        -0.1921
      8 C7          3.0450    3.8978    0.8412 C.ar      1 <0>         0.1396
      9 O2          4.0227    4.8024    1.1083 O.3       1 <0>        -0.2699
     10 C8          3.6844    6.1837    0.9679 C.3       1 <0>         0.0124
     11 C9          4.8845    7.0314    1.3031 C.2       1 <0>         0.4702
     12 O3          5.9229    6.5065    1.6288 O.co2     1 <0>        -0.6106
     13 O4          4.7997    8.3695    1.2399 O.co2     1 <0>        -0.7588
     14 C10        -0.0126    1.0758    0.0080 C.2       1 <0>         0.0679
     15 C11         0.2813   -0.2478   -0.0522 C.2       1 <0>        -0.2052
     16 C12        -0.6247   -1.4096   -0.1482 C.2       1 <0>         0.5630
     17 O5         -1.8338   -1.2761   -0.1851 O.2       1 <0>        -0.4776
     18 N1         -0.0559   -2.6027   -0.1916 N.am      1 <0>        -0.5501
     19 C13         1.2843   -2.7463   -0.1496 C.2       1 <0>         0.5465
     20 O6          1.9354   -3.7733   -0.1800 O.2       1 <0>        -0.4292
     21 S1          1.8720   -1.0634   -0.0449 S.3       1 <0>        -0.0734
     22 C14        -0.9010   -3.7956   -0.2871 C.3       1 <0>         0.0461
     23 C15        -1.1386   -4.1281   -1.7376 C.2       1 <0>         0.4600
     24 O7         -0.6520   -3.4394   -2.6028 O.co2     1 <0>        -0.6243
     25 O8         -1.8909   -5.1895   -2.0683 O.co2     1 <0>        -0.7588
     26 H1          5.7791    0.4982    1.7567 H         1 <0>         0.1018
     27 H2          4.5620    0.2331    0.4624 H         1 <0>         0.0574
     28 H3          4.0474    0.2825    2.1827 H         1 <0>         0.0555
     29 H4          2.5180    0.5554    0.7898 H         1 <0>         0.1479
     30 H5         -0.1885    3.7648   -0.1227 H         1 <0>         0.1347
     31 H6          1.5863    5.3921    0.3623 H         1 <0>         0.1431
     32 H7          3.3737    6.3816   -0.0686 H         1 <0>         0.0696
     33 H8          2.8587    6.4303    1.6516 H         1 <0>         0.0692
     34 H9         -1.0445    1.4182   -0.1592 H         1 <0>         0.1646
     35 H10        -0.3986   -4.6412    0.2054 H         1 <0>         0.1008
     36 H11        -1.8645   -3.6030    0.2075 H         1 <0>         0.1053
@<TRIPOS>BOND
     1    1    2 1
     2    1   26 1
     3    1   27 1
     4    1   28 1
     5    2    3 1
     6    3    8 ar
     7    3    4 ar
     8    4    5 ar
     9    4   29 1
    10    5    6 ar
    11    5   14 1
    12    6    7 ar
    13    6   30 1
    14    7    8 ar
    15    7   31 1
    16    8    9 1
    17    9   10 1
    18   10   11 1
    19   10   32 1
    20   10   33 1
    21   11   12 2
    22   11   13 1
    23   14   15 2
    24   14   34 1
    25   15   21 1
    26   15   16 1
    27   16   17 2
    28   16   18 am
    29   18   19 am
    30   18   22 1
    31   19   20 2
    32   19   21 1
    33   22   23 1
    34   22   35 1
    35   22   36 1
    36   23   24 2
    37   23   25 1
@<TRIPOS>MOLECULE
ZINC00002070
   26    28     0     0     0
SMALL
USER_CHARGES

@<TRIPOS>ATOM
      1 C1         -0.0167    1.3801    0.0096 C.ar      1 <0>        -0.0990
      2 C2          1.1701    2.0848    0.0021 C.ar      1 <0>        -0.1186
      3 C3          2.3855    1.4100   -0.0123 C.ar      1 <0>         0.1542
      4 C4          2.4028    0.0246   -0.0169 C.ar      1 <0>        -0.1549
      5 C5          1.2099   -0.6782   -0.0114 C.ar      1 <0>        -0.0989
      6 C6          0.0021   -0.0041    0.0020 C.ar      1 <0>         0.0694
      7 F1         -1.1583   -0.6960    0.0081 F         1 <0>        -0.1342
      8 C7          3.6992   -0.7359   -0.0229 C.3       1 <0>         0.1719
      9 C8          4.8552    0.1695   -0.4367 C.3       1 <0>        -0.1544
     10 C9          4.7464    1.4825    0.3507 C.3       1 <0>         0.0573
     11 O1          3.5337    2.1363   -0.0253 O.3       1 <0>        -0.3038
     12 C10         3.9627   -1.3398    1.3369 C.2       1 <0>         0.5371
     13 O2          4.1092   -0.7502    2.3860 O.2       1 <0>        -0.4481
     14 N1          4.0007   -2.6737    1.1374 N.am      1 <0>        -0.6781
     15 C11         3.7990   -2.9857   -0.1487 C.2       1 <0>         0.7047
     16 O3          3.7883   -4.1240   -0.5744 O.2       1 <0>        -0.5297
     17 N2          3.6097   -1.8965   -0.9179 N.am      1 <0>        -0.7116
     18 H1         -0.9588    1.9080    0.0260 H         1 <0>         0.1498
     19 H2          1.1544    3.1647    0.0070 H         1 <0>         0.1504
     20 H3          1.2225   -1.7581   -0.0176 H         1 <0>         0.1355
     21 H4          5.8031   -0.3179   -0.2088 H         1 <0>         0.1010
     22 H5          4.7955    0.3761   -1.5053 H         1 <0>         0.1057
     23 H6          4.7312    1.2686    1.4194 H         1 <0>         0.0856
     24 H7          5.5963    2.1229    0.1144 H         1 <0>         0.1255
     25 H8          4.1546   -3.3257    1.8389 H         1 <0>         0.4374
     26 H9          3.4463   -1.8817   -1.8739 H         1 <0>         0.4456
@<TRIPOS>BOND
     1    1    6 ar
     2    1    2 ar
     3    1   18 1
     4    2    3 ar
     5    2   19 1
     6    3   11 1
     7    3    4 ar
     8    4    5 ar
     9    4    8 1
    10    5    6 ar
    11    5   20 1
    12    6    7 1
    13    8   17 1
    14    8    9 1
    15    8   12 1
    16    9   10 1
    17    9   21 1
    18    9   22 1
    19   10   11 1
    20   10   23 1
    21   10   24 1
    22   12   13 2
    23   12   14 am
    24   14   15 am
    25   14   25 1
    26   15   16 2
    27   15   17 am
    28   17   26 1
@<TRIPOS>MOLECULE
ZINC00597385
   39    42     0     0     0
SMALL
USER_CHARGES
(4-bromo-2-fluoro-phenyl)methyl-fluoro-BLAHtetrone
@<TRIPOS>ATOM
      1 C1         -1.2451    3.1423    0.0294 C.ar      1 <0>        -0.1501
      2 C2         -0.0662    3.8582    0.0223 C.ar      1 <0>        -0.0062
      3 C3          1.1534    3.1821    0.0083 C.ar      1 <0>        -0.1420
      4 C4          1.1646    1.7799    0.0005 C.ar      1 <0>        -0.0083
      5 C5         -0.0126    1.0758    0.0080 C.ar      1 <0>        -0.1498
      6 C6         -1.2236    1.7561    0.0174 C.ar      1 <0>         0.1532
      7 F1         -2.3843    1.0646    0.0194 F         1 <0>        -0.1201
      8 C7          2.5045    1.0991   -0.0156 C.3       1 <0>        -0.0917
      9 C8          2.5599    0.1820   -1.2457 C.3       1 <0>        -0.1447
     10 C9          2.6593   -1.2041   -0.6423 C.2       1 <0>         0.5381
     11 O1          2.7275   -2.2399   -1.2685 O.2       1 <0>        -0.4574
     12 N1          2.6606   -1.1028    0.6938 N.am      1 <0>        -0.6717
     13 C10         2.5770    0.1543    1.1543 C.2       1 <0>         0.5582
     14 O2          2.5627    0.4771    2.3227 O.2       1 <0>        -0.4439
     15 C11         3.7451    1.9528   -0.0159 C.2       1 <0>         0.5513
     16 O3          4.8433    1.4393   -0.0230 O.2       1 <0>        -0.4400
     17 N2          3.6195    3.2947   -0.0078 N.am      1 <0>        -0.5537
     18 C12         2.4309    3.9144    0.0016 C.2       1 <0>         0.5723
     19 O4          2.4067    5.1294    0.0051 O.2       1 <0>        -0.4772
     20 C13         4.8355    4.1118   -0.0098 C.3       1 <0>         0.1361
     21 C14         5.2448    4.3999   -1.4312 C.ar      1 <0>        -0.1410
     22 C15         5.0305    5.6541   -1.9715 C.ar      1 <0>        -0.0549
     23 C16         5.4065    5.9193   -3.2748 C.ar      1 <0>        -0.1047
     24 C17         5.9972    4.9297   -4.0403 C.ar      1 <0>        -0.0546
     25 C18         6.2119    3.6745   -3.5017 C.ar      1 <0>        -0.1331
     26 C19         5.8406    3.4102   -2.1942 C.ar      1 <0>         0.1218
     27 F2          6.0548    2.1857   -1.6651 F         1 <0>        -0.1099
     28 Br1         6.5117    5.2941   -5.8231 Br        1 <0>        -0.0289
     29 H1         -2.1904    3.6646    0.0401 H         1 <0>         0.1568
     30 H2         -0.0875    4.9380    0.0272 H         1 <0>         0.1604
     31 H3          0.0021   -0.0041    0.0020 H         1 <0>         0.1470
     32 H4          1.6506    0.2789   -1.8388 H         1 <0>         0.1417
     33 H5          3.4398    0.4023   -1.8502 H         1 <0>         0.1385
     34 H6          2.7172   -1.8742    1.2792 H         1 <0>         0.4283
     35 H7          4.6434    5.0503    0.5103 H         1 <0>         0.1215
     36 H8          5.6362    3.5730    0.4968 H         1 <0>         0.1159
     37 H9          4.5695    6.4272   -1.3748 H         1 <0>         0.1498
     38 H10         5.2387    6.8995   -3.6960 H         1 <0>         0.1446
     39 H11         6.6730    2.9019   -4.0991 H         1 <0>         0.1485
@<TRIPOS>BOND
     1    1    6 ar
     2    1    2 ar
     3    1   29 1
     4    2    3 ar
     5    2   30 1
     6    3   18 1
     7    3    4 ar
     8    4    5 ar
     9    4    8 1
    10    5    6 ar
    11    5   31 1
    12    6    7 1
    13    8   13 1
    14    8    9 1
    15    8   15 1
    16    9   10 1
    17    9   32 1
    18    9   33 1
    19   10   11 2
    20   10   12 am
    21   12   13 am
    22   12   34 1
    23   13   14 2
    24   15   16 2
    25   15   17 am
    26   17   18 am
    27   17   20 1
    28   18   19 2
    29   20   21 1
    30   20   35 1
    31   20   36 1
    32   21   26 ar
    33   21   22 ar
    34   22   23 ar
    35   22   37 1
    36   23   24 ar
    37   23   38 1
    38   24   25 ar
    39   24   28 1
    40   25   26 ar
    41   25   39 1
    42   26   27 1
@<TRIPOS>MOLECULE
ZINC03871176
   29    31     0     0     0
SMALL
USER_CHARGES

@<TRIPOS>ATOM
      1 C1         -0.0167    1.3795    0.0096 C.ar      1 <0>        -0.0918
      2 C2          1.1683    2.0940    0.0021 C.ar      1 <0>        -0.1232
      3 C3          2.3774    1.4304   -0.0130 C.ar      1 <0>        -0.0785
      4 C4          2.4038    0.0341   -0.0208 C.ar      1 <0>        -0.0765
      5 C5          1.2040   -0.6806   -0.0131 C.ar      1 <0>        -0.0790
      6 C6          0.0021   -0.0041    0.0020 C.ar      1 <0>        -0.1209
      7 C7          3.6945   -0.6833   -0.0374 C.2       1 <0>         0.2136
      8 C8          3.6864   -2.0430   -0.0503 C.2       1 <0>        -0.3156
      9 C9          4.9134   -2.7476   -0.0669 C.2       1 <0>         0.4236
     10 O1          4.9441   -3.9673   -0.0791 O.2       1 <0>        -0.4651
     11 C10         6.1538   -1.9498   -0.0694 C.ar      1 <0>        -0.2157
     12 C11         7.4080   -2.5622   -0.0858 C.ar      1 <0>        -0.0405
     13 C12         8.5464   -1.7834   -0.0881 C.ar      1 <0>         0.0564
     14 C13         8.4429   -0.3897   -0.0739 C.ar      1 <0>         0.1490
     15 C14         7.2026    0.2224   -0.0571 C.ar      1 <0>        -0.1548
     16 C15         6.0486   -0.5490   -0.0552 C.ar      1 <0>         0.1582
     17 O2          4.8298    0.0318   -0.0449 O.3       1 <0>        -0.2178
     18 O3          9.5690    0.3697   -0.0762 O.3       1 <0>        -0.4786
     19 O4          9.7722   -2.3730   -0.1036 O.3       1 <0>        -0.4793
     20 H1         -0.9606    1.9042    0.0260 H         1 <0>         0.1310
     21 H2          1.1464    3.1738    0.0078 H         1 <0>         0.1327
     22 H3          3.3015    1.9893   -0.0192 H         1 <0>         0.1351
     23 H4          1.2172   -1.7605   -0.0194 H         1 <0>         0.1365
     24 H5         -0.9265   -0.5555    0.0079 H         1 <0>         0.1349
     25 H6          2.7502   -2.5813   -0.0475 H         1 <0>         0.1646
     26 H7          7.4865   -3.6393   -0.0964 H         1 <0>         0.1554
     27 H8          7.1320    1.3001   -0.0456 H         1 <0>         0.1561
     28 H9          9.8876    0.5980   -0.9602 H         1 <0>         0.3988
     29 H10        10.1193   -2.5353   -0.9915 H         1 <0>         0.3911
@<TRIPOS>BOND
     1    1    6 ar
     2    1    2 ar
     3    1   20 1
     4    2    3 ar
     5    2   21 1
     6    3    4 ar
     7    3   22 1
     8    4    5 ar
     9    4    7 1
    10    5    6 ar
    11    5   23 1
    12    6   24 1
    13    7   17 1
    14    7    8 2
    15    8    9 1
    16    8   25 1
    17    9   10 2
    18    9   11 1
    19   11   16 ar
    20   11   12 ar
    21   12   13 ar
    22   12   26 1
    23   13   14 ar
    24   13   19 1
    25   14   15 ar
    26   14   18 1
    27   15   16 ar
    28   15   27 1
    29   16   17 1
    30   18   28 1
    31   19   29 1
@<TRIPOS>MOLECULE
ZINC06092199
   30    32     0     0     0
SMALL
USER_CHARGES
2-(3,4-dihydroxyphenyl)-7-hydroxy-chromen-4-one
@<TRIPOS>ATOM
      1 C1          6.0050    3.4794   -0.0285 C.ar      1 <0>        -0.0713
      2 C2          7.1468    4.2517   -0.0407 C.ar      1 <0>        -0.1333
      3 C3          7.0521    5.6362   -0.0334 C.ar      1 <0>         0.1580
      4 C4          5.8015    6.2527   -0.0186 C.ar      1 <0>         0.0602
      5 C5          4.6532    5.4853   -0.0121 C.ar      1 <0>        -0.1347
      6 C6          4.7485    4.0904   -0.0200 C.ar      1 <0>        -0.0824
      7 C7          3.5256    3.2659   -0.0132 C.2       1 <0>         0.2135
      8 C8          3.6500    1.9106   -0.0211 C.2       1 <0>        -0.3156
      9 C9          2.4889    1.1038   -0.0148 C.2       1 <0>         0.4248
     10 O1          2.5631   -0.1142   -0.0220 O.2       1 <0>        -0.4739
     11 C10         1.1844    1.7922    0.0004 C.ar      1 <0>        -0.2661
     12 C11        -0.0126    1.0758    0.0080 C.ar      1 <0>         0.0116
     13 C12        -1.2033    1.7452    0.0172 C.ar      1 <0>        -0.1865
     14 C13        -1.2280    3.1380    0.0288 C.ar      1 <0>         0.2243
     15 C14        -0.0480    3.8630    0.0218 C.ar      1 <0>        -0.2466
     16 C15         1.1691    3.1972    0.0076 C.ar      1 <0>         0.1899
     17 O2          2.3325    3.8809    0.0011 O.3       1 <0>        -0.2233
     18 O3         -2.4186    3.7901    0.0427 O.3       1 <0>        -0.4956
     19 O4          5.7125    7.6097   -0.0109 O.3       1 <0>        -0.5169
     20 O5          8.1804    6.3926   -0.0402 O.3       1 <0>        -0.5004
     21 H1          6.0816    2.4021   -0.0298 H         1 <0>         0.1441
     22 H2          8.1174    3.7782   -0.0515 H         1 <0>         0.1472
     23 H3          3.6840    5.9615   -0.0013 H         1 <0>         0.1394
     24 H4          4.6289    1.4546   -0.0325 H         1 <0>         0.1625
     25 H5          0.0021   -0.0041    0.0020 H         1 <0>         0.1498
     26 H6         -2.1306    1.1916    0.0189 H         1 <0>         0.1430
     27 H7         -0.0751    4.9427    0.0279 H         1 <0>         0.1466
     28 H8         -2.4433    4.8898    0.0519 H         1 <0>         0.4428
     29 H9          4.7260    8.0961    0.0008 H         1 <0>         0.4441
     30 H10         8.1068    7.4901   -0.0344 H         1 <0>         0.4449
@<TRIPOS>BOND
     1    1    6 ar
     2    1    2 ar
     3    1   21 1
     4    2    3 ar
     5    2   22 1
     6    3    4 ar
     7    3   20 1
     8    4    5 ar
     9    4   19 1
    10    5    6 ar
    11    5   23 1
    12    6    7 1
    13    7   17 1
    14    7    8 2
    15    8    9 1
    16    8   24 1
    17    9   10 2
    18    9   11 1
    19   11   16 ar
    20   11   12 ar
    21   12   13 ar
    22   12   25 1
    23   13   14 ar
    24   13   26 1
    25   14   15 ar
    26   14   18 1
    27   15   16 ar
    28   15   27 1
    29   16   17 1
    30   18   28 1
    31   19   29 1
    32   20   30 1
@<TRIPOS>MOLECULE
ZINC01492564
   39    42     0     0     0
SMALL
USER_CHARGES
(4-bromo-2-fluoro-phenyl)methyl-fluoro-BLAHtetrone
@<TRIPOS>ATOM
      1 C1         -0.0166    1.3750    0.0096 C.ar      1 <0>        -0.1492
      2 C2          0.0021   -0.0041    0.0020 C.ar      1 <0>        -0.0069
      3 C3          1.2223   -0.6791   -0.0133 C.ar      1 <0>        -0.1391
      4 C4          2.4168    0.0553   -0.0217 C.ar      1 <0>        -0.0106
      5 C5          2.3890    1.4267   -0.0133 C.ar      1 <0>        -0.1494
      6 C6          1.1699    2.0923    0.0021 C.ar      1 <0>         0.1519
      7 F1          1.1402    3.4429    0.0096 F         1 <0>        -0.1203
      8 C7          3.7047   -0.7192   -0.0387 C.3       1 <0>        -0.0925
      9 C8          4.5121   -0.2775   -1.2675 C.3       1 <0>        -0.1440
     10 C9          5.7397    0.3726   -0.6622 C.2       1 <0>         0.5374
     11 O1          6.6541    0.8656   -1.2871 O.2       1 <0>        -0.4577
     12 N1          5.6537    0.3154    0.6737 N.am      1 <0>        -0.6720
     13 C10         4.5435   -0.2815    1.1325 C.2       1 <0>         0.5569
     14 O2          4.2613   -0.4423    2.3004 O.2       1 <0>        -0.4422
     15 C11         3.6392   -2.2237   -0.0412 C.2       1 <0>         0.5625
     16 O3          4.6572   -2.8822   -0.0505 O.2       1 <0>        -0.4617
     17 N2          2.4353   -2.8293   -0.0327 N.am      1 <0>        -0.5532
     18 C12         1.2793   -2.1506   -0.0204 C.2       1 <0>         0.5605
     19 O4          0.2366   -2.7747   -0.0146 O.2       1 <0>        -0.4564
     20 C13         2.3877   -4.2935   -0.0369 C.3       1 <0>         0.1364
     21 C14         2.3838   -4.8001    1.3824 C.ar      1 <0>        -0.1449
     22 C15         3.5521   -5.2716    1.9512 C.ar      1 <0>        -0.0576
     23 C16         3.5505   -5.7310    3.2547 C.ar      1 <0>        -0.1059
     24 C17         2.3772   -5.7301    3.9879 C.ar      1 <0>        -0.0528
     25 C18         1.2064   -5.2642    3.4187 C.ar      1 <0>        -0.1341
     26 C19         1.2090   -4.7985    2.1147 C.ar      1 <0>         0.1295
     27 F2          0.0656   -4.3434    1.5573 F         1 <0>        -0.1073
     28 Br1         2.3749   -6.3657    5.7689 Br        1 <0>        -0.0295
     29 H1         -0.9609    1.8992    0.0169 H         1 <0>         0.1565
     30 H2         -0.9245   -0.5589    0.0076 H         1 <0>         0.1604
     31 H3          3.3121    1.9872   -0.0196 H         1 <0>         0.1467
     32 H4          4.7926   -1.1391   -1.8734 H         1 <0>         0.1398
     33 H5          3.9479    0.4430   -1.8597 H         1 <0>         0.1426
     34 H6          6.3372    0.6755    1.2602 H         1 <0>         0.4282
     35 H7          1.4820   -4.6261   -0.5439 H         1 <0>         0.1196
     36 H8          3.2609   -4.6838   -0.5597 H         1 <0>         0.1184
     37 H9          4.4675   -5.2768    1.3782 H         1 <0>         0.1478
     38 H10         4.4646   -6.0954    3.6996 H         1 <0>         0.1438
     39 H11         0.2904   -5.2637    3.9908 H         1 <0>         0.1486
@<TRIPOS>BOND
     1    1    6 ar
     2    1    2 ar
     3    1   29 1
     4    2    3 ar
     5    2   30 1
     6    3   18 1
     7    3    4 ar
     8    4    5 ar
     9    4    8 1
    10    5    6 ar
    11    5   31 1
    12    6    7 1
    13    8   13 1
    14    8    9 1
    15    8   15 1
    16    9   10 1
    17    9   32 1
    18    9   33 1
    19   10   11 2
    20   10   12 am
    21   12   13 am
    22   12   34 1
    23   13   14 2
    24   15   16 2
    25   15   17 am
    26   17   18 am
    27   17   20 1
    28   18   19 2
    29   20   21 1
    30   20   35 1
    31   20   36 1
    32   21   26 ar
    33   21   22 ar
    34   22   23 ar
    35   22   37 1
    36   23   24 ar
    37   23   38 1
    38   24   25 ar
    39   24   28 1
    40   25   26 ar
    41   25   39 1
    42   26   27 1
@<TRIPOS>MOLECULE
ZINC03268277
   26    28     0     0     0
SMALL
USER_CHARGES
(4S)-spiro[chroman-4,5'-imidazolidine]-2',4'-dione
@<TRIPOS>ATOM
      1 C1          2.0451    1.2794   -3.6124 C.ar      1 <0>        -0.1511
      2 C2          3.4273    1.2792   -3.5714 C.ar      1 <0>        -0.0664
      3 C3          4.0807    1.4640   -2.3702 C.ar      1 <0>        -0.1493
      4 C4          3.3537    1.6508   -1.1992 C.ar      1 <0>         0.1617
      5 C5          1.9691    1.6549   -1.2438 C.ar      1 <0>        -0.1825
      6 C6          1.3197    1.4675   -2.4524 C.ar      1 <0>        -0.0639
      7 C7          1.1527    1.8611    0.0010 C.3       1 <0>         0.1724
      8 C8          2.0030    1.6399    1.2483 C.3       1 <0>        -0.1542
      9 C9          3.3270    2.3959    1.0709 C.3       1 <0>         0.0581
     10 O1          4.0291    1.8244   -0.0337 O.3       1 <0>        -0.3083
     11 C10         0.5501    3.2470    0.0128 C.2       1 <0>         0.5370
     12 O2          1.1424    4.3048    0.0110 O.2       1 <0>        -0.4505
     13 N1         -0.7858    3.0589    0.0251 N.am      1 <0>        -0.6789
     14 C11        -1.1005    1.7577    0.0161 C.2       1 <0>         0.7049
     15 O3         -2.2411    1.3381    0.0185 O.2       1 <0>        -0.5331
     16 N2         -0.0111    0.9658    0.0074 N.am      1 <0>        -0.7110
     17 H1          1.5328    1.1327   -4.5518 H         1 <0>         0.1304
     18 H2          3.9950    1.1349   -4.4787 H         1 <0>         0.1357
     19 H3          5.1602    1.4631   -2.3391 H         1 <0>         0.1383
     20 H4          0.2403    1.4677   -2.4879 H         1 <0>         0.1218
     21 H5          1.4770    2.0209    2.1237 H         1 <0>         0.0982
     22 H6          2.2018    0.5755    1.3732 H         1 <0>         0.1037
     23 H7          3.1242    3.4481    0.8713 H         1 <0>         0.0836
     24 H8          3.9258    2.3037    1.9770 H         1 <0>         0.1229
     25 H9         -1.4375    3.7774    0.0349 H         1 <0>         0.4361
     26 H10         0.0021   -0.0041    0.0020 H         1 <0>         0.4445
@<TRIPOS>BOND
     1    1    6 ar
     2    1    2 ar
     3    1   17 1
     4    2    3 ar
     5    2   18 1
     6    3    4 ar
     7    3   19 1
     8    4   10 1
     9    4    5 ar
    10    5    6 ar
    11    5    7 1
    12    6   20 1
    13    7   16 1
    14    7    8 1
    15    7   11 1
    16    8    9 1
    17    8   21 1
    18    8   22 1
    19    9   10 1
    20    9   23 1
    21    9   24 1
    22   11   12 2
    23   11   13 am
    24   13   14 am
    25   13   25 1
    26   14   15 2
    27   14   16 am
    28   16   26 1
@<TRIPOS>MOLECULE
ZINC03268279
   26    28     0     0     0
SMALL
USER_CHARGES
(4R)-spiro[chroman-4,5'-imidazolidine]-2',4'-dione
@<TRIPOS>ATOM
      1 C1          2.3936    0.0218   -0.0288 C.ar      1 <0>        -0.1479
      2 C2          1.2034   -0.6824   -0.0168 C.ar      1 <0>        -0.0661
      3 C3          0.0021   -0.0041    0.0020 C.ar      1 <0>        -0.1480
      4 C4         -0.0168    1.3866    0.0097 C.ar      1 <0>         0.1576
      5 C5          1.1768    2.0897    0.0020 C.ar      1 <0>        -0.1759
      6 C6          2.3790    1.4027   -0.0196 C.ar      1 <0>        -0.0636
      7 C7          1.1932    3.5923    0.0230 C.3       1 <0>         0.1704
      8 C8         -0.1714    4.1535   -0.3648 C.3       1 <0>        -0.1590
      9 C9         -1.2487    3.3922    0.4197 C.3       1 <0>         0.0669
     10 O1         -1.2172    2.0219    0.0183 O.3       1 <0>        -0.3084
     11 C10         2.2626    4.1205   -0.9052 C.2       1 <0>         0.5403
     12 O2          2.3396    3.9577   -2.1041 O.2       1 <0>        -0.4471
     13 N1          3.1137    4.8110   -0.1184 N.am      1 <0>        -0.6804
     14 C11         2.7291    4.7873    1.1636 C.2       1 <0>         0.7060
     15 O3          3.3352    5.3383    2.0615 O.2       1 <0>        -0.5340
     16 N2          1.5947    4.0846    1.3466 N.am      1 <0>        -0.7140
     17 H1          3.3344   -0.5082   -0.0451 H         1 <0>         0.1310
     18 H2          1.2143   -1.7623   -0.0225 H         1 <0>         0.1364
     19 H3         -0.9268   -0.5549    0.0112 H         1 <0>         0.1384
     20 H4          3.3102    1.9497   -0.0294 H         1 <0>         0.1177
     21 H5         -0.2166    5.2138   -0.1160 H         1 <0>         0.1026
     22 H6         -0.3329    4.0197   -1.4345 H         1 <0>         0.1069
     23 H7         -1.0446    3.4658    1.4879 H         1 <0>         0.0693
     24 H8         -2.2290    3.8155    0.2010 H         1 <0>         0.1232
     25 H9          3.9063    5.2673   -0.4414 H         1 <0>         0.4362
     26 H10         1.1341    3.9336    2.1868 H         1 <0>         0.4413
@<TRIPOS>BOND
     1    1    6 ar
     2    1    2 ar
     3    1   17 1
     4    2    3 ar
     5    2   18 1
     6    3    4 ar
     7    3   19 1
     8    4   10 1
     9    4    5 ar
    10    5    6 ar
    11    5    7 1
    12    6   20 1
    13    7   16 1
    14    7    8 1
    15    7   11 1
    16    8    9 1
    17    8   21 1
    18    8   22 1
    19    9   10 1
    20    9   23 1
    21    9   24 1
    22   11   12 2
    23   11   13 am
    24   13   14 am
    25   13   25 1
    26   14   15 2
    27   14   16 am
    28   16   26 1
@<TRIPOS>MOLECULE
ZINC26479960
   25    27     0     0     0
SMALL
USER_CHARGES
(4R)-6-chlorospiro[chroman-4,5'-oxazolidine]-2',4'-dione
@<TRIPOS>ATOM
      1 C1         -1.6732    5.7595   -0.8709 C.ar      1 <0>        -0.0510
      2 C2         -1.3287    5.0401    0.2554 C.ar      1 <0>        -0.1345
      3 C3         -1.0263    3.6866    0.1566 C.ar      1 <0>         0.1754
      4 C4         -1.0761    3.0599   -1.0782 C.ar      1 <0>        -0.1683
      5 C5         -1.4207    3.7866   -2.2049 C.ar      1 <0>        -0.0528
      6 C6         -1.7183    5.1328   -2.1034 C.ar      1 <0>        -0.0663
      7 Cl1        -2.1492    6.0363   -3.5218 Cl        1 <0>        -0.0557
      8 C7         -0.7617    1.5967   -1.2194 C.3       1 <0>         0.1137
      9 C8         -0.0127    1.0858    0.0080 C.3       1 <0>        -0.1572
     10 C9         -0.7423    1.5864    1.2622 C.3       1 <0>         0.0626
     11 O1         -0.6793    3.0127    1.2839 O.3       1 <0>        -0.3017
     12 C10         0.0488    1.3508   -2.4708 C.2       1 <0>         0.5170
     13 O2          1.1453    1.7953   -2.7351 O.2       1 <0>        -0.4316
     14 N1         -0.7070    0.5319   -3.2321 N.am      1 <0>        -0.6995
     15 C11        -1.8658    0.2391   -2.6284 C.2       1 <0>         0.6558
     16 O3         -2.7170   -0.4798   -3.1120 O.2       1 <0>        -0.4655
     17 O4         -1.9812    0.8310   -1.4267 O.3       1 <0>        -0.2909
     18 H1         -1.9070    6.8108   -0.7901 H         1 <0>         0.1502
     19 H2         -1.2944    5.5301    1.2172 H         1 <0>         0.1523
     20 H3         -1.4568    3.2996   -3.1682 H         1 <0>         0.1295
     21 H4          0.0042   -0.0140   -0.0043 H         1 <0>         0.1102
     22 H5          1.0185    1.4686   -0.0060 H         1 <0>         0.1171
     23 H6         -1.7915    1.2573    1.2319 H         1 <0>         0.0830
     24 H7         -0.2549    1.1754    2.1586 H         1 <0>         0.1302
     25 H8         -0.3381    0.1965   -4.2126 H         1 <0>         0.4781
@<TRIPOS>BOND
     1    1    6 ar
     2    1    2 ar
     3    1   18 1
     4    2    3 ar
     5    2   19 1
     6    3   11 1
     7    3    4 ar
     8    4    5 ar
     9    4    8 1
    10    5    6 ar
    11    5   20 1
    12    6    7 1
    13    8   17 1
    14    8    9 1
    15    8   12 1
    16    9   10 1
    17    9   21 1
    18    9   22 1
    19   10   11 1
    20   10   23 1
    21   10   24 1
    22   12   13 2
    23   12   14 am
    24   14   15 am
    25   14   25 1
    26   15   16 2
    27   15   17 1
@<TRIPOS>MOLECULE
ZINC26479967
   25    27     0     0     0
SMALL
USER_CHARGES
(4S)-6-chlorospiro[chroman-4,5'-oxazolidine]-2',4'-dione
@<TRIPOS>ATOM
      1 C1         -0.0167    1.3792    0.0096 C.ar      1 <0>        -0.0527
      2 C2          1.1698    2.0842    0.0021 C.ar      1 <0>        -0.1346
      3 C3          2.3852    1.4094   -0.0120 C.ar      1 <0>         0.1737
      4 C4          2.4020    0.0239   -0.0158 C.ar      1 <0>        -0.1715
      5 C5          1.2089   -0.6783   -0.0112 C.ar      1 <0>        -0.0509
      6 C6          0.0021   -0.0041    0.0020 C.ar      1 <0>        -0.0673
      7 Cl1        -1.4891   -0.8928    0.0085 Cl        1 <0>        -0.0559
      8 C7          3.6982   -0.7371   -0.0185 C.3       1 <0>         0.1175
      9 C8          4.8547    0.1681   -0.4323 C.3       1 <0>        -0.1565
     10 C9          4.7455    1.4818    0.3536 C.3       1 <0>         0.0576
     11 O1          3.5333    2.1355   -0.0243 O.3       1 <0>        -0.3012
     12 C10         3.9601   -1.3354    1.3443 C.2       1 <0>         0.5146
     13 O2          4.1039   -0.7421    2.3917 O.2       1 <0>        -0.4356
     14 N1          3.9996   -2.6701    1.1485 N.am      1 <0>        -0.6975
     15 C11         3.8002   -2.9785   -0.1393 C.2       1 <0>         0.6542
     16 O3          3.7906   -4.1147   -0.5684 O.2       1 <0>        -0.4635
     17 O4          3.6113   -1.8886   -0.9035 O.3       1 <0>        -0.2855
     18 H1         -0.9589    1.9069    0.0170 H         1 <0>         0.1496
     19 H2          1.1539    3.1641    0.0072 H         1 <0>         0.1522
     20 H3          1.2210   -1.7582   -0.0177 H         1 <0>         0.1331
     21 H4          5.8091   -0.3290   -0.2043 H         1 <0>         0.1055
     22 H5          4.7948    0.3691   -1.5121 H         1 <0>         0.1160
     23 H6          4.7347    1.2642    1.4318 H         1 <0>         0.0882
     24 H7          5.6075    2.1230    0.1176 H         1 <0>         0.1325
     25 H8          4.1788   -3.3455    1.9980 H         1 <0>         0.4781
@<TRIPOS>BOND
     1    1    6 ar
     2    1    2 ar
     3    1   18 1
     4    2    3 ar
     5    2   19 1
     6    3   11 1
     7    3    4 ar
     8    4    5 ar
     9    4    8 1
    10    5    6 ar
    11    5   20 1
    12    6    7 1
    13    8   17 1
    14    8    9 1
    15    8   12 1
    16    9   10 1
    17    9   21 1
    18    9   22 1
    19   10   11 1
    20   10   23 1
    21   10   24 1
    22   12   13 2
    23   12   14 am
    24   14   15 am
    25   14   25 1
    26   15   16 2
    27   15   17 1
@<TRIPOS>MOLECULE
ZINC05766573
   30    32     0     0     0
SMALL
USER_CHARGES
2-(2-methyl-3-oxo-phenalen-1-yl)acetic acid
@<TRIPOS>ATOM
      1 C1          0.8770    3.4580    1.2873 C.3       1 <0>        -0.0985
      2 C2         -0.2950    2.7023    1.8586 C.2       1 <0>        -0.2192
      3 C3         -0.8501    1.6973    1.1431 C.2       1 <0>         0.0585
      4 C4         -1.9825    0.9425    1.6718 C.ar      1 <0>        -0.0564
      5 C5         -2.5608   -0.0997    0.9450 C.ar      1 <0>        -0.0560
      6 C6         -3.6355   -0.8030    1.4655 C.ar      1 <0>        -0.1241
      7 C7         -4.1586   -0.4977    2.7021 C.ar      1 <0>        -0.0875
      8 C8         -3.6026    0.5454    3.4630 C.ar      1 <0>        -0.0700
      9 C9         -2.5071    1.2696    2.9424 C.ar      1 <0>        -0.0095
     10 C10        -1.9380    2.3200    3.6928 C.ar      1 <0>        -0.1530
     11 C11        -2.4646    2.6312    4.9424 C.ar      1 <0>        -0.0365
     12 C12        -3.5408    1.9141    5.4455 C.ar      1 <0>        -0.1432
     13 C13        -4.1100    0.8861    4.7292 C.ar      1 <0>        -0.0657
     14 C14        -0.7990    3.0603    3.1300 C.2       1 <0>         0.4321
     15 O1         -0.2887    3.9729    3.7584 O.2       1 <0>        -0.4774
     16 C15        -0.2895    1.3490   -0.2116 C.3       1 <0>        -0.1476
     17 C16         0.7442    0.2625   -0.0633 C.2       1 <0>         0.4707
     18 O2          0.9995   -0.1833    1.0303 O.co2     1 <0>        -0.6246
     19 H1          0.5141    4.2528    0.6356 H         1 <0>         0.0624
     20 H2          1.4602    3.8920    2.0995 H         1 <0>         0.0678
     21 H3          1.5044    2.7758    0.7137 H         1 <0>         0.0725
     22 H4         -2.1690   -0.3590   -0.0275 H         1 <0>         0.1369
     23 H5         -4.0711   -1.6064    0.8901 H         1 <0>         0.1303
     24 H6         -4.9966   -1.0596    3.0874 H         1 <0>         0.1307
     25 H7         -2.0344    3.4340    5.5228 H         1 <0>         0.1364
     26 H8         -3.9393    2.1677    6.4167 H         1 <0>         0.1299
     27 H9         -4.9471    0.3411    5.1397 H         1 <0>         0.1319
     28 H10         0.1728    2.2326   -0.6517 H         1 <0>         0.0905
     29 H11        -1.0939    0.9993   -0.8588 H         1 <0>         0.0827
     30 O3          1.3813   -0.2101   -1.1461 O.co2     1 <0>        -0.7642
@<TRIPOS>BOND
     1    1    2 1
     2    1   19 1
     3    1   20 1
     4    1   21 1
     5    2   14 1
     6    2    3 2
     7    3    4 1
     8    3   16 1
     9    4    9 ar
    10    4    5 ar
    11    5    6 ar
    12    5   22 1
    13    6    7 ar
    14    6   23 1
    15    7    8 ar
    16    7   24 1
    17    8   13 ar
    18    8    9 ar
    19    9   10 ar
    20   10   11 ar
    21   10   14 1
    22   11   12 ar
    23   11   25 1
    24   12   13 ar
    25   12   26 1
    26   13   27 1
    27   14   15 2
    28   16   17 1
    29   16   28 1
    30   16   29 1
    31   17   18 2
    32   17   30 1
@<TRIPOS>MOLECULE
ZINC13758870
   31    32     0     0     0
SMALL
USER_CHARGES
2-[(5Z)-5-[(4-hydroxy-3-methoxy-phenyl)methylene]-2,4-dioxo-thiazolidin-3-yl]acetic acid
@<TRIPOS>ATOM
      1 C1          4.7447    0.7000    1.4415 C.3       1 <0>         0.0185
      2 O1          4.5442    2.1113    1.3410 O.3       1 <0>        -0.3056
      3 C2          3.3092    2.5338    0.9594 C.ar      1 <0>         0.1073
      4 C3          2.3158    1.6120    0.6942 C.ar      1 <0>        -0.1742
      5 C4          1.0469    2.0508    0.2964 C.ar      1 <0>        -0.0484
      6 C5          0.7899    3.4223    0.1802 C.ar      1 <0>        -0.1047
      7 C6          1.7857    4.3344    0.4519 C.ar      1 <0>        -0.1105
      8 C7          3.0450    3.8978    0.8412 C.ar      1 <0>         0.0895
      9 O2          4.0227    4.8024    1.1083 O.3       1 <0>        -0.4849
     10 C8         -0.0126    1.0758    0.0080 C.2       1 <0>         0.0407
     11 C9          0.2813   -0.2478   -0.0522 C.2       1 <0>        -0.1749
     12 C10        -0.6247   -1.4096   -0.1482 C.2       1 <0>         0.5588
     13 O3         -1.8338   -1.2761   -0.1851 O.2       1 <0>        -0.4664
     14 N1         -0.0559   -2.6027   -0.1916 N.am      1 <0>        -0.5490
     15 C11         1.2843   -2.7463   -0.1496 C.2       1 <0>         0.5507
     16 O4          1.9354   -3.7733   -0.1800 O.2       1 <0>        -0.4182
     17 S1          1.8720   -1.0634   -0.0449 S.3       1 <0>        -0.0783
     18 C12        -0.9010   -3.7956   -0.2871 C.3       1 <0>         0.0469
     19 C13        -1.1386   -4.1281   -1.7376 C.2       1 <0>         0.4591
     20 O5         -0.6520   -3.4394   -2.6028 O.co2     1 <0>        -0.6258
     21 H1          4.5637    0.2373    0.4713 H         1 <0>         0.0617
     22 H2          5.7696    0.4999    1.7538 H         1 <0>         0.1046
     23 H3          4.0537    0.2862    2.1759 H         1 <0>         0.0596
     24 H4          2.5180    0.5554    0.7898 H         1 <0>         0.1497
     25 H5         -0.1885    3.7648   -0.1227 H         1 <0>         0.1404
     26 H6          1.5863    5.3921    0.3623 H         1 <0>         0.1424
     27 H7          4.0525    5.0883    2.0316 H         1 <0>         0.3881
     28 H8         -1.0265    1.4117   -0.1519 H         1 <0>         0.1662
     29 H9         -0.4033   -4.6335    0.2010 H         1 <0>         0.1024
     30 H10        -1.8558   -3.6046    0.2030 H         1 <0>         0.1066
     31 O6         -1.8909   -5.1895   -2.0683 O.co2     1 <0>        -0.7523
@<TRIPOS>BOND
     1    1    2 1
     2    1   21 1
     3    1   22 1
     4    1   23 1
     5    2    3 1
     6    3    8 ar
     7    3    4 ar
     8    4    5 ar
     9    4   24 1
    10    5    6 ar
    11    5   10 1
    12    6    7 ar
    13    6   25 1
    14    7    8 ar
    15    7   26 1
    16    8    9 1
    17    9   27 1
    18   10   11 2
    19   10   28 1
    20   11   17 1
    21   11   12 1
    22   12   13 2
    23   12   14 am
    24   14   15 am
    25   14   18 1
    26   15   16 2
    27   15   17 1
    28   18   19 1
    29   18   29 1
    30   18   30 1
    31   19   20 2
    32   19   31 1
@<TRIPOS>MOLECULE
ZINC16989176
   24    25     0     0     0
SMALL
USER_CHARGES
(5Z)-5-[(3-methoxyphenyl)methylene]-2-thioxo-thiazolidin-4-one
@<TRIPOS>ATOM
      1 C1         -0.1335    1.4210   -0.1683 C.3       1 <0>         0.0245
      2 O1         -0.8454    1.9284    0.9620 O.3       1 <0>        -0.3118
      3 C2         -2.0244    1.3265    1.2697 C.ar      1 <0>         0.1304
      4 C3         -2.4854    0.2678    0.4972 C.ar      1 <0>        -0.2067
      5 C4         -3.6842   -0.3499    0.8040 C.ar      1 <0>        -0.0862
      6 C5         -4.4322    0.0808    1.8797 C.ar      1 <0>        -0.1357
      7 C6         -3.9773    1.1462    2.6645 C.ar      1 <0>        -0.0249
      8 C7         -2.7616    1.7649    2.3553 C.ar      1 <0>        -0.1378
      9 C8         -4.7705    1.6089    3.8125 C.2       1 <0>        -0.0135
     10 C9         -4.4191    2.7441    4.4660 C.2       1 <0>        -0.1905
     11 C10        -4.9596    3.3172    5.7173 C.2       1 <0>         0.5281
     12 O2         -5.8548    2.7726    6.3359 O.3       1 <0>        -0.5009
     13 N1         -4.4197    4.4517    6.1297 N.2       1 <0>        -0.6504
     14 C11        -3.4275    5.0515    5.4412 C.2       1 <0>         0.3719
     15 S1         -2.6078    6.5085    5.8102 S.2       1 <0>        -0.5675
     16 S2         -3.1697    3.9550    4.0558 S.3       1 <0>        -0.1292
     17 H1          0.7957    1.9940   -0.3038 H         1 <0>         0.1008
     18 H2         -0.7583    1.5173   -1.0685 H         1 <0>         0.0546
     19 H3          0.1101    0.3612   -0.0026 H         1 <0>         0.0542
     20 H4         -1.9051   -0.0741   -0.3470 H         1 <0>         0.1268
     21 H5         -4.0360   -1.1723    0.1988 H         1 <0>         0.1258
     22 H6         -5.3678   -0.4040    2.1162 H         1 <0>         0.1290
     23 H7         -2.4018    2.5849    2.9591 H         1 <0>         0.1541
     24 H8         -5.6490    1.0344    4.1414 H         1 <0>         0.1546
@<TRIPOS>BOND
     1    1    2 1
     2    1   17 1
     3    1   18 1
     4    1   19 1
     5    2    3 1
     6    3    8 ar
     7    3    4 ar
     8    4    5 ar
     9    4   20 1
    10    5    6 ar
    11    5   21 1
    12    6    7 ar
    13    6   22 1
    14    7    8 ar
    15    7    9 1
    16    8   23 1
    17    9   10 2
    18    9   24 1
    19   10   16 1
    20   10   11 1
    21   11   12 1
    22   11   13 2
    23   13   14 1
    24   14   15 2
    25   14   16 1
@<TRIPOS>MOLECULE
ZINC03780343
   37    38     0     0     0
SMALL
USER_CHARGES

@<TRIPOS>ATOM
      1 C1          2.4337   -0.6161   -1.2464 C.3       1 <0>         0.0561
      2 N1          1.1760   -1.0005   -0.6009 N.pl3     1 <0>        -0.4647
      3 C2          1.1956   -1.8358    0.6025 C.3       1 <0>         0.0136
      4 C3          1.2610   -0.9556    1.8240 C.2       1 <0>         0.5006
      5 O1          1.2886    0.2571    1.7007 O.co2     1 <0>        -0.6791
      6 O2          1.2863   -1.4562    2.9354 O.co2     1 <0>        -0.6856
      7 C4          0.0008   -0.5856   -1.1141 C.2       1 <0>         0.3683
      8 S1         -1.4605   -0.9226   -0.2883 S.2       1 <0>        -0.5802
      9 C5         -0.0262    0.1575   -2.3849 C.ar      1 <0>        -0.0334
     10 C6          0.1653    1.5335   -2.4062 C.ar      1 <0>        -0.0908
     11 C7          0.1393    2.2316   -3.6056 C.ar      1 <0>        -0.0750
     12 C8         -0.0720    1.6062   -4.7961 C.ar      1 <0>        -0.1240
     13 C9         -0.2731    0.2166   -4.8500 C.ar      1 <0>         0.0285
     14 C10        -0.2489   -0.5377   -3.6510 C.ar      1 <0>        -0.0605
     15 C11        -0.4428   -1.9239   -3.6991 C.ar      1 <0>        -0.0158
     16 C12        -0.6474   -2.5353   -4.8989 C.ar      1 <0>        -0.2023
     17 C13        -0.6665   -1.7970   -6.0856 C.ar      1 <0>         0.1946
     18 C14        -0.4927   -0.4420   -6.0714 C.ar      1 <0>        -0.2313
     19 C15        -0.5163    0.3389   -7.3601 C.3       1 <0>         0.5200
     20 F1          0.6708    1.0685   -7.4851 F         1 <0>        -0.1789
     21 F2         -0.6365   -0.5444   -8.4384 F         1 <0>        -0.1637
     22 F3         -1.6050    1.2174   -7.3533 F         1 <0>        -0.1779
     23 O3         -0.8728   -2.4340   -7.2681 O.3       1 <0>        -0.2991
     24 C16        -1.0609   -3.8497   -7.2182 C.3       1 <0>         0.0201
     25 H1          2.7474   -1.4053   -1.9297 H         1 <0>         0.0700
     26 H2          2.2883    0.3098   -1.8029 H         1 <0>         0.0820
     27 H3          3.2011   -0.4668   -0.4869 H         1 <0>         0.0912
     28 H4          0.2902   -2.4415    0.6391 H         1 <0>         0.1126
     29 H5          2.0685   -2.4882    0.5776 H         1 <0>         0.0861
     30 H6          0.3354    2.0646   -1.4813 H         1 <0>         0.1406
     31 H7          0.2906    3.3009   -3.5941 H         1 <0>         0.1360
     32 H8         -0.0855    2.1840   -5.7084 H         1 <0>         0.1314
     33 H9         -0.4298   -2.5054   -2.7891 H         1 <0>         0.1394
     34 H10        -0.7963   -3.6044   -4.9338 H         1 <0>         0.1441
     35 H11        -1.2149   -4.2316   -8.2275 H         1 <0>         0.1051
     36 H12        -0.1782   -4.3184   -6.7832 H         1 <0>         0.0604
     37 H13        -1.9330   -4.0791   -6.6060 H         1 <0>         0.0615
@<TRIPOS>BOND
     1    1    2 1
     2    1   25 1
     3    1   26 1
     4    1   27 1
     5    2    3 1
     6    2    7 1
     7    3    4 1
     8    3   28 1
     9    3   29 1
    10    4    5 2
    11    4    6 1
    12    7    8 2
    13    7    9 1
    14    9   14 ar
    15    9   10 ar
    16   10   11 ar
    17   10   30 1
    18   11   12 ar
    19   11   31 1
    20   12   13 ar
    21   12   32 1
    22   13   18 ar
    23   13   14 ar
    24   14   15 ar
    25   15   16 ar
    26   15   33 1
    27   16   17 ar
    28   16   34 1
    29   17   18 ar
    30   17   23 1
    31   18   19 1
    32   19   20 1
    33   19   21 1
    34   19   22 1
    35   23   24 1
    36   24   35 1
    37   24   36 1
    38   24   37 1
@<TRIPOS>MOLECULE
ZINC01452720
   27    29     0     0     0
SMALL
USER_CHARGES
5-(1-naphthylmethylene)-2-thioxo-thiazolidin-4-one
@<TRIPOS>ATOM
      1 C1          1.2347    2.0548   -0.4768 C.ar      1 <0>        -0.1175
      2 C2          0.0402    1.3404   -0.4293 C.ar      1 <0>        -0.0954
      3 C3          0.0408   -0.0170   -0.2981 C.ar      1 <0>        -0.1199
      4 C4          1.2569   -0.7027   -0.2100 C.ar      1 <0>        -0.0169
      5 C5          2.4737    0.0203   -0.2580 C.ar      1 <0>        -0.0614
      6 C6          2.4359    1.4188   -0.3933 C.ar      1 <0>        -0.0943
      7 C7          3.6931   -0.6723   -0.1701 C.ar      1 <0>        -0.0620
      8 C8          3.7159   -2.0280   -0.0401 C.ar      1 <0>        -0.1275
      9 C9          2.5509   -2.7785    0.0110 C.ar      1 <0>        -0.0606
     10 C10         1.3057   -2.1586   -0.0690 C.ar      1 <0>        -0.1011
     11 C11         0.0721   -2.9471   -0.0145 C.2       1 <0>         0.1008
     12 C12         0.0971   -4.2151    0.4743 C.2       1 <0>        -0.2546
     13 C13        -0.9685   -5.2378    0.4941 C.2       1 <0>         0.5470
     14 O1         -2.0727   -5.0197    0.0310 O.2       1 <0>        -0.4591
     15 N1         -0.6617   -6.4024    1.0401 N.am      1 <0>        -0.6279
     16 C14         0.5631   -6.6398    1.5520 C.2       1 <0>         0.2646
     17 S1          1.1468   -8.0682    2.2937 S.2       1 <0>        -0.3266
     18 S2          1.4310   -5.1064    1.2628 S.3       1 <0>         0.0888
     19 H1          1.2079    3.1294   -0.5811 H         1 <0>         0.1289
     20 H2         -0.8993    1.8681   -0.5017 H         1 <0>         0.1297
     21 H3         -0.8924   -0.5596   -0.2628 H         1 <0>         0.1305
     22 H4          3.3543    1.9858   -0.4312 H         1 <0>         0.1335
     23 H5          4.6227   -0.1237   -0.2064 H         1 <0>         0.1361
     24 H6          4.6684   -2.5329    0.0248 H         1 <0>         0.1358
     25 H7          2.6092   -3.8519    0.1147 H         1 <0>         0.1349
     26 H8         -0.8570   -2.5208   -0.3628 H         1 <0>         0.1642
     27 H9         -1.3330   -7.1018    1.0734 H         1 <0>         0.4300
@<TRIPOS>BOND
     1    1    6 ar
     2    1    2 ar
     3    1   19 1
     4    2    3 ar
     5    2   20 1
     6    3    4 ar
     7    3   21 1
     8    4   10 ar
     9    4    5 ar
    10    5    6 ar
    11    5    7 ar
    12    6   22 1
    13    7    8 ar
    14    7   23 1
    15    8    9 ar
    16    8   24 1
    17    9   10 ar
    18    9   25 1
    19   10   11 1
    20   11   12 2
    21   11   26 1
    22   12   18 1
    23   12   13 1
    24   13   14 2
    25   13   15 am
    26   15   16 1
    27   15   27 1
    28   16   17 2
    29   16   18 1
@<TRIPOS>MOLECULE
ZINC40393143
   38    40     0     0     0
SMALL
USER_CHARGES

@<TRIPOS>ATOM
      1 C1         -0.0167    1.3795    0.0096 C.ar      1 <0>        -0.0923
      2 C2          1.1683    2.0940    0.0021 C.ar      1 <0>        -0.1227
      3 C3          2.3774    1.4303   -0.0130 C.ar      1 <0>        -0.0792
      4 C4          2.4038    0.0341   -0.0208 C.ar      1 <0>        -0.0752
      5 C5          1.2040   -0.6806   -0.0131 C.ar      1 <0>        -0.0799
      6 C6          0.0021   -0.0041    0.0020 C.ar      1 <0>        -0.1206
      7 C7          3.6945   -0.6834   -0.0374 C.2       1 <0>         0.2071
      8 C8          3.6865   -2.0422   -0.0503 C.2       1 <0>        -0.3096
      9 C9          4.9147   -2.7475   -0.0669 C.2       1 <0>         0.4250
     10 O1          4.9453   -3.9673   -0.0791 O.2       1 <0>        -0.4559
     11 C10         6.1531   -1.9509   -0.0693 C.ar      1 <0>        -0.2880
     12 C11         7.4124   -2.5640   -0.0858 C.ar      1 <0>         0.2450
     13 C12         8.5511   -1.7802   -0.0879 C.ar      1 <0>        -0.2690
     14 C13         8.4449   -0.3935   -0.0739 C.ar      1 <0>         0.2096
     15 C14         7.2019    0.2199   -0.0571 C.ar      1 <0>        -0.1863
     16 C15         6.0486   -0.5493   -0.0551 C.ar      1 <0>         0.2073
     17 O2          4.8303    0.0319   -0.0449 O.3       1 <0>        -0.2163
     18 O3          9.5695    0.3668   -0.0761 O.3       1 <0>        -0.3006
     19 C16        10.8200   -0.3246   -0.0933 C.3       1 <0>         0.0653
     20 C17        11.9643    0.6910   -0.0933 C.3       1 <0>         0.0301
     21 O4         11.9530    1.4214    1.1349 O.3       1 <0>        -0.2203
     22 N1         12.9782    2.3927    1.2368 N.pl3     1 <0>         0.1287
     23 O5         13.7625    2.5414    0.3289 O.2       1 <0>        -0.1264
     24 O6         13.0693    3.0734    2.2318 O.3       1 <0>        -0.0675
     25 O7          7.5139   -3.9173   -0.0990 O.3       1 <0>        -0.4726
     26 H1         -0.9606    1.9042    0.0260 H         1 <0>         0.1310
     27 H2          1.1464    3.1738    0.0078 H         1 <0>         0.1328
     28 H3          3.3016    1.9892   -0.0192 H         1 <0>         0.1351
     29 H4          1.2173   -1.7605   -0.0194 H         1 <0>         0.1360
     30 H5         -0.9265   -0.5555    0.0079 H         1 <0>         0.1348
     31 H6          2.7503   -2.5805   -0.0475 H         1 <0>         0.1640
     32 H7          9.5256   -2.2457   -0.1002 H         1 <0>         0.1483
     33 H8          7.1320    1.2975   -0.0459 H         1 <0>         0.1560
     34 H9         10.8968   -0.9585    0.7901 H         1 <0>         0.0894
     35 H10        10.8818   -0.9416   -0.9897 H         1 <0>         0.1103
     36 H11        12.9148    0.1674   -0.1958 H         1 <0>         0.1165
     37 H12        11.8377    1.3810   -0.9275 H         1 <0>         0.1050
     38 H13         7.5357   -4.3014   -0.9862 H         1 <0>         0.4048
@<TRIPOS>BOND
     1    1    6 ar
     2    1    2 ar
     3    1   26 1
     4    2    3 ar
     5    2   27 1
     6    3    4 ar
     7    3   28 1
     8    4    5 ar
     9    4    7 1
    10    5    6 ar
    11    5   29 1
    12    6   30 1
    13    7   17 1
    14    7    8 2
    15    8    9 1
    16    8   31 1
    17    9   10 2
    18    9   11 1
    19   11   16 ar
    20   11   12 ar
    21   12   13 ar
    22   12   25 1
    23   13   14 ar
    24   13   32 1
    25   14   15 ar
    26   14   18 1
    27   15   16 ar
    28   15   33 1
    29   16   17 1
    30   18   19 1
    31   19   20 1
    32   19   34 1
    33   19   35 1
    34   20   21 1
    35   20   36 1
    36   20   37 1
    37   21   22 1
    38   22   23 2
    39   22   24 1
    40   25   38 1
@<TRIPOS>MOLECULE
ZINC13862789
   39    41     0     0     0
SMALL
USER_CHARGES
4-[(2-amino-4-hydroxy-pteridin-6-yl)methyl-(2,2,2-trifluoroacetyl)amino]benzoic acid
@<TRIPOS>ATOM
      1 C1         -0.7127    0.9606    0.0564 C.ar      1 <0>        -0.0631
      2 C2         -0.4153   -0.3832    0.0529 C.ar      1 <0>        -0.1715
      3 C3          0.9110   -0.8040    0.0439 C.ar      1 <0>         0.1223
      4 C4          1.9411    0.1314    0.0380 C.ar      1 <0>        -0.1687
      5 C5          1.6511    1.4770    0.0420 C.ar      1 <0>        -0.0521
      6 C6          0.3197    1.9033    0.0511 C.ar      1 <0>        -0.1217
      7 C7          0.0051    3.3441    0.0544 C.2       1 <0>         0.4886
      8 O1         -1.1526    3.7130    0.0618 O.co2     1 <0>        -0.6304
      9 O2          1.0013    4.2512    0.0493 O.co2     1 <0>        -0.7540
     10 N1          1.2085   -2.1661    0.0403 N.am      1 <0>        -0.5140
     11 C8          2.5936   -2.6129   -0.1277 C.3       1 <0>         0.1430
     12 C9          2.9349   -2.6502   -1.5951 C.ar      1 <0>         0.0073
     13 C10         3.5716   -1.5574   -2.1838 C.ar      1 <0>         0.1849
     14 N2          3.8652   -1.5611   -3.4665 N.ar      1 <0>        -0.4374
     15 C11         3.5697   -2.6323   -4.2077 C.ar      1 <0>         0.3714
     16 C12         2.9276   -3.7423   -3.6047 C.ar      1 <0>        -0.0639
     17 N3          2.6295   -3.7126   -2.3076 N.ar      1 <0>        -0.3169
     18 C13         2.6209   -4.8632   -4.4177 C.2       1 <0>         0.5325
     19 N4          2.9482   -4.8195   -5.6975 N.am      1 <0>        -0.6214
     20 C14         3.5549   -3.7580   -6.2225 C.2       1 <0>         0.6600
     21 N5          3.8631   -2.6889   -5.5128 N.2       1 <0>        -0.5656
     22 N6          3.8754   -3.7757   -7.5665 N.pl3     1 <0>        -0.8399
     23 O3          2.0051   -5.9491   -3.8970 O.2       1 <0>        -0.5408
     24 C15         0.2219   -3.0717    0.1913 C.2       1 <0>         0.4813
     25 O4         -0.9342   -2.7076    0.2343 O.2       1 <0>        -0.4510
     26 C16         0.5551   -4.5368    0.3067 C.3       1 <0>         0.4422
     27 F1         -0.6280   -5.2817    0.3566 F         1 <0>        -0.1550
     28 F2          1.3088   -4.9325   -0.8036 F         1 <0>        -0.1311
     29 F3          1.2941   -4.7565    1.4742 F         1 <0>        -0.1700
     30 H1         -1.7424    1.2865    0.0589 H         1 <0>         0.1329
     31 H2         -1.2123   -1.1121    0.0574 H         1 <0>         0.1728
     32 H3          2.9694   -0.1987    0.0307 H         1 <0>         0.1217
     33 H4          2.4512    2.2025    0.0379 H         1 <0>         0.1396
     34 H5          3.2692   -1.9148    0.3882 H         1 <0>         0.1288
     35 H6          2.7089   -3.6192    0.3013 H         1 <0>         0.1162
     36 H7          3.7976   -0.7620   -1.6215 H         1 <0>         0.1682
     37 H8          3.6287   -4.6554   -8.1792 H         1 <0>         0.4404
     38 H9          2.7086   -5.6856   -6.3319 H         1 <0>         0.4531
     39 H10         4.3772   -2.9102   -8.0237 H         1 <0>         0.4613
@<TRIPOS>BOND
     1    1    6 ar
     2    1    2 ar
     3    1   30 1
     4    2    3 ar
     5    2   31 1
     6    3    4 ar
     7    3   10 1
     8    4    5 ar
     9    4   32 1
    10    5    6 ar
    11    5   33 1
    12    6    7 1
    13    7    8 2
    14    7    9 1
    15   10   11 1
    16   10   24 am
    17   11   34 1
    18   11   35 1
    19   11   12 1
    20   12   17 ar
    21   12   13 ar
    22   13   36 1
    23   13   14 ar
    24   14   15 ar
    25   15   16 ar
    26   15   21 1
    27   16   18 1
    28   16   17 ar
    29   18   23 2
    30   18   19 am
    31   19   20 1
    32   19   38 1
    33   20   21 2
    34   20   22 1
    35   22   37 1
    36   22   39 1
    37   24   25 2
    38   24   26 1
    39   26   27 1
    40   26   28 1
    41   26   29 1
@<TRIPOS>MOLECULE
ZINC40892292
   50    52     0     0     0
SMALL
USER_CHARGES

@<TRIPOS>ATOM
      1 C1         -0.0167    1.3795    0.0096 C.ar      1 <0>        -0.0931
      2 C2          1.1683    2.0940    0.0021 C.ar      1 <0>        -0.1229
      3 C3          2.3774    1.4303   -0.0130 C.ar      1 <0>        -0.0795
      4 C4          2.4038    0.0341   -0.0208 C.ar      1 <0>        -0.0742
      5 C5          1.2040   -0.6806   -0.0131 C.ar      1 <0>        -0.0804
      6 C6          0.0021   -0.0041    0.0020 C.ar      1 <0>        -0.1207
      7 C7          3.6945   -0.6834   -0.0374 C.2       1 <0>         0.2062
      8 C8          3.6865   -2.0422   -0.0503 C.2       1 <0>        -0.3099
      9 C9          4.9147   -2.7475   -0.0669 C.2       1 <0>         0.4250
     10 O1          4.9453   -3.9673   -0.0791 O.2       1 <0>        -0.4579
     11 C10         6.1531   -1.9509   -0.0693 C.ar      1 <0>        -0.2916
     12 C11         7.4124   -2.5640   -0.0858 C.ar      1 <0>         0.2430
     13 C12         8.5511   -1.7802   -0.0879 C.ar      1 <0>        -0.2688
     14 C13         8.4449   -0.3935   -0.0739 C.ar      1 <0>         0.2131
     15 C14         7.2019    0.2199   -0.0571 C.ar      1 <0>        -0.1910
     16 C15         6.0486   -0.5493   -0.0551 C.ar      1 <0>         0.2056
     17 O2          4.8303    0.0319   -0.0449 O.3       1 <0>        -0.2169
     18 O3          9.5695    0.3668   -0.0761 O.3       1 <0>        -0.3013
     19 C16        10.8200   -0.3246   -0.0933 C.3       1 <0>         0.0541
     20 C17        11.9643    0.6910   -0.0933 C.3       1 <0>        -0.1198
     21 C18        13.3032   -0.0493   -0.1116 C.3       1 <0>        -0.1163
     22 C19        14.4475    0.9663   -0.1116 C.3       1 <0>        -0.1145
     23 C20        15.7864    0.2260   -0.1299 C.3       1 <0>        -0.1114
     24 C21        16.9307    1.2416   -0.1299 C.3       1 <0>         0.0260
     25 O4         18.1812    0.5501   -0.1471 O.3       1 <0>        -0.2252
     26 N1         19.3112    1.4035   -0.1485 N.pl3     1 <0>         0.1280
     27 O5         19.1626    2.6033   -0.1358 O.2       1 <0>        -0.1288
     28 O6         20.4245    0.9323   -0.1624 O.3       1 <0>        -0.0742
     29 O7          7.5139   -3.9173   -0.0990 O.3       1 <0>        -0.4738
     30 H1         -0.9606    1.9042    0.0260 H         1 <0>         0.1307
     31 H2          1.1464    3.1738    0.0078 H         1 <0>         0.1325
     32 H3          3.3016    1.9892   -0.0192 H         1 <0>         0.1353
     33 H4          1.2173   -1.7605   -0.0194 H         1 <0>         0.1359
     34 H5         -0.9265   -0.5555    0.0079 H         1 <0>         0.1345
     35 H6          2.7503   -2.5805   -0.0475 H         1 <0>         0.1630
     36 H7          9.5256   -2.2457   -0.1002 H         1 <0>         0.1477
     37 H8          7.1320    1.2975   -0.0459 H         1 <0>         0.1549
     38 H9         10.8968   -0.9585    0.7901 H         1 <0>         0.0702
     39 H10        10.8818   -0.9416   -0.9897 H         1 <0>         0.0695
     40 H11        11.8875    1.3249   -0.9766 H         1 <0>         0.0787
     41 H12        11.9025    1.3080    0.8032 H         1 <0>         0.0788
     42 H13        13.3800   -0.6832    0.7718 H         1 <0>         0.0711
     43 H14        13.3650   -0.6663   -1.0080 H         1 <0>         0.0708
     44 H15        14.3707    1.6002   -0.9950 H         1 <0>         0.0740
     45 H16        14.3857    1.5833    0.7848 H         1 <0>         0.0740
     46 H17        15.8632   -0.4079    0.7535 H         1 <0>         0.0824
     47 H18        15.8482   -0.3910   -1.0264 H         1 <0>         0.0823
     48 H19        16.8539    1.8755   -1.0133 H         1 <0>         0.0905
     49 H20        16.8689    1.8586    0.7665 H         1 <0>         0.0906
     50 H21         7.5357   -4.3014   -0.9862 H         1 <0>         0.4038
@<TRIPOS>BOND
     1    1    6 ar
     2    1    2 ar
     3    1   30 1
     4    2    3 ar
     5    2   31 1
     6    3    4 ar
     7    3   32 1
     8    4    5 ar
     9    4    7 1
    10    5    6 ar
    11    5   33 1
    12    6   34 1
    13    7   17 1
    14    7    8 2
    15    8    9 1
    16    8   35 1
    17    9   10 2
    18    9   11 1
    19   11   16 ar
    20   11   12 ar
    21   12   13 ar
    22   12   29 1
    23   13   14 ar
    24   13   36 1
    25   14   15 ar
    26   14   18 1
    27   15   16 ar
    28   15   37 1
    29   16   17 1
    30   18   19 1
    31   19   20 1
    32   19   38 1
    33   19   39 1
    34   20   21 1
    35   20   40 1
    36   20   41 1
    37   21   22 1
    38   21   42 1
    39   21   43 1
    40   22   23 1
    41   22   44 1
    42   22   45 1
    43   23   24 1
    44   23   46 1
    45   23   47 1
    46   24   25 1
    47   24   48 1
    48   24   49 1
    49   25   26 1
    50   26   27 2
    51   26   28 1
    52   29   50 1
@<TRIPOS>MOLECULE
ZINC40891709
   44    46     0     0     0
SMALL
USER_CHARGES

@<TRIPOS>ATOM
      1 C1         -0.0167    1.3795    0.0096 C.ar      1 <0>        -0.0928
      2 C2          1.1683    2.0940    0.0021 C.ar      1 <0>        -0.1229
      3 C3          2.3774    1.4303   -0.0130 C.ar      1 <0>        -0.0794
      4 C4          2.4038    0.0341   -0.0208 C.ar      1 <0>        -0.0745
      5 C5          1.2040   -0.6806   -0.0131 C.ar      1 <0>        -0.0803
      6 C6          0.0021   -0.0041    0.0020 C.ar      1 <0>        -0.1207
      7 C7          3.6945   -0.6834   -0.0374 C.2       1 <0>         0.2065
      8 C8          3.6865   -2.0422   -0.0503 C.2       1 <0>        -0.3097
      9 C9          4.9147   -2.7475   -0.0669 C.2       1 <0>         0.4248
     10 O1          4.9453   -3.9673   -0.0791 O.2       1 <0>        -0.4572
     11 C10         6.1531   -1.9509   -0.0693 C.ar      1 <0>        -0.2905
     12 C11         7.4124   -2.5640   -0.0858 C.ar      1 <0>         0.2434
     13 C12         8.5511   -1.7802   -0.0879 C.ar      1 <0>        -0.2688
     14 C13         8.4449   -0.3935   -0.0739 C.ar      1 <0>         0.2122
     15 C14         7.2019    0.2199   -0.0571 C.ar      1 <0>        -0.1897
     16 C15         6.0486   -0.5493   -0.0551 C.ar      1 <0>         0.2059
     17 O2          4.8303    0.0319   -0.0449 O.3       1 <0>        -0.2168
     18 O3          9.5695    0.3668   -0.0761 O.3       1 <0>        -0.3003
     19 C16        10.8200   -0.3246   -0.0933 C.3       1 <0>         0.0567
     20 C17        11.9643    0.6910   -0.0933 C.3       1 <0>        -0.1159
     21 C18        13.3032   -0.0493   -0.1116 C.3       1 <0>        -0.1087
     22 C19        14.4475    0.9663   -0.1116 C.3       1 <0>         0.0282
     23 O4         15.6980    0.2749   -0.1287 O.3       1 <0>        -0.2254
     24 N1         16.8280    1.1282   -0.1301 N.pl3     1 <0>         0.1283
     25 O5         16.6794    2.3280   -0.1175 O.2       1 <0>        -0.1265
     26 O6         17.9413    0.6570   -0.1440 O.3       1 <0>        -0.0717
     27 O7          7.5139   -3.9173   -0.0990 O.3       1 <0>        -0.4736
     28 H1         -0.9606    1.9042    0.0260 H         1 <0>         0.1308
     29 H2          1.1464    3.1738    0.0078 H         1 <0>         0.1326
     30 H3          3.3016    1.9892   -0.0192 H         1 <0>         0.1353
     31 H4          1.2173   -1.7605   -0.0194 H         1 <0>         0.1359
     32 H5         -0.9265   -0.5555    0.0079 H         1 <0>         0.1345
     33 H6          2.7503   -2.5805   -0.0475 H         1 <0>         0.1632
     34 H7          9.5256   -2.2457   -0.1002 H         1 <0>         0.1478
     35 H8          7.1320    1.2975   -0.0459 H         1 <0>         0.1555
     36 H9         10.8968   -0.9585    0.7901 H         1 <0>         0.0737
     37 H10        10.8818   -0.9416   -0.9897 H         1 <0>         0.0731
     38 H11        11.8875    1.3249   -0.9766 H         1 <0>         0.0862
     39 H12        11.9025    1.3080    0.8032 H         1 <0>         0.0864
     40 H13        13.3800   -0.6832    0.7718 H         1 <0>         0.0870
     41 H14        13.3650   -0.6663   -1.0080 H         1 <0>         0.0867
     42 H15        14.3707    1.6002   -0.9950 H         1 <0>         0.0932
     43 H16        14.3857    1.5833    0.7848 H         1 <0>         0.0933
     44 H17         7.5357   -4.3014   -0.9862 H         1 <0>         0.4041
@<TRIPOS>BOND
     1    1    6 ar
     2    1    2 ar
     3    1   28 1
     4    2    3 ar
     5    2   29 1
     6    3    4 ar
     7    3   30 1
     8    4    5 ar
     9    4    7 1
    10    5    6 ar
    11    5   31 1
    12    6   32 1
    13    7   17 1
    14    7    8 2
    15    8    9 1
    16    8   33 1
    17    9   10 2
    18    9   11 1
    19   11   16 ar
    20   11   12 ar
    21   12   13 ar
    22   12   27 1
    23   13   14 ar
    24   13   34 1
    25   14   15 ar
    26   14   18 1
    27   15   16 ar
    28   15   35 1
    29   16   17 1
    30   18   19 1
    31   19   20 1
    32   19   36 1
    33   19   37 1
    34   20   21 1
    35   20   38 1
    36   20   39 1
    37   21   22 1
    38   21   40 1
    39   21   41 1
    40   22   23 1
    41   22   42 1
    42   22   43 1
    43   23   24 1
    44   24   25 2
    45   24   26 1
    46   27   44 1
@<TRIPOS>MOLECULE
ZINC01741717
   37    38     0     0     0
SMALL
USER_CHARGES
2-[4-[(4-fluoro-3-nitro-phenyl)carbamoylamino]phenyl]aminoacetic acid
@<TRIPOS>ATOM
      1 C1         -2.3355    1.0791    0.6108 C.ar      1 <0>        -0.1921
      2 C2         -3.5394    1.7546    0.6351 C.ar      1 <0>        -0.0821
      3 C3         -3.6483    3.0014    0.0339 C.ar      1 <0>         0.0602
      4 C4         -2.5449    3.5719   -0.5864 C.ar      1 <0>        -0.0597
      5 C5         -1.3394    2.8990   -0.6064 C.ar      1 <0>        -0.1919
      6 C6         -1.2305    1.6517   -0.0055 C.ar      1 <0>         0.2270
      7 N1         -0.0091    0.9695   -0.0260 N.pl3     1 <0>        -0.7198
      8 C7          0.1073   -0.3436    0.6131 C.3       1 <0>         0.0779
      9 C8          1.5160   -0.8556    0.4561 C.2       1 <0>         0.4584
     10 O1          2.3383   -0.1917   -0.1295 O.co2     1 <0>        -0.6331
     11 N2         -4.8723    3.6845    0.0537 N.am      1 <0>        -0.6643
     12 C9         -4.8925    5.0282    0.1563 C.2       1 <0>         0.7029
     13 O2         -3.8502    5.6544    0.1470 O.2       1 <0>        -0.5570
     14 N3         -6.0679    5.6779    0.2692 N.am      1 <0>        -0.6835
     15 C10        -6.0961    7.0781    0.2781 C.ar      1 <0>         0.1674
     16 C11        -5.0693    7.7903    0.8835 C.ar      1 <0>        -0.0385
     17 C12        -5.0958    9.1710    0.8858 C.ar      1 <0>        -0.1330
     18 C13        -6.1519    9.8452    0.2956 C.ar      1 <0>         0.1541
     19 C14        -7.1795    9.1368   -0.3036 C.ar      1 <0>        -0.0654
     20 C15        -7.1536    7.7557   -0.3134 C.ar      1 <0>        -0.0644
     21 N4         -8.3065    9.8599   -0.9345 N.pl3     1 <0>         0.0314
     22 O3         -9.2106    9.2371   -1.4621 O.2       1 <0>        -0.1557
     23 O4         -8.3298   11.0777   -0.9261 O.3       1 <0>        -0.1451
     24 F1         -6.1790   11.1959    0.3041 F         1 <0>        -0.1030
     25 H1         -2.2521    0.1072    1.0742 H         1 <0>         0.1267
     26 H2         -4.3977    1.3114    1.1182 H         1 <0>         0.1194
     27 H3         -2.6297    4.5419   -1.0536 H         1 <0>         0.1340
     28 H4         -0.4812    3.3428   -1.0889 H         1 <0>         0.1225
     29 H5          0.7617    1.3677   -0.4600 H         1 <0>         0.4089
     30 H6         -0.1308   -0.2542    1.6730 H         1 <0>         0.0663
     31 H7         -0.5868   -1.0397    0.1422 H         1 <0>         0.0665
     32 H8         -5.7046    3.1902   -0.0064 H         1 <0>         0.4049
     33 H9         -6.8944    5.1756    0.3442 H         1 <0>         0.4144
     34 H10        -4.2482    7.2649    1.3484 H         1 <0>         0.1731
     35 H11        -4.2951    9.7254    1.3526 H         1 <0>         0.1659
     36 H12        -7.9556    7.2035   -0.7806 H         1 <0>         0.1656
     37 O5          1.8571   -2.0491    0.9669 O.co2     1 <0>        -0.7592
@<TRIPOS>BOND
     1    1    6 ar
     2    1    2 ar
     3    1   25 1
     4    2    3 ar
     5    2   26 1
     6    3    4 ar
     7    3   11 1
     8    4    5 ar
     9    4   27 1
    10    5    6 ar
    11    5   28 1
    12    6    7 1
    13    7    8 1
    14    7   29 1
    15    8    9 1
    16    8   30 1
    17    8   31 1
    18    9   10 2
    19    9   37 1
    20   11   12 am
    21   11   32 1
    22   12   13 2
    23   12   14 am
    24   14   15 1
    25   14   33 1
    26   15   20 ar
    27   15   16 ar
    28   16   17 ar
    29   16   34 1
    30   17   18 ar
    31   17   35 1
    32   18   19 ar
    33   18   24 1
    34   19   20 ar
    35   19   21 1
    36   20   36 1
    37   21   22 2
    38   21   23 1
@<TRIPOS>MOLECULE
ZINC40413478
   29    30     0     0     0
SMALL
USER_CHARGES

@<TRIPOS>ATOM
      1 C1          1.1896   -0.6431   -0.4115 C.ar      1 <0>        -0.0680
      2 C2          2.3635    0.0732   -0.4735 C.ar      1 <0>        -0.1440
      3 C3          2.3669    1.4333   -0.1858 C.ar      1 <0>         0.1369
      4 C4          1.1863    2.0775    0.1659 C.ar      1 <0>        -0.1500
      5 C5          0.0067    1.3710    0.2311 C.ar      1 <0>        -0.0585
      6 C6         -0.0026    0.0007   -0.0578 C.ar      1 <0>        -0.1079
      7 C7         -1.2579   -0.7582    0.0100 C.2       1 <0>         0.0778
      8 C8         -1.2399   -2.1108   -0.0999 C.2       1 <0>        -0.2138
      9 C9         -2.3641   -3.0602   -0.2207 C.2       1 <0>         0.5659
     10 O1         -3.5210   -2.6828   -0.2347 O.2       1 <0>        -0.4691
     11 N1         -2.0503   -4.3415   -0.3134 N.am      1 <0>        -0.5625
     12 C10        -0.7669   -4.7556   -0.2974 C.2       1 <0>         0.5337
     13 O2         -0.3386   -5.8914   -0.3740 O.2       1 <0>        -0.4173
     14 S1          0.1517   -3.2319   -0.1460 S.3       1 <0>        -0.0274
     15 C11        -3.1211   -5.3338   -0.4356 C.3       1 <0>         0.0698
     16 C12        -3.4339   -5.5583   -1.8926 C.2       1 <0>         0.5079
     17 O3         -2.8226   -4.9495   -2.7449 O.2       1 <0>        -0.5304
     18 N2         -4.3931   -6.4358   -2.2485 N.am      1 <0>        -0.8461
     19 O4          3.5276    2.1348   -0.2480 O.3       1 <0>        -0.4967
     20 H1          1.1873   -1.6988   -0.6396 H         1 <0>         0.1376
     21 H2          3.2837   -0.4224   -0.7458 H         1 <0>         0.1393
     22 H3          1.1947    3.1342    0.3888 H         1 <0>         0.1389
     23 H4         -0.9099    1.8724    0.5047 H         1 <0>         0.1406
     24 H5         -2.1955   -0.2400    0.1473 H         1 <0>         0.1657
     25 H6         -2.8000   -6.2724    0.0159 H         1 <0>         0.1311
     26 H7         -4.0128   -4.9710    0.0757 H         1 <0>         0.1343
     27 H8         -4.8821   -6.9227   -1.5668 H         1 <0>         0.4052
     28 H9         -4.5944   -6.5803   -3.1863 H         1 <0>         0.4087
     29 H10         3.7092    2.5185   -1.1169 H         1 <0>         0.3983
@<TRIPOS>BOND
     1    1    6 ar
     2    1    2 ar
     3    1   20 1
     4    2    3 ar
     5    2   21 1
     6    3    4 ar
     7    3   19 1
     8    4    5 ar
     9    4   22 1
    10    5    6 ar
    11    5   23 1
    12    6    7 1
    13    7    8 2
    14    7   24 1
    15    8   14 1
    16    8    9 1
    17    9   10 2
    18    9   11 am
    19   11   12 am
    20   11   15 1
    21   12   13 2
    22   12   14 1
    23   15   16 1
    24   15   25 1
    25   15   26 1
    26   16   17 2
    27   16   18 am
    28   18   27 1
    29   18   28 1
    30   19   29 1
@<TRIPOS>MOLECULE
ZINC12341811
   22    23     0     0     0
SMALL
USER_CHARGES
(5Z)-5-[(4-hydroxyphenyl)methylene]-2-thioxo-thiazolidin-4-one
@<TRIPOS>ATOM
      1 C1          2.9983    2.6246   -1.2179 C.ar      1 <0>        -0.0650
      2 C2          1.7712    2.0005   -1.2270 C.ar      1 <0>        -0.1434
      3 C3          1.2899    1.3913   -0.0739 C.ar      1 <0>         0.1433
      4 C4          2.0411    1.4133    1.0955 C.ar      1 <0>        -0.1494
      5 C5          3.2720    2.0296    1.1144 C.ar      1 <0>        -0.0536
      6 C6          3.7619    2.6450   -0.0442 C.ar      1 <0>        -0.1160
      7 C7          5.0716    3.3087   -0.0286 C.2       1 <0>         0.0993
      8 C8          5.4698    4.0496   -1.0940 C.2       1 <0>        -0.2536
      9 C9          6.7777    4.6780   -1.3675 C.2       1 <0>         0.5474
     10 O1          7.7088    4.5810   -0.5896 O.2       1 <0>        -0.4593
     11 N1          6.8877    5.3474   -2.5026 N.am      1 <0>        -0.6278
     12 C10         5.8514    5.4585   -3.3583 C.2       1 <0>         0.2585
     13 S1          5.7950    6.2808   -4.8589 S.2       1 <0>        -0.3291
     14 S2          4.5525    4.5395   -2.5480 S.3       1 <0>         0.0895
     15 O2          0.0790    0.7772   -0.0885 O.3       1 <0>        -0.4955
     16 H1          3.3714    3.0973   -2.1144 H         1 <0>         0.1330
     17 H2          1.1816    1.9839   -2.1317 H         1 <0>         0.1419
     18 H3          1.6602    0.9426    1.9898 H         1 <0>         0.1412
     19 H4          3.8569    2.0420    2.0222 H         1 <0>         0.1423
     20 H5          5.7181    3.2073    0.8306 H         1 <0>         0.1668
     21 H6          7.7317    5.7719   -2.7227 H         1 <0>         0.4294
     22 H7          0.1153   -0.1581   -0.3314 H         1 <0>         0.4002
@<TRIPOS>BOND
     1    1    6 ar
     2    1    2 ar
     3    1   16 1
     4    2    3 ar
     5    2   17 1
     6    3    4 ar
     7    3   15 1
     8    4    5 ar
     9    4   18 1
    10    5    6 ar
    11    5   19 1
    12    6    7 1
    13    7    8 2
    14    7   20 1
    15    8   14 1
    16    8    9 1
    17    9   10 2
    18    9   11 am
    19   11   12 1
    20   11   21 1
    21   12   13 2
    22   12   14 1
    23   15   22 1
@<TRIPOS>MOLECULE
ZINC03869685
   32    34     0     0     0
SMALL
USER_CHARGES

@<TRIPOS>ATOM
      1 C1          0.9741   -0.2755   -0.9644 C.ar      1 <0>        -0.0748
      2 C2          2.1569    0.4329   -0.9701 C.ar      1 <0>        -0.1346
      3 C3          2.3856    1.4156   -0.0177 C.ar      1 <0>         0.1032
      4 C4          1.4203    1.6918    0.9495 C.ar      1 <0>         0.0788
      5 C5          0.2328    0.9863    0.9617 C.ar      1 <0>        -0.0762
      6 C6          0.0021   -0.0041    0.0020 C.ar      1 <0>        -0.0447
      7 C7         -1.2637   -0.7605    0.0100 C.2       1 <0>         0.1350
      8 C8         -2.4363   -0.0759    0.1235 C.2       1 <0>        -0.0429
      9 C9         -3.6628   -0.7894    0.1327 C.2       1 <0>         0.4011
     10 O1         -4.7327   -0.2102    0.2323 O.2       1 <0>        -0.4484
     11 C10        -3.5946   -2.2549    0.0170 C.ar      1 <0>        -0.2690
     12 C11        -4.7561   -3.0387    0.0170 C.ar      1 <0>         0.2244
     13 C12        -4.6504   -4.4123   -0.0941 C.ar      1 <0>        -0.2081
     14 C13        -3.3994   -5.0103   -0.2044 C.ar      1 <0>         0.2000
     15 C14        -2.2463   -4.2416   -0.2047 C.ar      1 <0>        -0.1854
     16 C15        -2.3316   -2.8618   -0.0952 C.ar      1 <0>         0.1876
     17 O2         -1.2182   -2.0992   -0.1003 O.3       1 <0>        -0.1970
     18 O3         -3.3070   -6.3605   -0.3125 O.3       1 <0>        -0.4866
     19 O4         -5.9758   -2.4535    0.1257 O.3       1 <0>        -0.4726
     20 O5         -2.4312    1.2810    0.2275 O.3       1 <0>        -0.4502
     21 O6          1.6480    2.6557    1.8815 O.3       1 <0>        -0.4836
     22 O7          3.5534    2.1101   -0.0273 O.3       1 <0>        -0.4861
     23 H1          0.7971   -1.0371   -1.7094 H         1 <0>         0.1379
     24 H2          2.9075    0.2221   -1.7176 H         1 <0>         0.1421
     25 H3         -0.5155    1.1988    1.7108 H         1 <0>         0.1429
     26 H4         -5.5413   -5.0229   -0.0948 H         1 <0>         0.1515
     27 H5         -1.2805   -4.7174   -0.2903 H         1 <0>         0.1559
     28 H6         -3.3257   -6.6843   -1.2235 H         1 <0>         0.4050
     29 H7         -6.3751   -2.2160   -0.7224 H         1 <0>         0.4036
     30 H8         -3.3120    1.6729    0.3033 H         1 <0>         0.4079
     31 H9          1.3508    3.5370    1.6166 H         1 <0>         0.3905
     32 H10         3.5287    2.9137   -0.5647 H         1 <0>         0.3924
@<TRIPOS>BOND
     1    1    6 ar
     2    1    2 ar
     3    1   23 1
     4    2    3 ar
     5    2   24 1
     6    3    4 ar
     7    3   22 1
     8    4    5 ar
     9    4   21 1
    10    5    6 ar
    11    5   25 1
    12    6    7 1
    13    7   17 1
    14    7    8 2
    15    8    9 1
    16    8   20 1
    17    9   10 2
    18    9   11 1
    19   11   16 ar
    20   11   12 ar
    21   12   13 ar
    22   12   19 1
    23   13   14 ar
    24   13   26 1
    25   14   15 ar
    26   14   18 1
    27   15   16 ar
    28   15   27 1
    29   16   17 1
    30   18   28 1
    31   19   29 1
    32   20   30 1
    33   21   31 1
    34   22   32 1
@<TRIPOS>MOLECULE
ZINC03869685
   31    33     0     0     0
SMALL
USER_CHARGES

@<TRIPOS>ATOM
      1 C1          0.1390    1.1246   -0.8120 C.ar      1 <0>        -0.0626
      2 C2          1.3229    1.8301   -0.8179 C.ar      1 <0>        -0.1333
      3 C3          2.3812    1.4233   -0.0172 C.ar      1 <0>         0.0878
      4 C4          2.2522    0.2984    0.7970 C.ar      1 <0>         0.0757
      5 C5          1.0694   -0.4139    0.8086 C.ar      1 <0>        -0.0997
      6 C6          0.0021   -0.0041    0.0020 C.ar      1 <0>        -0.0194
      7 C7         -1.2620   -0.7597    0.0100 C.2       1 <0>         0.1007
      8 C8         -2.4587   -0.0763    0.1245 C.2       1 <0>        -0.0038
      9 C9         -3.6655   -0.7872    0.1324 C.2       1 <0>         0.3349
     10 C10        -3.6167   -2.1939    0.0219 C.2       1 <0>        -0.3331
     11 C11        -4.8018   -2.9593    0.0240 C.2       1 <0>         0.2664
     12 C12        -4.7326   -4.3182   -0.0844 C.2       1 <0>        -0.3749
     13 C13        -3.4871   -4.9570   -0.1979 C.2       1 <0>         0.3648
     14 O1         -3.4307   -6.2860   -0.3033 O.2       1 <0>        -0.6598
     15 C14        -2.3054   -4.2086   -0.2016 C.2       1 <0>        -0.3143
     16 C15        -2.3616   -2.8325   -0.0921 C.2       1 <0>         0.2118
     17 O2         -1.2290   -2.0988   -0.0996 O.3       1 <0>        -0.2018
     18 O3         -6.0073   -2.3463    0.1339 O.3       1 <0>        -0.4482
     19 O4         -4.8484   -0.1420    0.2437 O.3       1 <0>        -0.5747
     20 O5         -2.4638    1.2803    0.2294 O.3       1 <0>        -0.4649
     21 O6          3.2919   -0.0973    1.5794 O.3       1 <0>        -0.4856
     22 O7          3.5458    2.1225   -0.0269 O.3       1 <0>        -0.4881
     23 H1         -0.6843    1.4460   -1.4327 H         1 <0>         0.1397
     24 H2          1.4276    2.7014   -1.4473 H         1 <0>         0.1381
     25 H3          0.9685   -1.2854    1.4384 H         1 <0>         0.1410
     26 H4         -5.6395   -4.9047   -0.0825 H         1 <0>         0.1180
     27 H5         -1.3506   -4.7057   -0.2895 H         1 <0>         0.1230
     28 H6         -6.7597   -2.9537    0.1258 H         1 <0>         0.3847
     29 H7         -3.3475    1.6656    0.3047 H         1 <0>         0.4058
     30 H8          3.2925    0.2977    2.4620 H         1 <0>         0.3855
     31 H9          3.5825    2.8346    0.6263 H         1 <0>         0.3863
@<TRIPOS>BOND
     1    1    6 ar
     2    1    2 ar
     3    1   23 1
     4    2    3 ar
     5    2   24 1
     6    3    4 ar
     7    3   22 1
     8    4    5 ar
     9    4   21 1
    10    5    6 ar
    11    5   25 1
    12    6    7 1
    13    7   17 1
    14    7    8 2
    15    8    9 1
    16    8   20 1
    17    9   10 2
    18    9   19 1
    19   10   16 1
    20   10   11 1
    21   11   12 2
    22   11   18 1
    23   12   13 1
    24   12   26 1
    25   13   14 2
    26   13   15 1
    27   15   16 2
    28   15   27 1
    29   16   17 1
    30   18   28 1
    31   20   29 1
    32   21   30 1
    33   22   31 1
@<TRIPOS>MOLECULE
ZINC01533688
   33    34     0     0     0
SMALL
USER_CHARGES

@<TRIPOS>ATOM
      1 C1          1.3012    0.9079    0.3155 C.3       1 <0>        -0.1391
      2 C2          0.4991   -0.3678    0.3371 C.2       1 <0>        -0.1104
      3 C3          0.1102   -0.9030    1.5185 C.2       1 <0>        -0.0613
      4 C4          0.3142   -0.1544    2.7673 C.ar      1 <0>        -0.0665
      5 C5          0.1047    1.2288    2.8005 C.ar      1 <0>        -0.1005
      6 C6          0.2982    1.9233    3.9756 C.ar      1 <0>        -0.1223
      7 C7          0.6986    1.2562    5.1204 C.ar      1 <0>        -0.1141
      8 C8          0.9080   -0.1119    5.0960 C.ar      1 <0>        -0.1239
      9 C9          0.7133   -0.8221    3.9305 C.ar      1 <0>        -0.1016
     10 C10         0.1539   -1.0035   -0.8720 C.2       1 <0>         0.0519
     11 C11         0.4461   -0.4073   -2.0639 C.2       1 <0>        -0.2133
     12 C12         0.3055   -0.9298   -3.4359 C.2       1 <0>         0.5441
     13 O1         -0.1249   -2.0477   -3.6530 O.2       1 <0>        -0.4585
     14 N1          0.6699   -0.1233   -4.4185 N.am      1 <0>        -0.4829
     15 C13         1.1458    1.1146   -4.1737 C.2       1 <0>         0.2866
     16 S1          1.6639    2.2966   -5.2986 S.2       1 <0>        -0.3724
     17 S2          1.0972    1.2249   -2.3921 S.3       1 <0>         0.0579
     18 C14         0.5544   -0.5850   -5.8040 C.3       1 <0>         0.0079
     19 C15        -0.8060   -0.2236   -6.3422 C.2       1 <0>         0.4995
     20 O2         -1.6051    0.3651   -5.6341 O.co2     1 <0>        -0.6804
     21 O3         -1.1076   -0.5199   -7.4858 O.co2     1 <0>        -0.6790
     22 H1          1.8435    1.0120    1.2552 H         1 <0>         0.0857
     23 H2          2.0103    0.8772   -0.5118 H         1 <0>         0.0830
     24 H3          0.6299    1.7570    0.1873 H         1 <0>         0.0829
     25 H4         -0.3498   -1.8798    1.5435 H         1 <0>         0.1339
     26 H5         -0.2073    1.7508    1.9081 H         1 <0>         0.1312
     27 H6          0.1374    2.9909    4.0028 H         1 <0>         0.1251
     28 H7          0.8489    1.8061    6.0377 H         1 <0>         0.1215
     29 H8          1.2207   -0.6250    5.9935 H         1 <0>         0.1231
     30 H9          0.8724   -1.8902    3.9143 H         1 <0>         0.1255
     31 H10        -0.3420   -1.9628   -0.8553 H         1 <0>         0.1555
     32 H11         1.3238   -0.1082   -6.4112 H         1 <0>         0.1109
     33 H12         0.6830   -1.6669   -5.8383 H         1 <0>         0.1000
@<TRIPOS>BOND
     1    1    2 1
     2    1   22 1
     3    1   23 1
     4    1   24 1
     5    2    3 2
     6    2   10 1
     7    3    4 1
     8    3   25 1
     9    4    9 ar
    10    4    5 ar
    11    5    6 ar
    12    5   26 1
    13    6    7 ar
    14    6   27 1
    15    7    8 ar
    16    7   28 1
    17    8    9 ar
    18    8   29 1
    19    9   30 1
    20   10   11 2
    21   10   31 1
    22   11   17 1
    23   11   12 1
    24   12   13 2
    25   12   14 am
    26   14   15 1
    27   14   18 1
    28   15   16 2
    29   15   17 1
    30   18   19 1
    31   18   32 1
    32   18   33 1
    33   19   20 2
    34   19   21 1
@<TRIPOS>MOLECULE
ZINC00538211
   35    37     0     0     0
SMALL
USER_CHARGES

@<TRIPOS>ATOM
      1 C1         -0.0165    1.3627    0.0095 C.ar      1 <0>        -0.0929
      2 C2          1.1654    2.0924    0.0022 C.ar      1 <0>        -0.1289
      3 C3          2.3861    1.4540   -0.0134 C.ar      1 <0>        -0.0568
      4 C4          2.4294    0.0605   -0.0213 C.ar      1 <0>        -0.1348
      5 C5          1.2244   -0.6786   -0.0133 C.ar      1 <0>        -0.0423
      6 C6          0.0021   -0.0041    0.0020 C.ar      1 <0>        -0.1011
      7 C7          1.3000   -2.1396   -0.0224 C.2       1 <0>         0.1202
      8 N1          2.4575   -2.7306   -0.0371 N.2       1 <0>        -0.1227
      9 N2          3.6626   -2.0276   -0.0452 N.am      1 <0>        -0.4387
     10 C8          3.6977   -0.6787   -0.0384 C.2       1 <0>         0.5198
     11 O1          4.7616   -0.0856   -0.0461 O.2       1 <0>        -0.5442
     12 C9          4.9232   -2.7737   -0.0618 C.3       1 <0>         0.1765
     13 C10         5.3696   -3.0372    1.3533 C.ar      1 <0>        -0.1367
     14 C11         6.3386   -2.2394    1.9323 C.ar      1 <0>        -0.0601
     15 C12         6.7481   -2.4801    3.2301 C.ar      1 <0>        -0.1184
     16 C13         6.1890   -3.5202    3.9512 C.ar      1 <0>        -0.0564
     17 C14         5.2199   -4.3196    3.3736 C.ar      1 <0>        -0.1435
     18 C15         4.8051   -4.0748    2.0754 C.ar      1 <0>         0.1436
     19 F1          3.8543   -4.8517    1.5118 F         1 <0>        -0.0845
     20 Br1         6.7507   -3.8489    5.7267 Br        1 <0>        -0.0474
     21 C16         0.0356   -2.9595   -0.0143 C.3       1 <0>        -0.1331
     22 C17         0.3870   -4.4249   -0.0262 C.2       1 <0>         0.4871
     23 O2          1.5559   -4.7714   -0.0401 O.co2     1 <0>        -0.6424
     24 O3         -0.4975   -5.2640   -0.0221 O.co2     1 <0>        -0.7075
     25 H1         -0.9631    1.8823    0.0259 H         1 <0>         0.1295
     26 H2          1.1269    3.1717    0.0083 H         1 <0>         0.1292
     27 H3          3.3010    2.0277   -0.0197 H         1 <0>         0.1369
     28 H4         -0.9242   -0.5594    0.0075 H         1 <0>         0.1398
     29 H5          4.7775   -3.7219   -0.5793 H         1 <0>         0.1108
     30 H6          5.6841   -2.1901   -0.5800 H         1 <0>         0.1048
     31 H7          6.7761   -1.4277    1.3701 H         1 <0>         0.1442
     32 H8          7.5053   -1.8562    3.6816 H         1 <0>         0.1367
     33 H9          4.7839   -5.1320    3.9360 H         1 <0>         0.1450
     34 H10        -0.5398   -2.7311    0.8829 H         1 <0>         0.0838
     35 H11        -0.5578   -2.7210   -0.8970 H         1 <0>         0.0846
@<TRIPOS>BOND
     1    1    6 ar
     2    1    2 ar
     3    1   25 1
     4    2    3 ar
     5    2   26 1
     6    3    4 ar
     7    3   27 1
     8    4   10 1
     9    4    5 ar
    10    5    6 ar
    11    5    7 1
    12    6   28 1
    13    7    8 2
    14    7   21 1
    15    8    9 1
    16    9   10 am
    17    9   12 1
    18   10   11 2
    19   12   13 1
    20   12   29 1
    21   12   30 1
    22   13   18 ar
    23   13   14 ar
    24   14   15 ar
    25   14   31 1
    26   15   16 ar
    27   15   32 1
    28   16   17 ar
    29   16   20 1
    30   17   18 ar
    31   17   33 1
    32   18   19 1
    33   21   22 1
    34   21   34 1
    35   21   35 1
    36   22   23 2
    37   22   24 1
@<TRIPOS>MOLECULE
ZINC26481517
   26    28     0     0     0
SMALL
USER_CHARGES
(4R)-6-chlorospiro[chroman-4,5'-imidazolidine]-2',4'-dione
@<TRIPOS>ATOM
      1 C1          1.1669    2.4400    0.0040 C.ar      1 <0>        -0.0582
      2 C2          1.1463    3.8200    0.0143 C.ar      1 <0>        -0.1347
      3 C3         -0.0650    4.5023    0.0316 C.ar      1 <0>         0.1620
      4 C4         -1.2542    3.7910    0.0343 C.ar      1 <0>        -0.1605
      5 C5         -1.2278    2.4070    0.0210 C.ar      1 <0>        -0.0537
      6 C6         -0.0215    1.7317    0.0116 C.ar      1 <0>        -0.0658
      7 Cl1         0.0021   -0.0041    0.0020 Cl        1 <0>        -0.0591
      8 C7         -2.5806    4.4976    0.0425 C.3       1 <0>         0.1548
      9 C8         -2.4145    5.9526    0.4705 C.3       1 <0>        -0.1589
     10 C9         -1.2403    6.5548   -0.3134 C.3       1 <0>         0.0648
     11 O1         -0.0476    5.8604    0.0534 O.3       1 <0>        -0.3037
     12 C10        -3.5523    3.7864    0.9553 C.2       1 <0>         0.5335
     13 O2         -3.4407    3.6067    2.1490 O.2       1 <0>        -0.4527
     14 N1         -4.5700    3.3931    0.1615 N.am      1 <0>        -0.6948
     15 C11        -4.3714    3.7568   -1.1114 C.2       1 <0>         0.7225
     16 O3         -5.1501    3.5154   -2.0127 O.2       1 <0>        -0.5371
     17 N2         -3.2119    4.4206   -1.2810 N.am      1 <0>        -0.7268
     18 H1          2.1098    1.9136   -0.0103 H         1 <0>         0.1470
     19 H2          2.0746    4.3720    0.0086 H         1 <0>         0.1486
     20 H3         -2.1542    1.8519    0.0221 H         1 <0>         0.1286
     21 H4         -3.3387    6.5072    0.2507 H         1 <0>         0.1040
     22 H5         -2.2089    5.9960    1.5502 H         1 <0>         0.1061
     23 H6         -1.4236    6.4425   -1.3922 H         1 <0>         0.0713
     24 H7         -1.1441    7.6225   -0.0671 H         1 <0>         0.1263
     25 H8         -5.4215    2.8444    0.5902 H         1 <0>         0.4676
     26 H9         -2.7140    4.8665   -2.1546 H         1 <0>         0.4689
@<TRIPOS>BOND
     1    1    6 ar
     2    1    2 ar
     3    1   18 1
     4    2    3 ar
     5    2   19 1
     6    3   11 1
     7    3    4 ar
     8    4    5 ar
     9    4    8 1
    10    5    6 ar
    11    5   20 1
    12    6    7 1
    13    8   17 1
    14    8    9 1
    15    8   12 1
    16    9   10 1
    17    9   21 1
    18    9   22 1
    19   10   11 1
    20   10   23 1
    21   10   24 1
    22   12   13 2
    23   12   14 am
    24   14   15 am
    25   14   25 1
    26   15   16 2
    27   15   17 am
    28   17   26 1
@<TRIPOS>MOLECULE
ZINC26481524
   26    28     0     0     0
SMALL
USER_CHARGES
(4S)-6-chlorospiro[chroman-4,5'-imidazolidine]-2',4'-dione
@<TRIPOS>ATOM
      1 C1          3.7597   -0.0041   -2.9476 C.ar      1 <0>        -0.0582
      2 C2          2.5537   -0.5404   -2.5440 C.ar      1 <0>        -0.1365
      3 C3          1.7813    0.1123   -1.5898 C.ar      1 <0>         0.1668
      4 C4          2.2289    1.3033   -1.0409 C.ar      1 <0>        -0.1676
      5 C5          3.4381    1.8379   -1.4512 C.ar      1 <0>        -0.0540
      6 C6          4.2026    1.1875   -2.4018 C.ar      1 <0>        -0.0694
      7 Cl1         5.7179    1.8652   -2.9099 Cl        1 <0>        -0.0603
      8 C7          1.4231    2.0295   -0.0006 C.3       1 <0>         0.1569
      9 C8         -0.0187    1.5307    0.0105 C.3       1 <0>        -0.1536
     10 C9          0.0021   -0.0041    0.0020 C.3       1 <0>         0.0545
     11 O1          0.5976   -0.4420   -1.2198 O.3       1 <0>        -0.3038
     12 C10         2.0495    1.8593    1.3642 C.2       1 <0>         0.5310
     13 O2          2.2247    0.8223    1.9673 O.2       1 <0>        -0.4570
     14 N1          2.3721    3.1049    1.7700 N.am      1 <0>        -0.6932
     15 C11         2.0372    4.0235    0.8556 C.2       1 <0>         0.7211
     16 O3          2.2281    5.2158    0.9939 O.2       1 <0>        -0.5361
     17 N2          1.4651    3.4781   -0.2349 N.am      1 <0>        -0.7246
     18 H1          4.3568   -0.5140   -3.6891 H         1 <0>         0.1463
     19 H2          2.2091   -1.4709   -2.9704 H         1 <0>         0.1483
     20 H3          3.7862    2.7678   -1.0263 H         1 <0>         0.1333
     21 H4         -0.5261    1.8960    0.9155 H         1 <0>         0.0992
     22 H5         -0.5433    1.9057   -0.8806 H         1 <0>         0.1037
     23 H6          0.5900   -0.3676    0.8577 H         1 <0>         0.0866
     24 H7         -1.0271   -0.3852    0.0759 H         1 <0>         0.1252
     25 H8          2.8502    3.2579    2.7488 H         1 <0>         0.4674
     26 H9          1.0670    3.8955   -1.1715 H         1 <0>         0.4739
@<TRIPOS>BOND
     1    1    6 ar
     2    1    2 ar
     3    1   18 1
     4    2    3 ar
     5    2   19 1
     6    3   11 1
     7    3    4 ar
     8    4    5 ar
     9    4    8 1
    10    5    6 ar
    11    5   20 1
    12    6    7 1
    13    8   17 1
    14    8    9 1
    15    8   12 1
    16    9   10 1
    17    9   21 1
    18    9   22 1
    19   10   11 1
    20   10   23 1
    21   10   24 1
    22   12   13 2
    23   12   14 am
    24   14   15 am
    25   14   25 1
    26   15   16 2
    27   15   17 am
    28   17   26 1
@<TRIPOS>MOLECULE
ZINC26491261
   26    28     0     0     0
SMALL
USER_CHARGES
(4R)-8-chlorospiro[chroman-4,5'-imidazolidine]-2',4'-dione
@<TRIPOS>ATOM
      1 C1          2.2809    1.9233    3.5952 C.ar      1 <0>        -0.1355
      2 C2          1.5331    2.1120    2.4492 C.ar      1 <0>        -0.0590
      3 C3          1.9913    1.6439    1.2292 C.ar      1 <0>        -0.1614
      4 C4          3.2079    0.9853    1.1582 C.ar      1 <0>         0.1656
      5 C5          3.9583    0.7961    2.3146 C.ar      1 <0>        -0.0685
      6 C6          3.4943    1.2642    3.5283 C.ar      1 <0>        -0.0605
      7 Cl1         5.4822   -0.0313    2.2315 Cl        1 <0>        -0.0460
      8 O1          3.6958    0.5157   -0.0194 O.3       1 <0>        -0.2973
      9 C7          2.7843    0.3550   -1.1072 C.3       1 <0>         0.0638
     10 C8          1.9808    1.6533   -1.2632 C.3       1 <0>        -0.1592
     11 C9          1.1525    1.8610    0.0010 C.3       1 <0>         0.1569
     12 C10         0.5500    3.2470    0.0137 C.2       1 <0>         0.5347
     13 O2          1.1423    4.3049    0.0129 O.2       1 <0>        -0.4533
     14 N1         -0.7859    3.0589    0.0252 N.am      1 <0>        -0.6947
     15 C11        -1.1005    1.7577    0.0161 C.2       1 <0>         0.7225
     16 O3         -2.2412    1.3381    0.0182 O.2       1 <0>        -0.5378
     17 N2         -0.0111    0.9658    0.0074 N.am      1 <0>        -0.7261
     18 H1          1.9176    2.2906    4.5436 H         1 <0>         0.1406
     19 H2          0.5855    2.6271    2.5052 H         1 <0>         0.1241
     20 H3          4.0790    1.1158    4.4242 H         1 <0>         0.1461
     21 H4          3.3469    0.1480   -2.0295 H         1 <0>         0.1267
     22 H5          2.1053   -0.4842   -0.8957 H         1 <0>         0.0711
     23 H6          2.6719    2.4975   -1.4035 H         1 <0>         0.1065
     24 H7          1.3189    1.5720   -2.1380 H         1 <0>         0.1041
     25 H8         -1.4632    3.9255    0.0401 H         1 <0>         0.4674
     26 H9          0.1338   -0.1246    0.0046 H         1 <0>         0.4691
@<TRIPOS>BOND
     1    1    6 ar
     2    1    2 ar
     3    1   18 1
     4    2    3 ar
     5    2   19 1
     6    3   11 1
     7    3    4 ar
     8    4    5 ar
     9    4    8 1
    10    5    6 ar
    11    5    7 1
    12    6   20 1
    13    8    9 1
    14    9   10 1
    15    9   21 1
    16    9   22 1
    17   10   11 1
    18   10   23 1
    19   10   24 1
    20   11   17 1
    21   11   12 1
    22   12   13 2
    23   12   14 am
    24   14   15 am
    25   14   25 1
    26   15   16 2
    27   15   17 am
    28   17   26 1
@<TRIPOS>MOLECULE
ZINC26491266
   26    28     0     0     0
SMALL
USER_CHARGES
(4S)-8-chlorospiro[chroman-4,5'-imidazolidine]-2',4'-dione
@<TRIPOS>ATOM
      1 C1         -0.0167    1.3771    0.0096 C.ar      1 <0>        -0.1391
      2 C2          0.0021   -0.0041    0.0020 C.ar      1 <0>        -0.0593
      3 C3          1.2061   -0.6878   -0.0146 C.ar      1 <0>        -0.1685
      4 C4          2.3980    0.0181   -0.0252 C.ar      1 <0>         0.1702
      5 C5          2.3755    1.4094   -0.0150 C.ar      1 <0>        -0.0699
      6 C6          1.1710    2.0848    0.0021 C.ar      1 <0>        -0.0607
      7 Cl1         3.8663    2.2989   -0.0241 Cl        1 <0>        -0.0463
      8 O1          3.6001   -0.6141   -0.0490 O.3       1 <0>        -0.2973
      9 C7          3.6433   -1.9911    0.3273 C.3       1 <0>         0.0538
     10 C8          2.5507   -2.7409   -0.4472 C.3       1 <0>        -0.1538
     11 C9          1.1942   -2.1907   -0.0171 C.3       1 <0>         0.1588
     12 C10         0.8218   -2.7169    1.3497 C.2       1 <0>         0.5313
     13 O2          1.4203   -2.5461    2.3901 O.2       1 <0>        -0.4565
     14 N1         -0.3169   -3.4173    1.1679 N.am      1 <0>        -0.6933
     15 C11        -0.7057   -3.4023   -0.1129 C.2       1 <0>         0.7215
     16 O3         -1.7029   -3.9629   -0.5232 O.2       1 <0>        -0.5372
     17 N2          0.1321   -2.6957   -0.8959 N.am      1 <0>        -0.7237
     18 H1         -0.9592    1.9043    0.0169 H         1 <0>         0.1399
     19 H2         -0.9275   -0.5538    0.0095 H         1 <0>         0.1286
     20 H3          1.1568    3.1646    0.0092 H         1 <0>         0.1453
     21 H4          4.6313   -2.4075    0.0815 H         1 <0>         0.1256
     22 H5          3.4663   -2.0813    1.4092 H         1 <0>         0.0861
     23 H6          2.6950   -2.5866   -1.5267 H         1 <0>         0.1042
     24 H7          2.6112   -3.8153   -0.2191 H         1 <0>         0.0992
     25 H8         -0.8020   -3.9102    2.0233 H         1 <0>         0.4672
     26 H9          0.1490   -2.4604   -1.9703 H         1 <0>         0.4739
@<TRIPOS>BOND
     1    1    6 ar
     2    1    2 ar
     3    1   18 1
     4    2    3 ar
     5    2   19 1
     6    3   11 1
     7    3    4 ar
     8    4    5 ar
     9    4    8 1
    10    5    6 ar
    11    5    7 1
    12    6   20 1
    13    8    9 1
    14    9   10 1
    15    9   21 1
    16    9   22 1
    17   10   11 1
    18   10   23 1
    19   10   24 1
    20   11   17 1
    21   11   12 1
    22   12   13 2
    23   12   14 am
    24   14   15 am
    25   14   25 1
    26   15   16 2
    27   15   17 am
    28   17   26 1
@<TRIPOS>MOLECULE
ZINC26496107
   29    31     0     0     0
SMALL
USER_CHARGES
(5R)-6'-methoxyspiro[imidazolidine-5,1'-indane]-2,4-dione
@<TRIPOS>ATOM
      1 C1          0.0021   -0.0041    0.0020 C.3       1 <0>         0.0229
      2 O1         -0.0173    1.4248    0.0099 O.3       1 <0>        -0.3152
      3 C2          1.1850    2.0582    0.0018 C.ar      1 <0>         0.1270
      4 C3          2.3599    1.3201   -0.0076 C.ar      1 <0>        -0.1885
      5 C4          3.5779    1.9688   -0.0195 C.ar      1 <0>        -0.0675
      6 C5          3.6345    3.3525   -0.0117 C.ar      1 <0>        -0.1084
      7 C6          2.4634    4.0922    0.0012 C.ar      1 <0>        -0.0737
      8 C7          1.2408    3.4426    0.0087 C.ar      1 <0>        -0.1164
      9 C8          2.8002    5.5589    0.0027 C.3       1 <0>         0.1462
     10 C9          4.2680    5.6625   -0.4305 C.3       1 <0>        -0.1052
     11 C10         4.8288    4.2841   -0.0135 C.3       1 <0>        -0.0764
     12 C11         2.5868    6.1765    1.3602 C.2       1 <0>         0.5354
     13 O2          3.1137    5.8582    2.4046 O.2       1 <0>        -0.4572
     14 N1          1.6829    7.1611    1.1643 N.am      1 <0>        -0.6958
     15 C12         1.3089    7.2381   -0.1197 C.2       1 <0>         0.7212
     16 O3          0.5046    8.0453   -0.5424 O.2       1 <0>        -0.5417
     17 N2          1.9251    6.3188   -0.8902 N.am      1 <0>        -0.7256
     18 H1         -1.0299   -0.3848    0.0098 H         1 <0>         0.1046
     19 H2          0.5342   -0.3685    0.8931 H         1 <0>         0.0583
     20 H3          0.5170   -0.3588   -0.9031 H         1 <0>         0.0584
     21 H4          2.3213    0.2408   -0.0094 H         1 <0>         0.1351
     22 H5          4.4922    1.3940   -0.0307 H         1 <0>         0.1304
     23 H6          0.3266    4.0175    0.0196 H         1 <0>         0.1279
     24 H7          4.3187    5.8366   -1.5155 H         1 <0>         0.0975
     25 H8          4.7481    6.4994    0.0979 H         1 <0>         0.0888
     26 H9          5.2708    4.3156    0.9933 H         1 <0>         0.0930
     27 H10         5.5778    3.9187   -0.7315 H         1 <0>         0.0876
     28 H11         1.3488    7.7776    2.0118 H         1 <0>         0.4651
     29 H12         1.8840    6.0718   -1.9613 H         1 <0>         0.4724
@<TRIPOS>BOND
     1    1    2 1
     2    1   18 1
     3    1   19 1
     4    1   20 1
     5    2    3 1
     6    3    8 ar
     7    3    4 ar
     8    4    5 ar
     9    4   21 1
    10    5    6 ar
    11    5   22 1
    12    6   11 1
    13    6    7 ar
    14    7    8 ar
    15    7    9 1
    16    8   23 1
    17    9   17 1
    18    9   10 1
    19    9   12 1
    20   10   11 1
    21   10   24 1
    22   10   25 1
    23   11   26 1
    24   11   27 1
    25   12   13 2
    26   12   14 am
    27   14   15 am
    28   14   28 1
    29   15   16 2
    30   15   17 am
    31   17   29 1
@<TRIPOS>MOLECULE
ZINC26496111
   29    31     0     0     0
SMALL
USER_CHARGES
(5S)-6'-methoxyspiro[imidazolidine-5,1'-indane]-2,4-dione
@<TRIPOS>ATOM
      1 C1         -2.2438    2.6159    5.7094 C.3       1 <0>         0.0229
      2 O1         -1.4336    1.8809    4.7899 O.3       1 <0>        -0.3152
      3 C2         -1.4645    2.2741    3.4894 C.ar      1 <0>         0.1270
      4 C3         -2.2582    3.3454    3.1054 C.ar      1 <0>        -0.1886
      5 C4         -2.2856    3.7403    1.7835 C.ar      1 <0>        -0.0674
      6 C5         -1.5254    3.0731    0.8375 C.ar      1 <0>        -0.1085
      7 C6         -0.7328    2.0025    1.2174 C.ar      1 <0>        -0.0737
      8 C7         -0.7043    1.6055    2.5434 C.ar      1 <0>        -0.1164
      9 C8         -0.0178    1.4587    0.0101 C.3       1 <0>         0.1462
     10 C9         -0.7569    2.0160   -1.2131 C.3       1 <0>        -0.1052
     11 C10        -1.3844    3.3120   -0.6517 C.3       1 <0>        -0.0764
     12 C11         1.4348    1.8586   -0.0017 C.2       1 <0>         0.5353
     13 O2          1.8888    2.9827   -0.0002 O.2       1 <0>        -0.4572
     14 N1          2.1230    0.6963   -0.0146 N.am      1 <0>        -0.6958
     15 C12         1.3021   -0.3622   -0.0124 C.2       1 <0>         0.7212
     16 O3          1.6858   -1.5154   -0.0220 O.2       1 <0>        -0.5417
     17 N2          0.0021   -0.0041    0.0020 N.am      1 <0>        -0.7256
     18 H1         -2.1256    2.1959    6.7191 H         1 <0>         0.1046
     19 H2         -3.2986    2.5471    5.4048 H         1 <0>         0.0584
     20 H3         -1.9309    3.6705    5.7120 H         1 <0>         0.0583
     21 H4         -2.8528    3.8691    3.8393 H         1 <0>         0.1351
     22 H5         -2.9032    4.5745    1.4849 H         1 <0>         0.1305
     23 H6         -0.0865    0.7715    2.8418 H         1 <0>         0.1280
     24 H7         -0.0364    2.2032   -2.0229 H         1 <0>         0.0888
     25 H8         -1.5076    1.2867   -1.5516 H         1 <0>         0.0975
     26 H9         -2.3760    3.5027   -1.0880 H         1 <0>         0.0876
     27 H10        -0.7347    4.1828   -0.8235 H         1 <0>         0.0930
     28 H11         3.2229    0.7085   -0.0251 H         1 <0>         0.4651
     29 H12        -0.9429   -0.5670    0.0080 H         1 <0>         0.4724
@<TRIPOS>BOND
     1    1    2 1
     2    1   18 1
     3    1   19 1
     4    1   20 1
     5    2    3 1
     6    3    8 ar
     7    3    4 ar
     8    4    5 ar
     9    4   21 1
    10    5    6 ar
    11    5   22 1
    12    6   11 1
    13    6    7 ar
    14    7    8 ar
    15    7    9 1
    16    8   23 1
    17    9   17 1
    18    9   10 1
    19    9   12 1
    20   10   11 1
    21   10   24 1
    22   10   25 1
    23   11   26 1
    24   11   27 1
    25   12   13 2
    26   12   14 am
    27   14   15 am
    28   14   28 1
    29   15   16 2
    30   15   17 am
    31   17   29 1
@<TRIPOS>MOLECULE
ZINC00146377
   24    25     0     0     0
SMALL
USER_CHARGES
2-benzyl-1,2,4-triazine-3,5-dione
@<TRIPOS>ATOM
      1 C1          1.1563    3.1654    0.0076 C.ar      1 <0>        -0.1069
      2 C2          1.1750    1.7832    0.0004 C.ar      1 <0>        -0.1263
      3 C3         -0.0126    1.0758    0.0080 C.ar      1 <0>        -0.0920
      4 C4         -1.2190    1.7506    0.0173 C.ar      1 <0>        -0.1267
      5 C5         -1.2377    3.1328    0.0299 C.ar      1 <0>        -0.0925
      6 C6         -0.0501    3.8402    0.0223 C.ar      1 <0>        -0.1257
      7 C7         -2.5137    0.9795    0.0193 C.3       1 <0>         0.1836
      8 N1         -2.9267    0.7221    1.4011 N.am      1 <0>        -0.4411
      9 C8         -3.7078    1.6132    2.0372 C.2       1 <0>         0.6805
     10 O1         -4.0616    2.6213    1.4565 O.2       1 <0>        -0.5293
     11 N2         -4.1082    1.4035    3.3053 N.am      1 <0>        -0.6580
     12 H1         -4.6747    2.0542    3.7487 H         1 <0>         0.4347
     13 C9         -3.7179    0.2911    3.9613 C.2       1 <0>         0.5176
     14 O2         -4.0716    0.0968    5.1095 O.2       1 <0>        -0.4797
     15 C10        -2.8620   -0.6803    3.2741 C.2       1 <0>         0.0469
     16 N3         -2.4983   -0.4454    2.0440 N.2       1 <0>        -0.1654
     17 H2          2.0841    3.7181    0.0014 H         1 <0>         0.1239
     18 H3          2.1175    1.2560   -0.0115 H         1 <0>         0.1252
     19 H4          0.0021   -0.0041    0.0020 H         1 <0>         0.1270
     20 H5         -2.1802    3.6600    0.0410 H         1 <0>         0.1299
     21 H6         -0.0647    4.9201    0.0276 H         1 <0>         0.1246
     22 H7         -3.2837    1.5610   -0.4877 H         1 <0>         0.1134
     23 H8         -2.3729    0.0317   -0.5003 H         1 <0>         0.1112
     24 H9         -2.5369   -1.5777    3.7794 H         1 <0>         0.2249
@<TRIPOS>BOND
     1    1    6 ar
     2    1    2 ar
     3    1   17 1
     4    2    3 ar
     5    2   18 1
     6    3    4 ar
     7    3   19 1
     8    4    5 ar
     9    4    7 1
    10    5    6 ar
    11    5   20 1
    12    6   21 1
    13    7    8 1
    14    7   22 1
    15    7   23 1
    16    8   16 1
    17    8    9 am
    18    9   10 2
    19    9   11 am
    20   11   12 1
    21   11   13 am
    22   13   14 2
    23   13   15 1
    24   15   16 2
    25   15   24 1
@<TRIPOS>MOLECULE
ZINC22217689
   26    28     0     0     0
SMALL
USER_CHARGES
(5S)-spiro[imidazolidine-5,4'-thiochroman]-2,4-dione
@<TRIPOS>ATOM
      1 C1         -1.7660    6.0587   -0.5323 C.ar      1 <0>        -0.1213
      2 C2         -1.9385    5.5609   -1.8114 C.ar      1 <0>        -0.0863
      3 C3         -1.6710    4.2334   -2.0653 C.ar      1 <0>        -0.1016
      4 C4         -1.2258    3.3921   -1.0450 C.ar      1 <0>        -0.0492
      5 C5         -1.0405    3.8894    0.2314 C.ar      1 <0>        -0.1065
      6 C6         -1.3230    5.2311    0.4764 C.ar      1 <0>        -0.0886
      7 C7         -0.5286    3.0877    1.3919 C.3       1 <0>         0.1539
      8 C8         -0.7534    1.5920    1.2544 C.3       1 <0>        -0.1188
      9 C9         -0.0127    1.0858    0.0080 C.3       1 <0>        -0.1252
     10 S1         -0.9171    1.7005   -1.4433 S.3       1 <0>        -0.1000
     11 C10         0.9479    3.3679    1.5915 C.2       1 <0>         0.5286
     12 O1          1.8494    3.1315    0.8161 O.2       1 <0>        -0.4562
     13 N1          1.0500    3.9352    2.8097 N.am      1 <0>        -0.6921
     14 C11        -0.1442    4.0508    3.4018 C.2       1 <0>         0.7213
     15 O2         -0.3071    4.5325    4.5057 O.2       1 <0>        -0.5385
     16 N2         -1.1443    3.5743    2.6389 N.am      1 <0>        -0.7259
     17 H1         -1.9785    7.0969   -0.3242 H         1 <0>         0.1303
     18 H2         -2.2802    6.2084   -2.6055 H         1 <0>         0.1347
     19 H3         -1.8067    3.8409   -3.0623 H         1 <0>         0.1344
     20 H4         -1.1922    5.6290    1.4719 H         1 <0>         0.1231
     21 H5         -0.3676    1.0796    2.1480 H         1 <0>         0.0964
     22 H6         -1.8300    1.3908    1.1525 H         1 <0>         0.1034
     23 H7          1.0179    1.4704    0.0125 H         1 <0>         0.1179
     24 H8          0.0063   -0.0140    0.0142 H         1 <0>         0.1255
     25 H9          2.0351    4.2373    3.1949 H         1 <0>         0.4669
     26 H10        -2.2323    3.4977    2.7814 H         1 <0>         0.4737
@<TRIPOS>BOND
     1    1    6 ar
     2    1    2 ar
     3    1   17 1
     4    2    3 ar
     5    2   18 1
     6    3    4 ar
     7    3   19 1
     8    4   10 1
     9    4    5 ar
    10    5    6 ar
    11    5    7 1
    12    6   20 1
    13    7   16 1
    14    7    8 1
    15    7   11 1
    16    8    9 1
    17    8   21 1
    18    8   22 1
    19    9   10 1
    20    9   23 1
    21    9   24 1
    22   11   12 2
    23   11   13 am
    24   13   14 am
    25   13   25 1
    26   14   15 2
    27   14   16 am
    28   16   26 1
@<TRIPOS>MOLECULE
ZINC22217692
   26    28     0     0     0
SMALL
USER_CHARGES
(5R)-spiro[imidazolidine-5,4'-thiochroman]-2,4-dione
@<TRIPOS>ATOM
      1 C1          1.1775    2.0721    0.0019 C.ar      1 <0>        -0.1159
      2 C2         -0.0166    1.3737    0.0096 C.ar      1 <0>        -0.0861
      3 C3          0.0021   -0.0041    0.0020 C.ar      1 <0>        -0.0993
      4 C4          1.2135   -0.6963   -0.0138 C.ar      1 <0>        -0.0555
      5 C5          2.4080   -0.0011   -0.0407 C.ar      1 <0>        -0.0970
      6 C6          2.3752    1.3911   -0.0228 C.ar      1 <0>        -0.0879
      7 C7          3.7631   -0.6416   -0.1125 C.3       1 <0>         0.1505
      8 C8          3.8018   -2.0586    0.4338 C.3       1 <0>        -0.1217
      9 C9          2.8604   -2.9419   -0.3979 C.3       1 <0>        -0.1065
     10 S1          1.1594   -2.4602    0.0215 S.3       1 <0>        -0.0988
     11 C10         4.7729    0.2206    0.6187 C.2       1 <0>         0.5334
     12 O1          4.7827    0.4949    1.7996 O.2       1 <0>        -0.4547
     13 N1          5.6576    0.6187   -0.3167 N.am      1 <0>        -0.6944
     14 C11         5.3513    0.1320   -1.5246 C.2       1 <0>         0.7226
     15 O2          6.0024    0.3525   -2.5269 O.2       1 <0>        -0.5393
     16 N2          4.2423   -0.6291   -1.5058 N.am      1 <0>        -0.7277
     17 H1          1.1711    3.1520    0.0150 H         1 <0>         0.1313
     18 H2         -0.9570    1.9046    0.0170 H         1 <0>         0.1358
     19 H3         -0.9283   -0.5525    0.0087 H         1 <0>         0.1350
     20 H4          3.3023    1.9452   -0.0288 H         1 <0>         0.1157
     21 H5          4.8285   -2.4483    0.3699 H         1 <0>         0.0973
     22 H6          3.4755   -2.0556    1.4843 H         1 <0>         0.1064
     23 H7          3.0554   -2.7794   -1.4682 H         1 <0>         0.0942
     24 H8          3.0351   -3.9992   -0.1498 H         1 <0>         0.1286
     25 H9          6.5016    1.2657   -0.0355 H         1 <0>         0.4670
     26 H10         3.6940   -1.1845   -2.2810 H         1 <0>         0.4670
@<TRIPOS>BOND
     1    1    6 ar
     2    1    2 ar
     3    1   17 1
     4    2    3 ar
     5    2   18 1
     6    3    4 ar
     7    3   19 1
     8    4   10 1
     9    4    5 ar
    10    5    6 ar
    11    5    7 1
    12    6   20 1
    13    7   16 1
    14    7    8 1
    15    7   11 1
    16    8    9 1
    17    8   21 1
    18    8   22 1
    19    9   10 1
    20    9   23 1
    21    9   24 1
    22   11   12 2
    23   11   13 am
    24   13   14 am
    25   13   25 1
    26   14   15 2
    27   14   16 am
    28   16   26 1
