@<TRIPOS>MOLECULE
ZINC01684357
   22    22     0     0     0
SMALL
USER_CHARGES
2-styrylsulfanylacetic acid
@<TRIPOS>ATOM
      1 C1         -3.7166    3.1478    0.0377 C.ar      1 <0>        -0.1345
      2 C2         -3.7017    1.7641    0.0297 C.ar      1 <0>        -0.1175
      3 C3         -2.5018    1.0841    0.0198 C.ar      1 <0>        -0.1173
      4 C4         -1.2995    1.7957    0.0180 C.ar      1 <0>        -0.0260
      5 C5         -1.3223    3.1925    0.0315 C.ar      1 <0>        -0.1241
      6 C6         -2.5298    3.8592    0.0360 C.ar      1 <0>        -0.1152
      7 C7         -0.0126    1.0758    0.0080 C.2       1 <0>        -0.1337
      8 C8          1.1373    1.7608    0.0007 C.2       1 <0>        -0.1544
      9 S1          2.6750    0.9006   -0.0186 S.3       1 <0>        -0.0588
     10 C9          3.8195    2.3028   -0.0220 C.3       1 <0>        -0.1555
     11 C10         5.2378    1.7936   -0.0383 C.2       1 <0>         0.4780
     12 O1          5.4527    0.6047   -0.0468 O.co2     1 <0>        -0.6156
     13 H1         -4.6592    3.6750    0.0451 H         1 <0>         0.1175
     14 H2         -4.6319    1.2153    0.0315 H         1 <0>         0.1197
     15 H3         -2.4916    0.0042    0.0132 H         1 <0>         0.1231
     16 H4         -0.3967    3.7490    0.0343 H         1 <0>         0.1216
     17 H5         -2.5489    4.9390    0.0423 H         1 <0>         0.1196
     18 H6          0.0021   -0.0041    0.0020 H         1 <0>         0.1228
     19 H7          1.1227    2.8406    0.0066 H         1 <0>         0.1230
     20 H8          3.6427    2.9140   -0.9071 H         1 <0>         0.0904
     21 H9          3.6597    2.9044    0.8727 H         1 <0>         0.0904
     22 O2          6.2622    2.6609   -0.0434 O.co2     1 <0>        -0.7535
@<TRIPOS>BOND
     1    1    6 ar
     2    1    2 ar
     3    1   13 1
     4    2    3 ar
     5    2   14 1
     6    3    4 ar
     7    3   15 1
     8    4    5 ar
     9    4    7 1
    10    5    6 ar
    11    5   16 1
    12    6   17 1
    13    7    8 2
    14    7   18 1
    15    8    9 1
    16    8   19 1
    17    9   10 1
    18   10   11 1
    19   10   20 1
    20   10   21 1
    21   11   12 2
    22   11   22 1
