@<TRIPOS>MOLECULE
ZINC00057001
   28    28     0     0     0
SMALL
USER_CHARGES

@<TRIPOS>ATOM
      1 C1         -0.0187    1.5258    0.0104 C.3       1 <0>        -0.1499
      2 C2          0.0021   -0.0041    0.0020 C.3       1 <0>        -0.0861
      3 H1         -1.0205   -0.3814    0.0098 H         1 <0>         0.0991
      4 C3          0.7421   -0.5109    1.2415 C.3       1 <0>        -0.0413
      5 S1         -0.1871   -0.0517    2.7303 S.3       1 <0>        -0.2560
      6 C4          0.7074   -0.4901   -1.2379 C.2       1 <0>         0.5406
      7 O1          1.7039   -1.1744   -1.1398 O.2       1 <0>        -0.5341
      8 N1          0.2309   -0.1642   -2.4557 N.am      1 <0>        -0.5870
      9 C5         -0.9612    0.6622   -2.7190 C.3       1 <0>         0.1001
     10 C6         -1.4323    0.2395   -4.1329 C.3       1 <0>        -0.1344
     11 C7         -0.0792    0.0101   -4.8565 C.3       1 <0>        -0.1069
     12 C8          0.8176   -0.5687   -3.7417 C.3       1 <0>         0.0652
     13 H2          0.8397   -1.6561   -3.8134 H         1 <0>         0.0661
     14 C9          2.2140   -0.0156   -3.8646 C.2       1 <0>         0.4962
     15 O2          2.9386   -0.3858   -4.7726 O.co2     1 <0>        -0.7023
     16 O3          2.6192    0.8020   -3.0561 O.co2     1 <0>        -0.6788
     17 H3          1.0039    1.9031    0.0027 H         1 <0>         0.0664
     18 H4         -0.5459    1.8868   -0.8726 H         1 <0>         0.0680
     19 H5         -0.5289    1.8773    0.9072 H         1 <0>         0.0715
     20 H6          0.8346   -1.5958    1.1912 H         1 <0>         0.0908
     21 H7          1.7350   -0.0630    1.2804 H         1 <0>         0.0927
     22 H8          0.5521   -0.5447    3.7401 H         1 <0>         0.0864
     23 H9         -1.7373    0.4540   -1.9825 H         1 <0>         0.0699
     24 H10        -0.6995    1.7202   -2.7069 H         1 <0>         0.0682
     25 H11        -2.0144   -0.6812   -4.0917 H         1 <0>         0.0709
     26 H12        -2.0003    1.0379   -4.6104 H         1 <0>         0.0779
     27 H13        -0.1941   -0.7041   -5.6719 H         1 <0>         0.0749
     28 H14         0.3271    0.9530   -5.2227 H         1 <0>         0.0719
@<TRIPOS>BOND
     1    1    2 1
     2    1   17 1
     3    1   18 1
     4    1   19 1
     5    2    3 1
     6    2    4 1
     7    2    6 1
     8    4    5 1
     9    4   20 1
    10    4   21 1
    11    5   22 1
    12    6    7 2
    13    6    8 am
    14    8   12 1
    15    8    9 1
    16    9   10 1
    17    9   23 1
    18    9   24 1
    19   10   11 1
    20   10   25 1
    21   10   26 1
    22   11   12 1
    23   11   27 1
    24   11   28 1
    25   12   13 1
    26   12   14 1
    27   14   15 2
    28   14   16 1
@<TRIPOS>MOLECULE
ZINC28764115
   20    19     0     0     0
SMALL
USER_CHARGES
(2R)-4-methyl-2-sulfanyl-pentanoic acid
@<TRIPOS>ATOM
      1 C1          1.3585    5.5176    1.7440 C.3       1 <0>        -0.1482
      2 C2          2.5088    5.0771    0.8365 C.3       1 <0>        -0.1032
      3 C3          3.8377    5.5432    1.4347 C.3       1 <0>        -0.1440
      4 C4          2.5099    3.5516    0.7185 C.3       1 <0>        -0.0727
      5 C5          1.2350    3.0943    0.0069 C.3       1 <0>        -0.0781
      6 H1          0.4148    3.3861    0.6793 H         1 <0>         0.0903
      7 C6          1.1765    1.5884   -0.0006 C.2       1 <0>         0.4584
      8 O1          2.1986    0.9442   -0.0139 O.co2     1 <0>        -0.6167
      9 O2         -0.0110    0.9628    0.0073 O.co2     1 <0>        -0.7709
     10 S1          1.2421    3.7077   -1.7002 S.3       1 <0>        -0.1368
     11 H2          0.4032    5.1825    1.3139 H         1 <0>         0.0567
     12 H3          1.3578    6.6143    1.8289 H         1 <0>         0.0487
     13 H4          1.4876    5.0727    2.7417 H         1 <0>         0.0503
     14 H5          2.3796    5.5220   -0.1612 H         1 <0>         0.0843
     15 H6          4.6647    5.2265    0.7822 H         1 <0>         0.0548
     16 H7          3.9668    5.0983    2.4324 H         1 <0>         0.0505
     17 H8          3.8370    6.6399    1.5196 H         1 <0>         0.0488
     18 H9          3.3884    3.2292    0.1403 H         1 <0>         0.0787
     19 H10         2.5488    3.1061    1.7235 H         1 <0>         0.0743
     20 H11         0.4010    3.4778   -2.3708 H         1 <0>        -0.0252
@<TRIPOS>BOND
     1    1    2 1
     2    1   11 1
     3    1   12 1
     4    1   13 1
     5    2    3 1
     6    2    4 1
     7    2   14 1
     8    3   15 1
     9    3   16 1
    10    3   17 1
    11    4    5 1
    12    4   18 1
    13    4   19 1
    14    5    6 1
    15    5    7 1
    16    5   10 1
    17    7    8 2
    18    7    9 1
    19   10   20 1
@<TRIPOS>MOLECULE
ZINC28764117
   20    19     0     0     0
SMALL
USER_CHARGES
(2S)-4-methyl-2-sulfanyl-pentanoic acid
@<TRIPOS>ATOM
      1 C1         -1.1825    1.6458   -1.1536 C.3       1 <0>        -0.1483
      2 C2         -0.1479    1.5016   -0.0356 C.3       1 <0>        -0.1031
      3 C3          0.2263    0.0269    0.1258 C.3       1 <0>        -0.1441
      4 C4         -0.7378    2.0247    1.2756 C.3       1 <0>        -0.0732
      5 C5         -0.9774    3.5315    1.1619 C.3       1 <0>        -0.0781
      6 H1         -1.7323    3.6396    0.3691 H         1 <0>         0.0907
      7 C6         -1.6823    4.0229    2.3999 C.2       1 <0>         0.4577
      8 O1         -1.4338    3.5274    3.4735 O.co2     1 <0>        -0.6162
      9 O2         -2.5862    5.0111    2.3099 O.co2     1 <0>        -0.7702
     10 S1          0.6140    4.3857    0.9929 S.3       1 <0>        -0.1375
     11 H2         -1.4515    2.7061   -1.2697 H         1 <0>         0.0567
     12 H3         -2.0813    1.0652   -0.8985 H         1 <0>         0.0504
     13 H4         -0.7584    1.2698   -2.0963 H         1 <0>         0.0488
     14 H5          0.7510    2.0821   -0.2905 H         1 <0>         0.0844
     15 H6          0.9701   -0.0768    0.9296 H         1 <0>         0.0549
     16 H7          0.6504   -0.3491   -0.8170 H         1 <0>         0.0489
     17 H8         -0.6725   -0.5536    0.3809 H         1 <0>         0.0505
     18 H9         -1.6920    1.5159    1.4771 H         1 <0>         0.0741
     19 H10        -0.0355    1.8262    2.0986 H         1 <0>         0.0790
     20 H11         0.6428    5.4812    0.8979 H         1 <0>        -0.0254
@<TRIPOS>BOND
     1    1    2 1
     2    1   11 1
     3    1   12 1
     4    1   13 1
     5    2    3 1
     6    2    4 1
     7    2   14 1
     8    3   15 1
     9    3   16 1
    10    3   17 1
    11    4    5 1
    12    4   18 1
    13    4   19 1
    14    5    6 1
    15    5    7 1
    16    5   10 1
    17    7    8 2
    18    7    9 1
    19   10   20 1
@<TRIPOS>MOLECULE
ZINC06020153
   38    38     0     0     0
SMALL
USER_CHARGES
(2S)-2-[[(2R)-2-benzyl-4-(hydroxyamino)-4-oxo-butanoyl]amino]propanoic acid
@<TRIPOS>ATOM
      1 C1         -5.6720    7.8357   -1.6245 C.3       1 <0>        -0.1338
      2 C2         -6.0443    6.4031   -2.0117 C.3       1 <0>         0.1040
      3 H1         -6.6185    5.9140   -1.2110 H         1 <0>         0.0838
      4 C3         -6.8536    6.4205   -3.2828 C.2       1 <0>         0.4649
      5 O1         -6.4519    5.8391   -4.2628 O.co2     1 <0>        -0.6384
      6 O2         -8.0209    7.0818   -3.3262 O.co2     1 <0>        -0.7584
      7 N1         -4.8234    5.6209   -2.2209 N.am      1 <0>        -0.7175
      8 C4         -4.2073    5.0399   -1.1723 C.2       1 <0>         0.5189
      9 O3         -4.6637    5.1647   -0.0556 O.2       1 <0>        -0.5385
     10 C5         -2.9515    4.2353   -1.3874 C.3       1 <0>        -0.0834
     11 H2         -3.1797    3.4024   -2.0688 H         1 <0>         0.1062
     12 C6         -2.4592    3.6897   -0.0454 C.3       1 <0>        -0.0736
     13 C7         -1.2751    2.7861   -0.2745 C.ar      1 <0>        -0.0718
     14 C8         -1.4698    1.4379   -0.5101 C.ar      1 <0>        -0.1160
     15 C9         -0.3833    0.6082   -0.7153 C.ar      1 <0>        -0.1173
     16 C10         0.8972    1.1284   -0.6954 C.ar      1 <0>        -0.1296
     17 C11         1.0916    2.4775   -0.4650 C.ar      1 <0>        -0.1195
     18 C12         0.0055    3.3063   -0.2546 C.ar      1 <0>        -0.1204
     19 C13        -1.8721    5.1290   -2.0015 C.3       1 <0>        -0.1256
     20 C14        -1.6481    6.3272   -1.1155 C.2       1 <0>         0.5145
     21 O4         -2.3492    6.5004   -0.1411 O.2       1 <0>        -0.4901
     22 N2         -0.6687    7.2064   -1.4059 N.am      1 <0>        -0.6046
     23 O5         -0.4583    8.3323   -0.5734 O.3       1 <0>        -0.3500
     24 H3         -5.0813    7.8230   -0.6967 H         1 <0>         0.0511
     25 H4         -6.5887    8.4231   -1.4675 H         1 <0>         0.0667
     26 H5         -5.0784    8.2910   -2.4309 H         1 <0>         0.0425
     27 H6         -4.4095    5.5077   -3.2338 H         1 <0>         0.4158
     28 H7         -2.1618    4.5265    0.6037 H         1 <0>         0.0970
     29 H8         -3.2670    3.1203    0.4375 H         1 <0>         0.0838
     30 H9         -2.4705    1.0322   -0.5301 H         1 <0>         0.1234
     31 H10        -0.5353   -0.4458   -0.8956 H         1 <0>         0.1200
     32 H11         1.7457    0.4810   -0.8602 H         1 <0>         0.1179
     33 H12         2.0921    2.8841   -0.4498 H         1 <0>         0.1183
     34 H13         0.1573    4.3604   -0.0749 H         1 <0>         0.1169
     35 H14        -0.9347    4.5610   -2.0940 H         1 <0>         0.1064
     36 H15        -2.1970    5.4649   -2.9973 H         1 <0>         0.1059
     37 H16        -0.0328    7.0493   -2.2896 H         1 <0>         0.4198
     38 H17         0.3410    9.0499   -0.8104 H         1 <0>         0.4107
@<TRIPOS>BOND
     1    1    2 1
     2    1   24 1
     3    1   25 1
     4    1   26 1
     5    2    3 1
     6    2    4 1
     7    2    7 1
     8    4    5 2
     9    4    6 1
    10    7    8 am
    11    7   27 1
    12    8    9 2
    13    8   10 1
    14   10   11 1
    15   10   12 1
    16   10   19 1
    17   12   13 1
    18   12   28 1
    19   12   29 1
    20   13   18 ar
    21   13   14 ar
    22   14   15 ar
    23   14   30 1
    24   15   16 ar
    25   15   31 1
    26   16   17 ar
    27   16   32 1
    28   17   18 ar
    29   17   33 1
    30   18   34 1
    31   19   20 1
    32   19   35 1
    33   19   36 1
    34   20   21 2
    35   20   22 am
    36   22   23 1
    37   22   37 1
    38   23   38 1
