@<TRIPOS>MOLECULE
ZINC00057001
   28    28     0     0     0
SMALL
USER_CHARGES

@<TRIPOS>ATOM
      1 C1         -0.0187    1.5258    0.0104 C.3       1 <0>        -0.1499
      2 C2          0.0021   -0.0041    0.0020 C.3       1 <0>        -0.0861
      3 H1         -1.0205   -0.3814    0.0098 H         1 <0>         0.0991
      4 C3          0.7421   -0.5109    1.2415 C.3       1 <0>        -0.0413
      5 S1         -0.1871   -0.0517    2.7303 S.3       1 <0>        -0.2560
      6 C4          0.7074   -0.4901   -1.2379 C.2       1 <0>         0.5406
      7 O1          1.7039   -1.1744   -1.1398 O.2       1 <0>        -0.5341
      8 N1          0.2309   -0.1642   -2.4557 N.am      1 <0>        -0.5870
      9 C5         -0.9612    0.6622   -2.7190 C.3       1 <0>         0.1001
     10 C6         -1.4323    0.2395   -4.1329 C.3       1 <0>        -0.1344
     11 C7         -0.0792    0.0101   -4.8565 C.3       1 <0>        -0.1069
     12 C8          0.8176   -0.5687   -3.7417 C.3       1 <0>         0.0652
     13 H2          0.8397   -1.6561   -3.8134 H         1 <0>         0.0661
     14 C9          2.2140   -0.0156   -3.8646 C.2       1 <0>         0.4962
     15 O2          2.9386   -0.3858   -4.7726 O.co2     1 <0>        -0.7023
     16 O3          2.6192    0.8020   -3.0561 O.co2     1 <0>        -0.6788
     17 H3          1.0039    1.9031    0.0027 H         1 <0>         0.0664
     18 H4         -0.5459    1.8868   -0.8726 H         1 <0>         0.0680
     19 H5         -0.5289    1.8773    0.9072 H         1 <0>         0.0715
     20 H6          0.8346   -1.5958    1.1912 H         1 <0>         0.0908
     21 H7          1.7350   -0.0630    1.2804 H         1 <0>         0.0927
     22 H8          0.5521   -0.5447    3.7401 H         1 <0>         0.0864
     23 H9         -1.7373    0.4540   -1.9825 H         1 <0>         0.0699
     24 H10        -0.6995    1.7202   -2.7069 H         1 <0>         0.0682
     25 H11        -2.0144   -0.6812   -4.0917 H         1 <0>         0.0709
     26 H12        -2.0003    1.0379   -4.6104 H         1 <0>         0.0779
     27 H13        -0.1941   -0.7041   -5.6719 H         1 <0>         0.0749
     28 H14         0.3271    0.9530   -5.2227 H         1 <0>         0.0719
@<TRIPOS>BOND
     1    1    2 1
     2    1   17 1
     3    1   18 1
     4    1   19 1
     5    2    3 1
     6    2    4 1
     7    2    6 1
     8    4    5 1
     9    4   20 1
    10    4   21 1
    11    5   22 1
    12    6    7 2
    13    6    8 am
    14    8   12 1
    15    8    9 1
    16    9   10 1
    17    9   23 1
    18    9   24 1
    19   10   11 1
    20   10   25 1
    21   10   26 1
    22   11   12 1
    23   11   27 1
    24   11   28 1
    25   12   13 1
    26   12   14 1
    27   14   15 2
    28   14   16 1
@<TRIPOS>MOLECULE
ZINC05112947
   20    19     0     0     0
SMALL
USER_CHARGES
4-amino-5-sulfanyl-pentanoic acid
@<TRIPOS>ATOM
      1 C1          3.3423    3.7187   -0.0099 C.3       1 <0>        -0.1202
      2 C2          3.4701    5.2376    0.1228 C.3       1 <0>        -0.1734
      3 C3          4.9272    5.6220    0.1109 C.2       1 <0>         0.4550
      4 O1          5.7763    4.7687    0.0070 O.co2     1 <0>        -0.6324
      5 C4          1.8630    3.3284    0.0021 C.3       1 <0>         0.0553
      6 H1          1.3891    3.7278    0.8988 H         1 <0>         0.1494
      7 C5          1.7378    1.8035   -0.0048 C.3       1 <0>        -0.1043
      8 S1         -0.0162    1.3408    0.0094 S.3       1 <0>        -0.2662
      9 H2          3.8520    3.2369    0.8245 H         1 <0>         0.1144
     10 H3          3.7955    3.3965   -0.9474 H         1 <0>         0.0915
     11 H4          2.9604    5.7193   -0.7116 H         1 <0>         0.0612
     12 H5          3.0169    5.5598    1.0603 H         1 <0>         0.0809
     13 H6          2.2286    1.3946    0.8783 H         1 <0>         0.1312
     14 H7          2.2116    1.4042   -0.9016 H         1 <0>         0.1110
     15 H8          0.0021   -0.0041    0.0020 H         1 <0>         0.1332
     16 H9          1.2140    4.8883   -1.1743 H         1 <0>         0.4410
     17 H10         1.6229    3.5241   -2.0332 H         1 <0>         0.4344
     18 O2          5.2817    6.9124    0.2158 O.co2     1 <0>        -0.7538
     19 N1          1.1780    3.8703   -1.1847 N.4       1 <0>        -0.6438
     20 H11         0.1964    3.5697   -1.1745 H         1 <0>         0.4356
@<TRIPOS>BOND
     1    1    2 1
     2    1    5 1
     3    1    9 1
     4    1   10 1
     5    2    3 1
     6    2   11 1
     7    2   12 1
     8    3    4 2
     9    3   18 1
    10    5    6 1
    11    5    7 1
    12    5   19 1
    13    7    8 1
    14    7   13 1
    15    7   14 1
    16    8   15 1
    17   16   19 1
    18   17   19 1
    19   19   20 1
@<TRIPOS>MOLECULE
ZINC13528267
   20    19     0     0     0
SMALL
USER_CHARGES
(4S)-4-amino-5-sulfanyl-pentanoic acid
@<TRIPOS>ATOM
      1 C1          0.0786    1.1786    2.5031 C.3       1 <0>        -0.1199
      2 C2         -0.5703    1.7779    3.7523 C.3       1 <0>        -0.1735
      3 C3          0.2250    1.3833    4.9700 C.2       1 <0>         0.4550
      4 O1          1.2098    0.6935    4.8509 O.co2     1 <0>        -0.6324
      5 C4         -0.7288    1.5792    1.2668 C.3       1 <0>         0.0548
      6 H1         -0.8222    2.6646    1.2299 H         1 <0>         0.1498
      7 C5         -0.0127    1.0858    0.0080 C.3       1 <0>        -0.1048
      8 S1         -0.8901    1.6867   -1.4616 S.3       1 <0>        -0.2619
      9 H2          0.0967    0.0921    2.5888 H         1 <0>         0.0914
     10 H3          1.0980    1.5526    2.4082 H         1 <0>         0.1144
     11 H4         -0.5884    2.8644    3.6666 H         1 <0>         0.0810
     12 H5         -1.5897    1.4039    3.8473 H         1 <0>         0.0611
     13 H6          0.0021   -0.0041    0.0020 H         1 <0>         0.1099
     14 H7          1.0099    1.4631    0.0003 H         1 <0>         0.1314
     15 H8         -0.1764    1.1953   -2.4903 H         1 <0>         0.1301
     16 H9         -2.0063   -0.0317    1.3735 H         1 <0>         0.4341
     17 H10        -2.5835    1.3343    2.1262 H         1 <0>         0.4413
     18 O2         -0.1606    1.7982    6.1869 O.co2     1 <0>        -0.7538
     19 N1         -2.0755    0.9830    1.3162 N.4       1 <0>        -0.6440
     20 H11        -2.5882    1.2362    0.4634 H         1 <0>         0.4360
@<TRIPOS>BOND
     1    1    2 1
     2    1    5 1
     3    1    9 1
     4    1   10 1
     5    2    3 1
     6    2   11 1
     7    2   12 1
     8    3    4 2
     9    3   18 1
    10    5    6 1
    11    5    7 1
    12    5   19 1
    13    7    8 1
    14    7   13 1
    15    7   14 1
    16    8   15 1
    17   16   19 1
    18   17   19 1
    19   19   20 1
@<TRIPOS>MOLECULE
ZINC03872462
   70    69     0     0     0
SMALL
USER_CHARGES
2-[2-[2-(3-amino-2-hydroxy-5-methyl-hexanoyl)amino-3-methyl-butanoyl]amino-3-methyl-butanoyl]aminobutanedioic acid
@<TRIPOS>ATOM
      1 C1          2.6284   -2.3298   -2.5474 C.3       1 <0>        -0.1667
      2 C2          1.1170   -2.5192   -2.6918 C.3       1 <0>        -0.1047
      3 C3          0.8041   -4.0063   -2.8694 C.3       1 <0>        -0.1525
      4 C4          0.4153   -1.9968   -1.4366 C.3       1 <0>        -0.1348
      5 C5          0.6067   -0.4820   -1.3384 C.3       1 <0>        -0.0054
      6 H1          1.6705   -0.2471   -1.3733 H         1 <0>         0.1610
      7 C6          0.0159    0.0224   -0.0203 C.3       1 <0>         0.0823
      8 H2          0.5805   -0.3942    0.8139 H         1 <0>         0.1685
      9 C7          0.0937    1.5268    0.0220 C.2       1 <0>         0.4540
     10 O1         -0.9239    2.1866    0.0289 O.2       1 <0>        -0.5036
     11 N1          1.2940    2.1391    0.0466 N.am      1 <0>        -0.6909
     12 C8          1.3696    3.6016    0.0878 C.3       1 <0>         0.1285
     13 H3          0.5514    4.0242   -0.4953 H         1 <0>         0.1188
     14 C9          1.2613    4.0772    1.5379 C.3       1 <0>        -0.1082
     15 C10        -0.0744    3.6188    2.1266 C.3       1 <0>        -0.1348
     16 C11         2.4098    3.4840    2.3564 C.3       1 <0>        -0.1503
     17 C12         2.6853    4.0531   -0.4921 C.2       1 <0>         0.5122
     18 O2          3.4814    3.2339   -0.8996 O.2       1 <0>        -0.5479
     19 N2          2.9772    5.3672   -0.5578 N.am      1 <0>        -0.6797
     20 C13         4.2562    5.8061   -1.1215 C.3       1 <0>         0.1324
     21 H4          5.0326    5.0851   -0.8657 H         1 <0>         0.1118
     22 C14         4.1351    5.9067   -2.6434 C.3       1 <0>        -0.1001
     23 C15         3.7680    4.5369   -3.2175 C.3       1 <0>        -0.1278
     24 C16         3.0453    6.9188   -3.0025 C.3       1 <0>        -0.1529
     25 C17         4.6177    7.1554   -0.5561 C.2       1 <0>         0.5177
     26 O3          3.8797    7.6971    0.2394 O.2       1 <0>        -0.5589
     27 N3          5.7612    7.7602   -0.9344 N.am      1 <0>        -0.6580
     28 C18         6.1127    9.0719   -0.3847 C.3       1 <0>         0.1244
     29 H5          5.7774    9.1337    0.6506 H         1 <0>         0.0884
     30 C19         7.6302    9.2587   -0.4414 C.3       1 <0>        -0.1520
     31 C20         8.2940    8.2552    0.4661 C.2       1 <0>         0.4632
     32 O4          7.6223    7.4712    1.0938 O.co2     1 <0>        -0.6385
     33 C21         5.4430   10.1519   -1.1948 C.2       1 <0>         0.4642
     34 O5          4.7440    9.8562   -2.1349 O.co2     1 <0>        -0.6422
     35 O6         -1.3497   -0.3870    0.0772 O.3       1 <0>        -0.5084
     36 H6          2.9823   -2.8821   -1.6768 H         1 <0>         0.0705
     37 H7          3.1283   -2.7020   -3.4416 H         1 <0>         0.0704
     38 H8          2.8513   -1.2704   -2.4208 H         1 <0>         0.0575
     39 H9          0.7632   -1.9670   -3.5623 H         1 <0>         0.0626
     40 H10        -0.2722   -4.1407   -2.9776 H         1 <0>         0.0602
     41 H11         1.3083   -4.3798   -3.7607 H         1 <0>         0.0665
     42 H12         1.1532   -4.5579   -1.9965 H         1 <0>         0.0659
     43 H13         0.8433   -2.4749   -0.5554 H         1 <0>         0.1186
     44 H14        -0.6488   -2.2257   -1.4933 H         1 <0>         0.0986
     45 H15         2.1079    1.6114    0.0371 H         1 <0>         0.4138
     46 H16         1.3175    5.1654    1.5685 H         1 <0>         0.0978
     47 H17        -0.8926    4.0415    1.5435 H         1 <0>         0.0638
     48 H18        -0.1307    2.5307    2.0960 H         1 <0>         0.0468
     49 H19        -0.1516    3.9577    3.1597 H         1 <0>         0.0580
     50 H20         3.3614    3.8106    1.9370 H         1 <0>         0.0643
     51 H21         2.3326    3.8229    3.3895 H         1 <0>         0.0663
     52 H22         2.3536    2.3959    2.3258 H         1 <0>         0.0498
     53 H23         2.3404    6.0224   -0.2319 H         1 <0>         0.4127
     54 H24         5.0867    6.2333   -3.0628 H         1 <0>         0.0888
     55 H25         3.6818    4.6085   -4.3017 H         1 <0>         0.0453
     56 H26         4.5444    3.8158   -2.9616 H         1 <0>         0.0609
     57 H27         2.8164    4.2103   -2.7981 H         1 <0>         0.0415
     58 H28         3.3068    7.8948   -2.5935 H         1 <0>         0.0911
     59 H29         2.9590    6.9905   -4.0867 H         1 <0>         0.0510
     60 H30         2.0937    6.5923   -2.5831 H         1 <0>         0.0409
     61 H31         6.3515    7.3270   -1.5707 H         1 <0>         0.3879
     62 H32         7.9767    9.1089   -1.4639 H         1 <0>         0.0602
     63 H33         7.8845   10.2673   -0.1156 H         1 <0>         0.0884
     64 H34        -1.9125   -0.0521   -0.6343 H         1 <0>         0.3777
     65 H35        -1.0646   -0.0309   -2.4528 H         1 <0>         0.4322
     66 H36         0.0890    1.1670   -2.4570 H         1 <0>         0.4405
     67 O7          9.6315    8.2325    0.5771 O.co2     1 <0>        -0.7861
     68 O8          5.6232   11.4423   -0.8721 O.co2     1 <0>        -0.7700
     69 N4         -0.0645    0.1603   -2.4823 N.4       1 <0>        -0.6478
     70 H37         0.3229   -0.2158   -3.3556 H         1 <0>         0.4442
@<TRIPOS>BOND
     1    1    2 1
     2    1   36 1
     3    1   37 1
     4    1   38 1
     5    2    3 1
     6    2    4 1
     7    2   39 1
     8    3   40 1
     9    3   41 1
    10    3   42 1
    11    4    5 1
    12    4   43 1
    13    4   44 1
    14    5    6 1
    15    5    7 1
    16    5   69 1
    17    7    8 1
    18    7    9 1
    19    7   35 1
    20    9   10 2
    21    9   11 am
    22   11   12 1
    23   11   45 1
    24   12   13 1
    25   12   14 1
    26   12   17 1
    27   14   15 1
    28   14   16 1
    29   14   46 1
    30   15   47 1
    31   15   48 1
    32   15   49 1
    33   16   50 1
    34   16   51 1
    35   16   52 1
    36   17   18 2
    37   17   19 am
    38   19   20 1
    39   19   53 1
    40   20   21 1
    41   20   22 1
    42   20   25 1
    43   22   23 1
    44   22   24 1
    45   22   54 1
    46   23   55 1
    47   23   56 1
    48   23   57 1
    49   24   58 1
    50   24   59 1
    51   24   60 1
    52   25   26 2
    53   25   27 am
    54   27   28 1
    55   27   61 1
    56   28   29 1
    57   28   30 1
    58   28   33 1
    59   30   31 1
    60   30   62 1
    61   30   63 1
    62   31   32 2
    63   31   67 1
    64   33   34 2
    65   33   68 1
    66   35   64 1
    67   65   69 1
    68   66   69 1
    69   69   70 1
@<TRIPOS>MOLECULE
ZINC06020153
   38    38     0     0     0
SMALL
USER_CHARGES
(2S)-2-[[(2R)-2-benzyl-4-(hydroxyamino)-4-oxo-butanoyl]amino]propanoic acid
@<TRIPOS>ATOM
      1 C1         -5.6720    7.8357   -1.6245 C.3       1 <0>        -0.1338
      2 C2         -6.0443    6.4031   -2.0117 C.3       1 <0>         0.1040
      3 H1         -6.6185    5.9140   -1.2110 H         1 <0>         0.0838
      4 C3         -6.8536    6.4205   -3.2828 C.2       1 <0>         0.4649
      5 O1         -6.4519    5.8391   -4.2628 O.co2     1 <0>        -0.6384
      6 O2         -8.0209    7.0818   -3.3262 O.co2     1 <0>        -0.7584
      7 N1         -4.8234    5.6209   -2.2209 N.am      1 <0>        -0.7175
      8 C4         -4.2073    5.0399   -1.1723 C.2       1 <0>         0.5189
      9 O3         -4.6637    5.1647   -0.0556 O.2       1 <0>        -0.5385
     10 C5         -2.9515    4.2353   -1.3874 C.3       1 <0>        -0.0834
     11 H2         -3.1797    3.4024   -2.0688 H         1 <0>         0.1062
     12 C6         -2.4592    3.6897   -0.0454 C.3       1 <0>        -0.0736
     13 C7         -1.2751    2.7861   -0.2745 C.ar      1 <0>        -0.0718
     14 C8         -1.4698    1.4379   -0.5101 C.ar      1 <0>        -0.1160
     15 C9         -0.3833    0.6082   -0.7153 C.ar      1 <0>        -0.1173
     16 C10         0.8972    1.1284   -0.6954 C.ar      1 <0>        -0.1296
     17 C11         1.0916    2.4775   -0.4650 C.ar      1 <0>        -0.1195
     18 C12         0.0055    3.3063   -0.2546 C.ar      1 <0>        -0.1204
     19 C13        -1.8721    5.1290   -2.0015 C.3       1 <0>        -0.1256
     20 C14        -1.6481    6.3272   -1.1155 C.2       1 <0>         0.5145
     21 O4         -2.3492    6.5004   -0.1411 O.2       1 <0>        -0.4901
     22 N2         -0.6687    7.2064   -1.4059 N.am      1 <0>        -0.6046
     23 O5         -0.4583    8.3323   -0.5734 O.3       1 <0>        -0.3500
     24 H3         -5.0813    7.8230   -0.6967 H         1 <0>         0.0511
     25 H4         -6.5887    8.4231   -1.4675 H         1 <0>         0.0667
     26 H5         -5.0784    8.2910   -2.4309 H         1 <0>         0.0425
     27 H6         -4.4095    5.5077   -3.2338 H         1 <0>         0.4158
     28 H7         -2.1618    4.5265    0.6037 H         1 <0>         0.0970
     29 H8         -3.2670    3.1203    0.4375 H         1 <0>         0.0838
     30 H9         -2.4705    1.0322   -0.5301 H         1 <0>         0.1234
     31 H10        -0.5353   -0.4458   -0.8956 H         1 <0>         0.1200
     32 H11         1.7457    0.4810   -0.8602 H         1 <0>         0.1179
     33 H12         2.0921    2.8841   -0.4498 H         1 <0>         0.1183
     34 H13         0.1573    4.3604   -0.0749 H         1 <0>         0.1169
     35 H14        -0.9347    4.5610   -2.0940 H         1 <0>         0.1064
     36 H15        -2.1970    5.4649   -2.9973 H         1 <0>         0.1059
     37 H16        -0.0328    7.0493   -2.2896 H         1 <0>         0.4198
     38 H17         0.3410    9.0499   -0.8104 H         1 <0>         0.4107
@<TRIPOS>BOND
     1    1    2 1
     2    1   24 1
     3    1   25 1
     4    1   26 1
     5    2    3 1
     6    2    4 1
     7    2    7 1
     8    4    5 2
     9    4    6 1
    10    7    8 am
    11    7   27 1
    12    8    9 2
    13    8   10 1
    14   10   11 1
    15   10   12 1
    16   10   19 1
    17   12   13 1
    18   12   28 1
    19   12   29 1
    20   13   18 ar
    21   13   14 ar
    22   14   15 ar
    23   14   30 1
    24   15   16 ar
    25   15   31 1
    26   16   17 ar
    27   16   32 1
    28   17   18 ar
    29   17   33 1
    30   18   34 1
    31   19   20 1
    32   19   35 1
    33   19   36 1
    34   20   21 2
    35   20   22 am
    36   22   23 1
    37   22   37 1
    38   23   38 1
