@<TRIPOS>MOLECULE
ZINC02560264
   37    42     0     0     0
SMALL
USER_CHARGES

@<TRIPOS>ATOM
      1 C1         -0.0166    1.3740    0.0096 C.ar      1 <0>        -0.1440
      2 C2          1.1716    2.0886    0.0021 C.ar      1 <0>        -0.0817
      3 C3          2.3839    1.4333   -0.0130 C.ar      1 <0>        -0.1381
      4 C4          2.4234    0.0421   -0.0208 C.ar      1 <0>         0.1368
      5 C5          1.2204   -0.6789   -0.0132 C.ar      1 <0>        -0.0962
      6 C6          0.0021   -0.0041    0.0020 C.ar      1 <0>        -0.0609
      7 C7          1.5891   -2.1077   -0.0244 C.ar      1 <0>        -0.0649
      8 C8          0.8454   -3.2819   -0.0236 C.ar      1 <0>        -0.0450
      9 C9          1.4816   -4.5185   -0.0365 C.ar      1 <0>        -0.1358
     10 C10         2.8940   -4.5714   -0.0501 C.ar      1 <0>        -0.0059
     11 C11         3.8569   -5.6841   -0.0662 C.ar      1 <0>        -0.1090
     12 C12         3.7202   -7.0720   -0.0736 C.ar      1 <0>        -0.0448
     13 C13         4.8431   -7.8694   -0.0897 C.ar      1 <0>        -0.1554
     14 C14         6.1070   -7.2977   -0.0979 C.ar      1 <0>        -0.0739
     15 C15         6.2575   -5.9282   -0.0907 C.ar      1 <0>        -0.1504
     16 C16         5.1356   -5.1043   -0.0750 C.ar      1 <0>         0.1441
     17 N1          4.9880   -3.7311   -0.0653 N.pl3     1 <0>        -0.6105
     18 H1          5.7195   -3.0941   -0.0687 H         1 <0>         0.4165
     19 C17         3.6443   -3.3949   -0.0504 C.ar      1 <0>         0.1138
     20 C18         2.9910   -2.1538   -0.0381 C.ar      1 <0>         0.1603
     21 N2          3.4713   -0.8601   -0.0356 N.pl3     1 <0>        -0.6071
     22 H2          4.4105   -0.6179   -0.0435 H         1 <0>         0.4182
     23 C19         0.4534   -5.5701   -0.0322 C.2       1 <0>         0.5671
     24 O1          0.6821   -6.7645   -0.0405 O.2       1 <0>        -0.5235
     25 N3         -0.7748   -5.0244   -0.0172 N.am      1 <0>        -0.7239
     26 C20        -0.6370   -3.5635   -0.0107 C.3       1 <0>         0.1438
     27 H3         -0.9602    1.8992    0.0259 H         1 <0>         0.1299
     28 H4          1.1469    3.1683    0.0077 H         1 <0>         0.1312
     29 H5          3.3035    1.9995   -0.0190 H         1 <0>         0.1253
     30 H6         -0.9246   -0.5587    0.0075 H         1 <0>         0.1280
     31 H7          2.7375   -7.5198   -0.0665 H         1 <0>         0.1456
     32 H8          4.7391   -8.9443   -0.0955 H         1 <0>         0.1286
     33 H9          6.9811   -7.9319   -0.1098 H         1 <0>         0.1300
     34 H10         7.2462   -5.4938   -0.0972 H         1 <0>         0.1240
     35 H11        -1.6120   -5.5143   -0.0117 H         1 <0>         0.4271
     36 H12        -1.0897   -3.1483    0.8897 H         1 <0>         0.1004
     37 H13        -1.1071   -3.1386   -0.8976 H         1 <0>         0.1004
@<TRIPOS>BOND
     1    1    6 ar
     2    1    2 ar
     3    1   27 1
     4    2    3 ar
     5    2   28 1
     6    3    4 ar
     7    3   29 1
     8    4   21 1
     9    4    5 ar
    10    5    6 ar
    11    5    7 1
    12    6   30 1
    13    7   20 ar
    14    7    8 ar
    15    8   26 1
    16    8    9 ar
    17    9   10 ar
    18    9   23 1
    19   10   19 ar
    20   10   11 1
    21   11   16 ar
    22   11   12 ar
    23   12   13 ar
    24   12   31 1
    25   13   14 ar
    26   13   32 1
    27   14   15 ar
    28   14   33 1
    29   15   16 ar
    30   15   34 1
    31   16   17 1
    32   17   18 1
    33   17   19 1
    34   19   20 ar
    35   20   21 1
    36   21   22 1
    37   23   24 2
    38   23   25 am
    39   25   26 1
    40   25   35 1
    41   26   36 1
    42   26   37 1
@<TRIPOS>MOLECULE
ZINC03874886
   66    69     0     0     0
SMALL
USER_CHARGES

@<TRIPOS>ATOM
      1 C1         -3.2064   -6.8800   -3.8436 C.3       1 <0>        -0.1078
      2 C2         -2.7956   -5.4579   -4.1263 C.ar      1 <0>        -0.1483
      3 C3         -1.9349   -4.7996   -3.2563 C.ar      1 <0>         0.1478
      4 C4         -1.5490   -3.4887   -3.5059 C.ar      1 <0>        -0.1300
      5 C5         -2.0187   -2.8262   -4.6244 C.ar      1 <0>         0.1751
      6 C6         -2.8904   -3.4844   -5.5119 C.ar      1 <0>        -0.2165
      7 C7         -3.2715   -4.8146   -5.2529 C.ar      1 <0>         0.1656
      8 O1         -4.1072   -5.4608   -6.1032 O.3       1 <0>        -0.4840
      9 C8         -3.3932   -2.7929   -6.6971 C.2       1 <0>         0.4171
     10 O2         -2.8274   -2.9253   -7.7627 O.2       1 <0>        -0.4425
     11 C9         -4.6142   -1.9153   -6.5962 C.3       1 <0>        -0.1955
     12 O3         -1.6412   -1.5462   -4.8655 O.3       1 <0>        -0.4743
     13 C10        -0.6154   -2.7864   -2.5539 C.3       1 <0>        -0.0211
     14 C11         0.7897   -2.8416   -3.0958 C.ar      1 <0>        -0.1509
     15 C12         1.2888   -1.7736   -3.8292 C.ar      1 <0>         0.1811
     16 C13         2.5918   -1.8227   -4.3324 C.ar      1 <0>        -0.1634
     17 C14         3.3948   -2.9442   -4.0996 C.ar      1 <0>         0.1953
     18 C15         2.8878   -4.0178   -3.3597 C.ar      1 <0>        -0.2048
     19 C16         1.5764   -3.9538   -2.8546 C.ar      1 <0>         0.1880
     20 O4          1.0796   -4.9888   -2.1324 O.3       1 <0>        -0.4722
     21 C17         3.7220   -5.2034   -3.1074 C.2       1 <0>         0.4520
     22 O5          3.7768   -6.0966   -3.9339 O.2       1 <0>        -0.4460
     23 C18         4.4863   -5.3095   -1.8628 C.2       1 <0>        -0.2247
     24 C19         5.3294   -6.3459   -1.6753 C.2       1 <0>        -0.0105
     25 C20         6.0975   -6.4526   -0.4245 C.ar      1 <0>        -0.0826
     26 C21         5.9518   -5.4847    0.5746 C.ar      1 <0>        -0.0966
     27 C22         6.6746   -5.5919    1.7438 C.ar      1 <0>        -0.1228
     28 C23         7.5425   -6.6539    1.9303 C.ar      1 <0>        -0.1050
     29 C24         7.6926   -7.6155    0.9462 C.ar      1 <0>        -0.1234
     30 C25         6.9726   -7.5255   -0.2263 C.ar      1 <0>        -0.0928
     31 O6          4.6537   -2.9651   -4.6000 O.3       1 <0>        -0.2967
     32 C26         4.8680   -2.3104   -5.8511 C.3       1 <0>         0.1466
     33 C27         4.2506   -0.9368   -5.8407 C.2       1 <0>        -0.1789
     34 C28         3.1562   -0.7047   -5.1177 C.2       1 <0>        -0.0892
     35 C29         6.3717   -2.1862   -6.1050 C.3       1 <0>        -0.1381
     36 C30         4.2348   -3.1400   -6.9700 C.3       1 <0>        -0.1736
     37 O7          0.5129   -0.6846   -4.0574 O.3       1 <0>        -0.4789
     38 O8         -1.4689   -5.4413   -2.1555 O.3       1 <0>        -0.4726
     39 H1         -2.4969   -7.5628   -4.3111 H         1 <0>         0.0729
     40 H2         -3.2166   -7.0479   -2.7667 H         1 <0>         0.0768
     41 H3         -4.2026   -7.0578   -4.2485 H         1 <0>         0.0719
     42 H4         -5.0444   -5.3557   -5.8893 H         1 <0>         0.3949
     43 H5         -4.3192   -0.9186   -6.2681 H         1 <0>         0.1038
     44 H6         -5.0956   -1.8491   -7.5718 H         1 <0>         0.0884
     45 H7         -5.3109   -2.3436   -5.8756 H         1 <0>         0.0842
     46 H8         -0.8388   -1.4667   -5.3993 H         1 <0>         0.3987
     47 H9         -0.9223   -1.7461   -2.4452 H         1 <0>         0.0963
     48 H10        -0.6496   -3.2787   -1.5820 H         1 <0>         0.1017
     49 H11         0.7349   -5.7144   -2.6706 H         1 <0>         0.3839
     50 H12         4.3750   -4.5582   -1.0950 H         1 <0>         0.1341
     51 H13         5.4407   -7.0973   -2.4430 H         1 <0>         0.1344
     52 H14         5.2753   -4.6553    0.4304 H         1 <0>         0.1280
     53 H15         6.5635   -4.8452    2.5161 H         1 <0>         0.1269
     54 H16         8.1059   -6.7323    2.8483 H         1 <0>         0.1255
     55 H17         8.3720   -8.4410    1.0989 H         1 <0>         0.1273
     56 H18         7.0873   -8.2790   -0.9914 H         1 <0>         0.1283
     57 H19         4.6952   -0.1402   -6.4187 H         1 <0>         0.1375
     58 H20         2.6948    0.2717   -5.1056 H         1 <0>         0.1397
     59 H21         6.8190   -3.1799   -6.1314 H         1 <0>         0.0717
     60 H22         6.5390   -1.6869   -7.0593 H         1 <0>         0.0840
     61 H23         6.8283   -1.6035   -5.3050 H         1 <0>         0.0696
     62 H24         3.1646   -3.2386   -6.7880 H         1 <0>         0.0601
     63 H25         4.3964   -2.6432   -7.9266 H         1 <0>         0.0786
     64 H26         4.6922   -4.1291   -6.9924 H         1 <0>         0.0726
     65 H27         0.6450    0.0325   -3.4222 H         1 <0>         0.4011
     66 H28        -0.7068   -6.0116   -2.3259 H         1 <0>         0.3825
@<TRIPOS>BOND
     1    1    2 1
     2    1   39 1
     3    1   40 1
     4    1   41 1
     5    2    7 ar
     6    2    3 ar
     7    3    4 ar
     8    3   38 1
     9    4    5 ar
    10    4   13 1
    11    5    6 ar
    12    5   12 1
    13    6    7 ar
    14    6    9 1
    15    7    8 1
    16    8   42 1
    17    9   10 2
    18    9   11 1
    19   11   43 1
    20   11   44 1
    21   11   45 1
    22   12   46 1
    23   13   14 1
    24   13   47 1
    25   13   48 1
    26   14   19 ar
    27   14   15 ar
    28   15   16 ar
    29   15   37 1
    30   16   34 1
    31   16   17 ar
    32   17   18 ar
    33   17   31 1
    34   18   19 ar
    35   18   21 1
    36   19   20 1
    37   20   49 1
    38   21   22 2
    39   21   23 1
    40   23   24 2
    41   23   50 1
    42   24   25 1
    43   24   51 1
    44   25   30 ar
    45   25   26 ar
    46   26   27 ar
    47   26   52 1
    48   27   28 ar
    49   27   53 1
    50   28   29 ar
    51   28   54 1
    52   29   30 ar
    53   29   55 1
    54   30   56 1
    55   31   32 1
    56   32   33 1
    57   32   35 1
    58   32   36 1
    59   33   34 2
    60   33   57 1
    61   34   58 1
    62   35   59 1
    63   35   60 1
    64   35   61 1
    65   36   62 1
    66   36   63 1
    67   36   64 1
    68   37   65 1
    69   38   66 1
@<TRIPOS>MOLECULE
ZINC03874886
   65    68     0     0     0
SMALL
USER_CHARGES

@<TRIPOS>ATOM
      1 C1         -0.0864    1.5060    0.0434 C.3       1 <0>        -0.0970
      2 C2         -0.0725   -0.0009    0.0305 C.ar      1 <0>        -0.1650
      3 C3         -0.0639   -0.6830   -1.1802 C.ar      1 <0>         0.1792
      4 C4         -0.0511   -2.0719   -1.2053 C.ar      1 <0>        -0.1185
      5 C5         -0.0468   -2.7890   -0.0237 C.ar      1 <0>         0.1741
      6 C6         -0.0550   -2.1073    1.2076 C.ar      1 <0>        -0.2369
      7 C7         -0.0627   -0.6997    1.2225 C.ar      1 <0>         0.1503
      8 O1         -0.0659   -0.0317    2.4027 O.3       1 <0>        -0.4883
      9 C8         -0.0511   -2.8560    2.4627 C.2       1 <0>         0.4256
     10 O2          0.9991   -3.2291    2.9434 O.2       1 <0>        -0.4527
     11 C9         -1.3509   -3.1648    3.1599 C.3       1 <0>        -0.1939
     12 O3         -0.0352   -4.1448   -0.0507 O.3       1 <0>        -0.4876
     13 C10        -0.0424   -2.7991   -2.5252 C.3       1 <0>         0.0030
     14 C11         1.3813   -3.0285   -2.9629 C.ar      1 <0>        -0.2590
     15 C12         2.0262   -2.0757   -3.7399 C.ar      1 <0>         0.3377
     16 C13         3.3467   -2.2863   -4.1467 C.ar      1 <0>        -0.2992
     17 C14         4.0208   -3.4539   -3.7735 C.ar      1 <0>         0.2289
     18 C15         3.3671   -4.4109   -2.9901 C.ar      1 <0>        -0.3307
     19 C16         2.0396   -4.1846   -2.5832 C.ar      1 <0>         0.2078
     20 O4          1.4009   -5.1058   -1.8196 O.3       1 <0>        -0.5022
     21 C17         4.0647   -5.6434   -2.5904 C.2       1 <0>         0.4724
     22 O5          4.0785   -6.6052   -3.3379 O.2       1 <0>        -0.4699
     23 C18         4.7423   -5.7137   -1.2942 C.2       1 <0>        -0.1932
     24 C19         5.2903   -6.8754   -0.8816 C.2       1 <0>        -0.0510
     25 C20         5.9713   -6.9460    0.4211 C.ar      1 <0>        -0.0644
     26 C21         6.0475   -5.8125    1.2368 C.ar      1 <0>        -0.1010
     27 C22         6.6869   -5.8869    2.4562 C.ar      1 <0>        -0.1197
     28 C23         7.2523   -7.0792    2.8736 C.ar      1 <0>        -0.1169
     29 C24         7.1815   -8.2053    2.0719 C.ar      1 <0>        -0.1249
     30 C25         6.5405   -8.1486    0.8524 C.ar      1 <0>        -0.1026
     31 O6          5.3000   -3.6323   -4.1827 O.3       1 <0>        -0.3163
     32 C26         5.6535   -3.1063   -5.4627 C.3       1 <0>         0.1640
     33 C27         5.1735   -1.6854   -5.6004 C.2       1 <0>        -0.2753
     34 C28         4.0645   -1.2942   -4.9747 C.2       1 <0>        -0.0093
     35 C29         7.1749   -3.1428   -5.6208 C.3       1 <0>        -0.1320
     36 C30         5.0124   -3.9640   -6.5555 C.3       1 <0>        -0.1670
     37 O7          1.3756   -0.9425   -4.1042 O.3       1 <0>        -0.6788
     38 O8         -0.0685    0.0121   -2.3453 O.3       1 <0>        -0.4813
     39 H1          0.9379    1.8788    0.0436 H         1 <0>         0.0654
     40 H2         -0.6062    1.8722   -0.8420 H         1 <0>         0.0726
     41 H3         -0.6009    1.8570    0.9379 H         1 <0>         0.0615
     42 H4         -0.9501    0.1536    2.7474 H         1 <0>         0.3845
     43 H5         -1.6916   -4.1587    2.8699 H         1 <0>         0.0991
     44 H6         -1.2009   -3.1327    4.2391 H         1 <0>         0.0848
     45 H7         -2.1003   -2.4264    2.8752 H         1 <0>         0.0798
     46 H8          0.8515   -4.5305   -0.0572 H         1 <0>         0.4006
     47 H9         -0.5476   -3.7586   -2.4147 H         1 <0>         0.0667
     48 H10        -0.5606   -2.1997   -3.2737 H         1 <0>         0.0871
     49 H11         0.9263   -5.7775   -2.3282 H         1 <0>         0.3886
     50 H12         4.8035   -4.8355   -0.6685 H         1 <0>         0.1286
     51 H13         5.2291   -7.7536   -1.5073 H         1 <0>         0.1304
     52 H14         5.6071   -4.8813    0.9123 H         1 <0>         0.1293
     53 H15         6.7469   -5.0123    3.0871 H         1 <0>         0.1243
     54 H16         7.7518   -7.1312    3.8297 H         1 <0>         0.1208
     55 H17         7.6254   -9.1320    2.4044 H         1 <0>         0.1224
     56 H18         6.4822   -9.0292    0.2299 H         1 <0>         0.1252
     57 H19         5.7283   -0.9840   -6.2059 H         1 <0>         0.1127
     58 H20         3.7006   -0.2818   -5.0695 H         1 <0>         0.1205
     59 H21         7.5240   -4.1722   -5.5399 H         1 <0>         0.0603
     60 H22         7.4484   -2.7420   -6.5968 H         1 <0>         0.0722
     61 H23         7.6361   -2.5402   -4.8383 H         1 <0>         0.0620
     62 H24         3.9286   -3.9481   -6.4408 H         1 <0>         0.0618
     63 H25         5.2801   -3.5654   -7.5340 H         1 <0>         0.0645
     64 H26         5.3718   -4.9895   -6.4702 H         1 <0>         0.0584
     65 H27         0.8136    0.2220   -2.6816 H         1 <0>         0.4076
@<TRIPOS>BOND
     1    1    2 1
     2    1   39 1
     3    1   40 1
     4    1   41 1
     5    2    7 ar
     6    2    3 ar
     7    3    4 ar
     8    3   38 1
     9    4    5 ar
    10    4   13 1
    11    5    6 ar
    12    5   12 1
    13    6    7 ar
    14    6    9 1
    15    7    8 1
    16    8   42 1
    17    9   10 2
    18    9   11 1
    19   11   43 1
    20   11   44 1
    21   11   45 1
    22   12   46 1
    23   13   14 1
    24   13   47 1
    25   13   48 1
    26   14   19 ar
    27   14   15 ar
    28   15   16 ar
    29   15   37 1
    30   16   34 1
    31   16   17 ar
    32   17   18 ar
    33   17   31 1
    34   18   19 ar
    35   18   21 1
    36   19   20 1
    37   20   49 1
    38   21   22 2
    39   21   23 1
    40   23   24 2
    41   23   50 1
    42   24   25 1
    43   24   51 1
    44   25   30 ar
    45   25   26 ar
    46   26   27 ar
    47   26   52 1
    48   27   28 ar
    49   27   53 1
    50   28   29 ar
    51   28   54 1
    52   29   30 ar
    53   29   55 1
    54   30   56 1
    55   31   32 1
    56   32   33 1
    57   32   35 1
    58   32   36 1
    59   33   34 2
    60   33   57 1
    61   34   58 1
    62   35   59 1
    63   35   60 1
    64   35   61 1
    65   36   62 1
    66   36   63 1
    67   36   64 1
    68   38   65 1
@<TRIPOS>MOLECULE
ZINC13473130
   25    26     0     0     0
SMALL
USER_CHARGES

@<TRIPOS>ATOM
      1 C1         -0.0169    1.3944    0.0097 C.ar      1 <0>        -0.0334
      2 C2          1.1676    2.0970    0.0022 C.ar      1 <0>        -0.1528
      3 C3          2.3804    1.4185   -0.0131 C.ar      1 <0>         0.1430
      4 C4          2.4044    0.0290   -0.0207 C.ar      1 <0>        -0.1534
      5 C5          1.2252   -0.6824   -0.0133 C.ar      1 <0>        -0.0734
      6 C6          0.0021   -0.0041    0.0020 C.ar      1 <0>         0.0278
      7 N1         -1.1695   -0.7048    0.0094 N.2       1 <0>        -0.1987
      8 N2         -1.1497   -1.9946    0.0023 N.2       1 <0>        -0.2189
      9 C7         -2.3227   -2.6963    0.0098 C.ar      1 <0>         0.0614
     10 C8         -3.5455   -2.0194    0.0193 C.ar      1 <0>        -0.0940
     11 C9         -4.7249   -2.7334    0.0268 C.ar      1 <0>        -0.0947
     12 C10        -4.6999   -4.1181    0.0249 C.ar      1 <0>        -0.0686
     13 C11        -3.4918   -4.7952    0.0159 C.ar      1 <0>        -0.0948
     14 C12        -2.3048   -4.0938    0.0021 C.ar      1 <0>        -0.0530
     15 Br1        -6.3227   -5.0888    0.0353 Br        1 <0>        -0.0389
     16 O1          3.5457    2.1155   -0.0209 O.3       1 <0>        -0.4969
     17 H1         -0.9588    1.9225    0.0260 H         1 <0>         0.1425
     18 H2          1.1540    3.1769    0.0077 H         1 <0>         0.1420
     19 H3          3.3493   -0.4939   -0.0329 H         1 <0>         0.1370
     20 H4          1.2448   -1.7622   -0.0196 H         1 <0>         0.1433
     21 H5         -3.5664   -0.9396    0.0211 H         1 <0>         0.1463
     22 H6         -5.6705   -2.2117    0.0345 H         1 <0>         0.1396
     23 H7         -3.4794   -5.8752    0.0152 H         1 <0>         0.1445
     24 H8         -1.3634   -4.6230   -0.0098 H         1 <0>         0.1458
     25 H9          3.8918    2.3129    0.8602 H         1 <0>         0.3983
@<TRIPOS>BOND
     1    1    6 ar
     2    1    2 ar
     3    1   17 1
     4    2    3 ar
     5    2   18 1
     6    3    4 ar
     7    3   16 1
     8    4    5 ar
     9    4   19 1
    10    5    6 ar
    11    5   20 1
    12    6    7 1
    13    7    8 2
    14    8    9 1
    15    9   14 ar
    16    9   10 ar
    17   10   11 ar
    18   10   21 1
    19   11   12 ar
    20   11   22 1
    21   12   13 ar
    22   12   15 1
    23   13   14 ar
    24   13   23 1
    25   14   24 1
    26   16   25 1
@<TRIPOS>MOLECULE
ZINC13494220
   40    43     0     0     0
SMALL
NO_CHARGES

@<TRIPOS>ATOM
      1 C1          3.3353    1.3633    3.5661 C.ar      1 <0>        -0.1517
      2 C2          3.4179   -0.0168    3.5458 C.ar      1 <0>        -0.0816
      3 C3          3.5017   -0.6873    2.3410 C.ar      1 <0>        -0.1943
      4 C4          3.5028    0.0255    1.1504 C.ar      1 <0>         0.1197
      5 C5          3.4197    1.4104    1.1736 C.ar      1 <0>        -0.1456
      6 C6          3.3361    2.0759    2.3812 C.ar      1 <0>        -0.0823
      7 O1          3.5855   -0.6316   -0.0361 O.3       1 <0>        -0.2591
      8 C7          3.6573   -1.9880   -0.0103 C.ar      1 <0>         0.0820
      9 C8          2.4929   -2.7441   -0.0459 C.ar      1 <0>        -0.1107
     10 C9          2.5619   -4.1208   -0.0195 C.ar      1 <0>        -0.0831
     11 C10         3.8036   -4.7544    0.0426 C.ar      1 <0>         0.0759
     12 C11         4.9714   -3.9915    0.0777 C.ar      1 <0>        -0.1319
     13 C12         4.8950   -2.6153    0.0458 C.ar      1 <0>        -0.1090
     14 N1          3.8761   -6.1249    0.0695 N.2       1 <0>        -0.4451
     15 C13         4.7314   -6.7409   -0.6759 C.2       1 <0>         0.1459
     16 C14         4.8110   -8.2455   -0.6464 C.3       1 <0>         0.1587
     17 C15         4.4990   -8.8053   -2.0109 C.ar      1 <0>        -0.0998
     18 C16         5.0807   -8.6639   -3.2489 C.ar      1 <0>        -0.0911
     19 C17         4.5471   -9.3249   -4.3428 C.ar      1 <0>        -0.0788
     20 C18         3.4297  -10.1279   -4.1952 C.ar      1 <0>        -0.1188
     21 C19         2.8379  -10.2770   -2.9578 C.ar      1 <0>        -0.0340
     22 C20         3.3701   -9.6141   -1.8514 C.ar      1 <0>        -0.1863
     23 C21         2.9830   -9.5650   -0.4296 C.2       1 <0>         0.5220
     24 O2          2.0400  -10.1564    0.0566 O.2       1 <0>        -0.4421
     25 O3          3.8269   -8.7699    0.2491 O.3       1 <0>        -0.2889
     26 H1          3.2654    1.8853    4.5090 H         1 <0>         0.1262
     27 H2          3.4174   -0.5710    4.4728 H         1 <0>         0.1265
     28 H3          3.5666   -1.7652    2.3257 H         1 <0>         0.1269
     29 H4          3.4207    1.9675    0.2484 H         1 <0>         0.1329
     30 H5          3.2711    3.1538    2.3998 H         1 <0>         0.1322
     31 H6          1.5322   -2.2531   -0.0940 H         1 <0>         0.1395
     32 H7          1.6560   -4.7081   -0.0465 H         1 <0>         0.1391
     33 H8          5.9342   -4.4785    0.1258 H         1 <0>         0.1339
     34 H9          5.7986   -2.0242    0.0689 H         1 <0>         0.1368
     35 H10         5.8062   -8.5599   -0.3323 H         1 <0>         0.1484
     36 H11         5.3899   -6.1779   -1.3207 H         1 <0>         0.1283
     37 H12         5.9531   -8.0384   -3.3680 H         1 <0>         0.1391
     38 H13         5.0045   -9.2129   -5.3147 H         1 <0>         0.1404
     39 H14         3.0188  -10.6401   -5.0527 H         1 <0>         0.1402
     40 H15         1.9659  -10.9044   -2.8460 H         1 <0>         0.1395
@<TRIPOS>BOND
     1    1    6 ar
     2    1    2 ar
     3    1   26 1
     4    2    3 ar
     5    2   27 1
     6    3    4 ar
     7    3   28 1
     8    4    5 ar
     9    4    7 1
    10    5    6 ar
    11    5   29 1
    12    6   30 1
    13    7    8 1
    14    8   13 ar
    15    8    9 ar
    16    9   10 ar
    17    9   31 1
    18   10   11 ar
    19   10   32 1
    20   11   12 ar
    21   11   14 1
    22   12   13 ar
    23   12   33 1
    24   13   34 1
    25   14   15 2
    26   15   36 1
    27   15   16 1
    28   16   25 1
    29   16   17 1
    30   16   35 1
    31   17   22 ar
    32   17   18 ar
    33   18   19 ar
    34   18   37 1
    35   19   20 ar
    36   19   38 1
    37   20   21 ar
    38   20   39 1
    39   21   22 ar
    40   21   40 1
    41   22   23 1
    42   23   24 2
    43   23   25 1
@<TRIPOS>MOLECULE
ZINC13494220
   40    43     0     0     0
SMALL
NO_CHARGES

@<TRIPOS>ATOM
      1 C1          3.6675    1.0363    4.3632 C.ar      1 <0>        -0.1512
      2 C2          3.6463   -0.3381    4.2127 C.ar      1 <0>        -0.0816
      3 C3          3.8387   -0.9006    2.9658 C.ar      1 <0>        -0.1942
      4 C4          4.0535   -0.0852    1.8638 C.ar      1 <0>         0.1195
      5 C5          4.0744    1.2937    2.0176 C.ar      1 <0>        -0.1451
      6 C6          3.8813    1.8511    3.2667 C.ar      1 <0>        -0.0822
      7 O1          4.2436   -0.6360    0.6363 O.3       1 <0>        -0.2589
      8 C7          4.1818   -1.9888    0.5277 C.ar      1 <0>         0.0836
      9 C8          2.9714   -2.6062    0.2406 C.ar      1 <0>        -0.1095
     10 C9          2.9050   -3.9788    0.1301 C.ar      1 <0>        -0.0895
     11 C10         4.0558   -4.7478    0.3068 C.ar      1 <0>         0.0623
     12 C11         5.2704   -4.1240    0.5948 C.ar      1 <0>        -0.1305
     13 C12         5.3304   -2.7506    0.6986 C.ar      1 <0>        -0.1088
     14 N1          3.9933   -6.1148    0.1981 N.2       1 <0>        -0.4391
     15 C13         4.7942   -6.7361   -0.6015 C.2       1 <0>         0.1745
     16 C14         5.7153   -5.9547   -1.5026 C.3       1 <0>         0.0897
     17 C15         5.4524   -6.3119   -2.9434 C.ar      1 <0>        -0.0951
     18 C16         4.3495   -6.2116   -3.7586 C.ar      1 <0>        -0.0905
     19 C17         4.4218   -6.6374   -5.0745 C.ar      1 <0>        -0.0748
     20 C18         5.6005   -7.1639   -5.5733 C.ar      1 <0>        -0.1188
     21 C19         6.7133   -7.2692   -4.7643 C.ar      1 <0>        -0.0312
     22 C20         6.6477   -6.8422   -3.4376 C.ar      1 <0>        -0.1888
     23 C21         7.6331   -6.8196   -2.3412 C.2       1 <0>         0.5218
     24 O2          8.7802   -7.2099   -2.4272 O.2       1 <0>        -0.4383
     25 O3          7.0757   -6.3039   -1.2330 O.3       1 <0>        -0.3019
     26 H1          3.5124    1.4742    5.3381 H         1 <0>         0.1263
     27 H2          3.4794   -0.9723    5.0708 H         1 <0>         0.1266
     28 H3          3.8224   -1.9741    2.8488 H         1 <0>         0.1270
     29 H4          4.2417    1.9306    1.1616 H         1 <0>         0.1330
     30 H5          3.8971    2.9243    3.3869 H         1 <0>         0.1323
     31 H6          2.0811   -2.0104    0.1040 H         1 <0>         0.1403
     32 H7          1.9632   -4.4583   -0.0925 H         1 <0>         0.1407
     33 H8          6.1631   -4.7162    0.7322 H         1 <0>         0.1395
     34 H9          6.2708   -2.2668    0.9175 H         1 <0>         0.1391
     35 H10         5.5674   -4.8856   -1.3498 H         1 <0>         0.1375
     36 H11         4.8041   -7.8158   -0.6245 H         1 <0>         0.1783
     37 H12         3.4280   -5.8010   -3.3731 H         1 <0>         0.1350
     38 H13         3.5549   -6.5586   -5.7138 H         1 <0>         0.1410
     39 H14         5.6494   -7.4942   -6.6003 H         1 <0>         0.1415
     40 H15         7.6316   -7.6805   -5.1566 H         1 <0>         0.1408
@<TRIPOS>BOND
     1    1    6 ar
     2    1    2 ar
     3    1   26 1
     4    2    3 ar
     5    2   27 1
     6    3    4 ar
     7    3   28 1
     8    4    5 ar
     9    4    7 1
    10    5    6 ar
    11    5   29 1
    12    6   30 1
    13    7    8 1
    14    8   13 ar
    15    8    9 ar
    16    9   10 ar
    17    9   31 1
    18   10   11 ar
    19   10   32 1
    20   11   12 ar
    21   11   14 1
    22   12   13 ar
    23   12   33 1
    24   13   34 1
    25   14   15 2
    26   15   36 1
    27   15   16 1
    28   16   25 1
    29   16   17 1
    30   16   35 1
    31   17   22 ar
    32   17   18 ar
    33   18   19 ar
    34   18   37 1
    35   19   20 ar
    36   19   38 1
    37   20   21 ar
    38   20   39 1
    39   21   22 ar
    40   21   40 1
    41   22   23 1
    42   23   24 2
    43   23   25 1
@<TRIPOS>MOLECULE
ZINC03869685
   32    34     0     0     0
SMALL
USER_CHARGES

@<TRIPOS>ATOM
      1 C1          0.9741   -0.2755   -0.9644 C.ar      1 <0>        -0.0748
      2 C2          2.1569    0.4329   -0.9701 C.ar      1 <0>        -0.1346
      3 C3          2.3856    1.4156   -0.0177 C.ar      1 <0>         0.1032
      4 C4          1.4203    1.6918    0.9495 C.ar      1 <0>         0.0788
      5 C5          0.2328    0.9863    0.9617 C.ar      1 <0>        -0.0762
      6 C6          0.0021   -0.0041    0.0020 C.ar      1 <0>        -0.0447
      7 C7         -1.2637   -0.7605    0.0100 C.2       1 <0>         0.1350
      8 C8         -2.4363   -0.0759    0.1235 C.2       1 <0>        -0.0429
      9 C9         -3.6628   -0.7894    0.1327 C.2       1 <0>         0.4011
     10 O1         -4.7327   -0.2102    0.2323 O.2       1 <0>        -0.4484
     11 C10        -3.5946   -2.2549    0.0170 C.ar      1 <0>        -0.2690
     12 C11        -4.7561   -3.0387    0.0170 C.ar      1 <0>         0.2244
     13 C12        -4.6504   -4.4123   -0.0941 C.ar      1 <0>        -0.2081
     14 C13        -3.3994   -5.0103   -0.2044 C.ar      1 <0>         0.2000
     15 C14        -2.2463   -4.2416   -0.2047 C.ar      1 <0>        -0.1854
     16 C15        -2.3316   -2.8618   -0.0952 C.ar      1 <0>         0.1876
     17 O2         -1.2182   -2.0992   -0.1003 O.3       1 <0>        -0.1970
     18 O3         -3.3070   -6.3605   -0.3125 O.3       1 <0>        -0.4866
     19 O4         -5.9758   -2.4535    0.1257 O.3       1 <0>        -0.4726
     20 O5         -2.4312    1.2810    0.2275 O.3       1 <0>        -0.4502
     21 O6          1.6480    2.6557    1.8815 O.3       1 <0>        -0.4836
     22 O7          3.5534    2.1101   -0.0273 O.3       1 <0>        -0.4861
     23 H1          0.7971   -1.0371   -1.7094 H         1 <0>         0.1379
     24 H2          2.9075    0.2221   -1.7176 H         1 <0>         0.1421
     25 H3         -0.5155    1.1988    1.7108 H         1 <0>         0.1429
     26 H4         -5.5413   -5.0229   -0.0948 H         1 <0>         0.1515
     27 H5         -1.2805   -4.7174   -0.2903 H         1 <0>         0.1559
     28 H6         -3.3257   -6.6843   -1.2235 H         1 <0>         0.4050
     29 H7         -6.3751   -2.2160   -0.7224 H         1 <0>         0.4036
     30 H8         -3.3120    1.6729    0.3033 H         1 <0>         0.4079
     31 H9          1.3508    3.5370    1.6166 H         1 <0>         0.3905
     32 H10         3.5287    2.9137   -0.5647 H         1 <0>         0.3924
@<TRIPOS>BOND
     1    1    6 ar
     2    1    2 ar
     3    1   23 1
     4    2    3 ar
     5    2   24 1
     6    3    4 ar
     7    3   22 1
     8    4    5 ar
     9    4   21 1
    10    5    6 ar
    11    5   25 1
    12    6    7 1
    13    7   17 1
    14    7    8 2
    15    8    9 1
    16    8   20 1
    17    9   10 2
    18    9   11 1
    19   11   16 ar
    20   11   12 ar
    21   12   13 ar
    22   12   19 1
    23   13   14 ar
    24   13   26 1
    25   14   15 ar
    26   14   18 1
    27   15   16 ar
    28   15   27 1
    29   16   17 1
    30   18   28 1
    31   19   29 1
    32   20   30 1
    33   21   31 1
    34   22   32 1
@<TRIPOS>MOLECULE
ZINC03869685
   31    33     0     0     0
SMALL
USER_CHARGES

@<TRIPOS>ATOM
      1 C1          0.1390    1.1246   -0.8120 C.ar      1 <0>        -0.0626
      2 C2          1.3229    1.8301   -0.8179 C.ar      1 <0>        -0.1333
      3 C3          2.3812    1.4233   -0.0172 C.ar      1 <0>         0.0878
      4 C4          2.2522    0.2984    0.7970 C.ar      1 <0>         0.0757
      5 C5          1.0694   -0.4139    0.8086 C.ar      1 <0>        -0.0997
      6 C6          0.0021   -0.0041    0.0020 C.ar      1 <0>        -0.0194
      7 C7         -1.2620   -0.7597    0.0100 C.2       1 <0>         0.1007
      8 C8         -2.4587   -0.0763    0.1245 C.2       1 <0>        -0.0038
      9 C9         -3.6655   -0.7872    0.1324 C.2       1 <0>         0.3349
     10 C10        -3.6167   -2.1939    0.0219 C.2       1 <0>        -0.3331
     11 C11        -4.8018   -2.9593    0.0240 C.2       1 <0>         0.2664
     12 C12        -4.7326   -4.3182   -0.0844 C.2       1 <0>        -0.3749
     13 C13        -3.4871   -4.9570   -0.1979 C.2       1 <0>         0.3648
     14 O1         -3.4307   -6.2860   -0.3033 O.2       1 <0>        -0.6598
     15 C14        -2.3054   -4.2086   -0.2016 C.2       1 <0>        -0.3143
     16 C15        -2.3616   -2.8325   -0.0921 C.2       1 <0>         0.2118
     17 O2         -1.2290   -2.0988   -0.0996 O.3       1 <0>        -0.2018
     18 O3         -6.0073   -2.3463    0.1339 O.3       1 <0>        -0.4482
     19 O4         -4.8484   -0.1420    0.2437 O.3       1 <0>        -0.5747
     20 O5         -2.4638    1.2803    0.2294 O.3       1 <0>        -0.4649
     21 O6          3.2919   -0.0973    1.5794 O.3       1 <0>        -0.4856
     22 O7          3.5458    2.1225   -0.0269 O.3       1 <0>        -0.4881
     23 H1         -0.6843    1.4460   -1.4327 H         1 <0>         0.1397
     24 H2          1.4276    2.7014   -1.4473 H         1 <0>         0.1381
     25 H3          0.9685   -1.2854    1.4384 H         1 <0>         0.1410
     26 H4         -5.6395   -4.9047   -0.0825 H         1 <0>         0.1180
     27 H5         -1.3506   -4.7057   -0.2895 H         1 <0>         0.1230
     28 H6         -6.7597   -2.9537    0.1258 H         1 <0>         0.3847
     29 H7         -3.3475    1.6656    0.3047 H         1 <0>         0.4058
     30 H8          3.2925    0.2977    2.4620 H         1 <0>         0.3855
     31 H9          3.5825    2.8346    0.6263 H         1 <0>         0.3863
@<TRIPOS>BOND
     1    1    6 ar
     2    1    2 ar
     3    1   23 1
     4    2    3 ar
     5    2   24 1
     6    3    4 ar
     7    3   22 1
     8    4    5 ar
     9    4   21 1
    10    5    6 ar
    11    5   25 1
    12    6    7 1
    13    7   17 1
    14    7    8 2
    15    8    9 1
    16    8   20 1
    17    9   10 2
    18    9   19 1
    19   10   16 1
    20   10   11 1
    21   11   12 2
    22   11   18 1
    23   12   13 1
    24   12   26 1
    25   13   14 2
    26   13   15 1
    27   15   16 2
    28   15   27 1
    29   16   17 1
    30   18   28 1
    31   20   29 1
    32   21   30 1
    33   22   31 1
@<TRIPOS>MOLECULE
ZINC03797930
   57    61     0     0     0
SMALL
USER_CHARGES

@<TRIPOS>ATOM
      1 C1         -0.0178    1.4608    0.0101 C.3       1 <0>         0.0756
      2 N1          0.0021   -0.0041    0.0020 N.pl3     1 <0>        -0.4779
      3 C2          0.0079   -0.7756   -1.1193 C.2       1 <0>         0.1034
      4 C3          0.0281   -2.0937   -0.7697 C.2       1 <0>        -0.1402
      5 C4          0.0354   -2.1368    0.7032 C.ar      1 <0>        -0.0754
      6 C5          0.0236   -0.7983    1.1297 C.ar      1 <0>         0.0946
      7 C6          0.0313   -0.5163    2.4916 C.ar      1 <0>        -0.1255
      8 C7          0.0535   -1.5463    3.4071 C.ar      1 <0>        -0.0992
      9 C8          0.0683   -2.8675    2.9845 C.ar      1 <0>        -0.1386
     10 C9          0.0542   -3.1677    1.6397 C.ar      1 <0>        -0.0735
     11 C10         0.0398   -3.2475   -1.6846 C.2       1 <0>        -0.0198
     12 C11         1.1172   -3.7122   -2.4298 C.2       1 <0>        -0.0395
     13 C12         0.6208   -4.8840   -3.1806 C.2       1 <0>         0.5564
     14 O1          1.2746   -5.5640   -3.9461 O.2       1 <0>        -0.4464
     15 N2         -0.6740   -5.0726   -2.8749 N.am      1 <0>        -0.6902
     16 C13        -1.0897   -4.1493   -1.9915 C.2       1 <0>         0.5532
     17 O2         -2.2087   -4.0674   -1.5257 O.2       1 <0>        -0.4418
     18 C14         2.4779   -3.1502   -2.4643 C.2       1 <0>        -0.1185
     19 C15         3.4364   -3.2746   -1.5022 C.2       1 <0>         0.0933
     20 N3          4.5640   -2.6188   -1.8910 N.pl3     1 <0>        -0.4798
     21 C16         4.3781   -2.0398   -3.1293 C.ar      1 <0>         0.0962
     22 C17         3.0730   -2.3483   -3.5479 C.ar      1 <0>        -0.0752
     23 C18         2.6089   -1.8925   -4.7796 C.ar      1 <0>        -0.0686
     24 C19         3.4370   -1.1416   -5.5852 C.ar      1 <0>        -0.1351
     25 C20         4.7273   -0.8397   -5.1749 C.ar      1 <0>        -0.0935
     26 C21         5.1968   -1.2769   -3.9550 C.ar      1 <0>        -0.1304
     27 C22         5.7987   -2.5392   -1.1066 C.3       1 <0>         0.1213
     28 C23         5.8024   -1.2444   -0.2914 C.3       1 <0>        -0.1304
     29 C24         7.0919   -1.1612    0.5278 C.3       1 <0>        -0.1323
     30 S1          7.0963    0.3739    1.4943 S.3       1 <0>         0.0637
     31 C25         8.6242    0.3216    2.3704 C.cat     1 <0>         0.4855
     32 N4          9.2482    1.4553    2.6902 N.pl3     1 <0>        -0.7357
     33 N5          9.1561   -0.8516    2.7133 N.pl3     1 <0>        -0.7643
     34 H1          1.0048    1.8381    0.0023 H         1 <0>         0.0705
     35 H2         -0.5450    1.8219   -0.8730 H         1 <0>         0.0878
     36 H3         -0.5280    1.8123    0.9069 H         1 <0>         0.0849
     37 H4         -0.0026   -0.4009   -2.1322 H         1 <0>         0.1741
     38 H5          0.0202    0.5088    2.8315 H         1 <0>         0.1196
     39 H6          0.0598   -1.3227    4.4637 H         1 <0>         0.1265
     40 H7          0.0861   -3.6646    3.7130 H         1 <0>         0.1250
     41 H8          0.0669   -4.1972    1.3134 H         1 <0>         0.1196
     42 H9         -1.2301   -5.7795   -3.2382 H         1 <0>         0.4308
     43 H10         3.3186   -3.8118   -0.5727 H         1 <0>         0.1746
     44 H11         1.6050   -2.1267   -5.1017 H         1 <0>         0.1223
     45 H12         3.0800   -0.7868   -6.5407 H         1 <0>         0.1277
     46 H13         5.3679   -0.2507   -5.8146 H         1 <0>         0.1281
     47 H14         6.2036   -1.0375   -3.6461 H         1 <0>         0.1168
     48 H15         5.8563   -3.3934   -0.4320 H         1 <0>         0.1002
     49 H16         6.6571   -2.5481   -1.7783 H         1 <0>         0.0963
     50 H17         5.7448   -0.3902   -0.9660 H         1 <0>         0.0946
     51 H18         4.9440   -1.2354    0.3802 H         1 <0>         0.0946
     52 H19         7.1495   -2.0155    1.2024 H         1 <0>         0.1123
     53 H20         7.9503   -1.1702   -0.1438 H         1 <0>         0.1212
     54 H21         8.8612    2.3090    2.4406 H         1 <0>         0.4515
     55 H22         8.7020   -1.6765    2.4806 H         1 <0>         0.4429
     56 H23         9.9972   -0.8803    3.1956 H         1 <0>         0.4324
     57 H24        10.0893    1.4265    3.1725 H         1 <0>         0.4339
@<TRIPOS>BOND
     1    1    2 1
     2    1   34 1
     3    1   35 1
     4    1   36 1
     5    2    6 1
     6    2    3 1
     7    3    4 2
     8    3   37 1
     9    4    5 1
    10    4   11 1
    11    5   10 ar
    12    5    6 ar
    13    6    7 ar
    14    7    8 ar
    15    7   38 1
    16    8    9 ar
    17    8   39 1
    18    9   10 ar
    19    9   40 1
    20   10   41 1
    21   11   16 1
    22   11   12 2
    23   12   13 1
    24   12   18 1
    25   13   14 2
    26   13   15 am
    27   15   16 am
    28   15   42 1
    29   16   17 2
    30   18   22 1
    31   18   19 2
    32   19   20 1
    33   19   43 1
    34   20   21 1
    35   20   27 1
    36   21   26 ar
    37   21   22 ar
    38   22   23 ar
    39   23   24 ar
    40   23   44 1
    41   24   25 ar
    42   24   45 1
    43   25   26 ar
    44   25   46 1
    45   26   47 1
    46   27   28 1
    47   27   48 1
    48   27   49 1
    49   28   29 1
    50   28   50 1
    51   28   51 1
    52   29   30 1
    53   29   52 1
    54   29   53 1
    55   30   31 1
    56   31   32 2
    57   31   33 1
    58   32   54 1
    59   32   57 1
    60   33   55 1
    61   33   56 1
