@<TRIPOS>MOLECULE
ZINC01542895
   46    46     0     0     0
SMALL
USER_CHARGES

@<TRIPOS>ATOM
      1 C1         -1.4921   -0.2802   -0.1168 C.3       1 <0>        -0.1480
      2 C2          0.0168   -0.0902    0.0502 C.3       1 <0>        -0.0946
      3 C3          0.4965   -0.8703    1.2758 C.3       1 <0>        -0.1503
      4 C4          0.7370   -0.6066   -1.1970 C.3       1 <0>        -0.1084
      5 C5          2.2304   -0.2918   -1.0907 C.3       1 <0>         0.0678
      6 H1          2.6270   -0.7186   -0.1695 H         1 <0>         0.0947
      7 C6          2.9543   -0.8853   -2.2717 C.2       1 <0>         0.4976
      8 O1          3.4188   -0.1561   -3.1314 O.co2     1 <0>        -0.7136
      9 O2          3.0754   -2.0947   -2.3676 O.co2     1 <0>        -0.6706
     10 N1          2.4237    1.1604   -1.0789 N.am      1 <0>        -0.6768
     11 C7          3.5233    1.6892   -0.5064 C.2       1 <0>         0.4501
     12 O3          4.3528    0.9629   -0.0011 O.2       1 <0>        -0.5167
     13 C8          3.7222    3.1829   -0.4943 C.3       1 <0>         0.0771
     14 H2          2.8536    3.6614   -0.0419 H         1 <0>         0.1637
     15 C9          3.8924    3.6865   -1.9290 C.3       1 <0>         0.0050
     16 H3          2.9682    3.5231   -2.4834 H         1 <0>         0.1563
     17 C10         4.2180    5.1813   -1.9096 C.3       1 <0>        -0.0899
     18 C11         4.2645    5.7037   -3.3224 C.ar      1 <0>        -0.1239
     19 C12         5.4532    5.6842   -4.0277 C.ar      1 <0>        -0.1395
     20 C13         5.4959    6.1633   -5.3236 C.ar      1 <0>        -0.1080
     21 C14         4.3497    6.6615   -5.9144 C.ar      1 <0>        -0.1065
     22 C15         3.1608    6.6802   -5.2094 C.ar      1 <0>        -0.1069
     23 C16         3.1172    6.1971   -3.9150 C.ar      1 <0>        -0.1039
     24 N2          4.9886    2.9549   -2.5779 N.4       1 <0>        -0.6381
     25 O4          4.8906    3.5018    0.2642 O.3       1 <0>        -0.5140
     26 H4         -1.8485    0.3439   -0.9363 H         1 <0>         0.0522
     27 H5         -1.7043   -1.3262   -0.3379 H         1 <0>         0.0571
     28 H6         -1.9986    0.0063    0.8049 H         1 <0>         0.0532
     29 H7          0.2370    0.9689    0.1845 H         1 <0>         0.0619
     30 H8          0.2764   -1.9293    1.1415 H         1 <0>         0.0580
     31 H9          1.5715   -0.7349    1.3948 H         1 <0>         0.0554
     32 H10        -0.0165   -0.5023    2.1644 H         1 <0>         0.0512
     33 H11         0.5977   -1.6848   -1.2767 H         1 <0>         0.0865
     34 H12         0.3253   -0.1207   -2.0817 H         1 <0>         0.0633
     35 H13         1.7603    1.7412   -1.4830 H         1 <0>         0.3944
     36 H14         3.4484    5.7136   -1.3505 H         1 <0>         0.1229
     37 H15         5.1859    5.3362   -1.4329 H         1 <0>         0.1051
     38 H16         6.3487    5.2949   -3.5661 H         1 <0>         0.1226
     39 H17         6.4247    6.1488   -5.8744 H         1 <0>         0.1304
     40 H18         4.3832    7.0365   -6.9267 H         1 <0>         0.1298
     41 H19         2.2654    7.0697   -5.6709 H         1 <0>         0.1308
     42 H20         2.1875    6.2082   -3.3654 H         1 <0>         0.1303
     43 H21         4.7738    1.9691   -2.5907 H         1 <0>         0.4538
     44 H22         5.1008    3.2870   -3.5240 H         1 <0>         0.4364
     45 H23         5.7035    3.1085   -0.0817 H         1 <0>         0.3783
     46 H24         5.8440    3.1062   -2.0647 H         1 <0>         0.4236
@<TRIPOS>BOND
     1    1    2 1
     2    1   26 1
     3    1   27 1
     4    1   28 1
     5    2    3 1
     6    2    4 1
     7    2   29 1
     8    3   30 1
     9    3   31 1
    10    3   32 1
    11    4    5 1
    12    4   33 1
    13    4   34 1
    14    5    6 1
    15    5    7 1
    16    5   10 1
    17    7    8 2
    18    7    9 1
    19   10   11 am
    20   10   35 1
    21   11   12 2
    22   11   13 1
    23   13   14 1
    24   13   15 1
    25   13   25 1
    26   15   16 1
    27   15   17 1
    28   15   24 1
    29   17   18 1
    30   17   36 1
    31   17   37 1
    32   18   23 ar
    33   18   19 ar
    34   19   20 ar
    35   19   38 1
    36   20   21 ar
    37   20   39 1
    38   21   22 ar
    39   21   40 1
    40   22   23 ar
    41   22   41 1
    42   23   42 1
    43   24   43 1
    44   24   44 1
    45   24   46 1
    46   25   45 1
@<TRIPOS>MOLECULE
ZINC01542895
   45    45     0     0     0
SMALL
USER_CHARGES

@<TRIPOS>ATOM
      1 C1          0.6528   -0.2592    1.3564 C.3       1 <0>        -0.1445
      2 C2          0.0386   -0.0894   -0.0345 C.3       1 <0>        -0.0966
      3 C3          0.8796   -0.8522   -1.0600 C.3       1 <0>        -0.1471
      4 C4         -1.3882   -0.6419   -0.0329 C.3       1 <0>        -0.1047
      5 C5         -2.0504   -0.3483   -1.3805 C.3       1 <0>         0.0724
      6 H1         -1.4402   -0.7627   -2.1831 H         1 <0>         0.0844
      7 C6         -3.4197   -0.9765   -1.4149 C.2       1 <0>         0.4903
      8 O1         -4.4145   -0.2719   -1.3899 O.co2     1 <0>        -0.6843
      9 O2         -3.5329   -2.1893   -1.4677 O.co2     1 <0>        -0.6968
     10 N1         -2.1732    1.1006   -1.5589 N.am      1 <0>        -0.6848
     11 C7         -2.2403    1.6236   -2.7993 C.2       1 <0>         0.4808
     12 O3         -2.1991    0.8947   -3.7678 O.2       1 <0>        -0.5425
     13 C8         -2.3666    3.1140   -2.9828 C.3       1 <0>         0.0531
     14 H2         -1.5529    3.6150   -2.4584 H         1 <0>         0.1189
     15 C9         -3.7065    3.5861   -2.4146 C.3       1 <0>         0.0778
     16 H3         -3.7206    3.4261   -1.3365 H         1 <0>         0.0933
     17 C10        -3.8900    5.0758   -2.7116 C.3       1 <0>        -0.0675
     18 C11        -5.1496    5.5690   -2.0473 C.ar      1 <0>        -0.0627
     19 C12        -6.3538    5.5169   -2.7241 C.ar      1 <0>        -0.0897
     20 C13        -7.5092    5.9693   -2.1148 C.ar      1 <0>        -0.1228
     21 C14        -7.4604    6.4734   -0.8286 C.ar      1 <0>        -0.1293
     22 C15        -6.2564    6.5247   -0.1515 C.ar      1 <0>        -0.1239
     23 C16        -5.1017    6.0683   -0.7592 C.ar      1 <0>        -0.1216
     24 N2         -4.7978    2.8247   -3.0370 N.3       1 <0>        -0.8349
     25 O4         -2.3018    3.4298   -4.3750 O.3       1 <0>        -0.5371
     26 H4          1.6967    0.0535    1.3333 H         1 <0>         0.0492
     27 H5          0.1057    0.3539    2.0726 H         1 <0>         0.0514
     28 H6          0.5937   -1.3060    1.6544 H         1 <0>         0.0539
     29 H7          0.0183    0.9685   -0.2960 H         1 <0>         0.0646
     30 H8          0.8999   -1.9102   -0.7985 H         1 <0>         0.0544
     31 H9          0.4420   -0.7313   -2.0510 H         1 <0>         0.0576
     32 H10         1.8961   -0.4587   -1.0612 H         1 <0>         0.0469
     33 H11        -1.3606   -1.7191    0.1314 H         1 <0>         0.0795
     34 H12        -1.9606   -0.1674    0.7642 H         1 <0>         0.0604
     35 H13        -2.2061    1.6836   -0.7844 H         1 <0>         0.3898
     36 H14        -3.0347    5.6310   -2.3264 H         1 <0>         0.0744
     37 H15        -3.9648    5.2250   -3.7887 H         1 <0>         0.0776
     38 H16        -6.3919    5.1230   -3.7290 H         1 <0>         0.1198
     39 H17        -8.4499    5.9293   -2.6438 H         1 <0>         0.1166
     40 H18        -8.3630    6.8275   -0.3528 H         1 <0>         0.1149
     41 H19        -6.2182    6.9188    0.8533 H         1 <0>         0.1159
     42 H20        -4.1616    6.1049   -0.2288 H         1 <0>         0.1168
     43 H21        -4.8061    2.9566   -4.0373 H         1 <0>         0.3280
     44 H22        -2.9976    3.0171   -4.9047 H         1 <0>         0.3769
     45 H23        -4.7354    1.8455   -2.8019 H         1 <0>         0.3711
@<TRIPOS>BOND
     1    1    2 1
     2    1   26 1
     3    1   27 1
     4    1   28 1
     5    2    3 1
     6    2    4 1
     7    2   29 1
     8    3   30 1
     9    3   31 1
    10    3   32 1
    11    4    5 1
    12    4   33 1
    13    4   34 1
    14    5    6 1
    15    5    7 1
    16    5   10 1
    17    7    8 2
    18    7    9 1
    19   10   11 am
    20   10   35 1
    21   11   12 2
    22   11   13 1
    23   13   14 1
    24   13   15 1
    25   13   25 1
    26   15   16 1
    27   15   17 1
    28   15   24 1
    29   17   18 1
    30   17   36 1
    31   17   37 1
    32   18   23 ar
    33   18   19 ar
    34   19   20 ar
    35   19   38 1
    36   20   21 ar
    37   20   39 1
    38   21   22 ar
    39   21   40 1
    40   22   23 ar
    41   22   41 1
    42   23   42 1
    43   24   43 1
    44   24   45 1
    45   25   44 1
