@<TRIPOS>MOLECULE
ZINC13679488
   24    26     0     0     0
SMALL
USER_CHARGES

@<TRIPOS>ATOM
      1 C1         -0.0167    1.3801    0.0096 C.ar      1 <0>        -0.0735
      2 C2          1.1934    2.0590    0.0017 C.ar      1 <0>        -0.1555
      3 C3          2.3753    1.3397   -0.0134 C.ar      1 <0>         0.1068
      4 N1          2.3657    0.0231   -0.0208 N.ar      1 <0>        -0.4789
      5 C4          1.2300   -0.6646   -0.0137 C.ar      1 <0>         0.1764
      6 C5          0.0021   -0.0041    0.0020 C.ar      1 <0>        -0.1164
      7 C6          1.2677   -2.1440   -0.0230 C.2       1 <0>         0.3365
      8 N2          2.4074   -2.9026   -0.0335 N.pl3     1 <0>        -0.5744
      9 H1          3.3191   -2.5716   -0.0360 H         1 <0>         0.4331
     10 C7          2.0165   -4.2261   -0.0396 C.ar      1 <0>         0.0631
     11 C8          2.7019   -5.4335   -0.0505 C.ar      1 <0>        -0.1010
     12 C9          1.9973   -6.6196   -0.0543 C.ar      1 <0>        -0.0134
     13 C10         0.6081   -6.6132   -0.0472 C.ar      1 <0>        -0.1177
     14 C11        -0.0831   -5.4357   -0.0365 C.ar      1 <0>        -0.0449
     15 C12         0.6099   -4.2201   -0.0325 C.ar      1 <0>         0.0529
     16 N3          0.2157   -2.9243   -0.0168 N.2       1 <0>        -0.4676
     17 Cl1         2.8524   -8.1303   -0.0685 Cl        1 <0>        -0.0573
     18 H2         -0.9522    1.9195    0.0259 H         1 <0>         0.1459
     19 H3          1.2126    3.1388    0.0070 H         1 <0>         0.1436
     20 H4          3.3187    1.8654   -0.0196 H         1 <0>         0.1656
     21 H5         -0.9212   -0.5644    0.0078 H         1 <0>         0.1524
     22 H6          3.7819   -5.4441   -0.0564 H         1 <0>         0.1372
     23 H7          0.0693   -7.5492   -0.0507 H         1 <0>         0.1437
     24 H8         -1.1630   -5.4426   -0.0307 H         1 <0>         0.1434
@<TRIPOS>BOND
     1    1    6 ar
     2    1    2 ar
     3    1   18 1
     4    2    3 ar
     5    2   19 1
     6    3    4 ar
     7    3   20 1
     8    4    5 ar
     9    5    6 ar
    10    5    7 1
    11    6   21 1
    12    7   16 2
    13    7    8 1
    14    8    9 1
    15    8   10 1
    16   10   15 ar
    17   10   11 ar
    18   11   12 ar
    19   11   22 1
    20   12   13 ar
    21   12   17 1
    22   13   14 ar
    23   13   23 1
    24   14   15 ar
    25   14   24 1
    26   15   16 1
@<TRIPOS>MOLECULE
ZINC28112619
   18    19     0     0     0
SMALL
USER_CHARGES
N-thiazol-2-ylthiazole-4-carboxamide
@<TRIPOS>ATOM
      1 C1          2.1821    1.0808   -0.0130 C.2       1 <0>         0.0586
      2 C2          1.7767   -0.2125   -0.0160 C.2       1 <0>        -0.2329
      3 S1          0.0021   -0.0041    0.0020 S.3       1 <0>         0.0517
      4 C3         -0.0215    1.7323    0.0116 C.2       1 <0>         0.3121
      5 N1          1.2640    2.0274    0.0009 N.2       1 <0>        -0.5210
      6 N2         -1.1138    2.5902    0.0217 N.am      1 <0>        -0.6201
      7 C4         -0.9228    3.9244    0.0280 C.2       1 <0>         0.5936
      8 O1          0.2061    4.3771    0.0248 O.2       1 <0>        -0.4675
      9 C5         -2.0806    4.8337    0.0387 C.2       1 <0>        -0.0119
     10 C6         -1.9154    6.1956    0.0506 C.2       1 <0>        -0.1605
     11 S2         -3.5616    6.7440    0.0572 S.3       1 <0>         0.1515
     12 C7         -4.3394    5.1942    0.0529 C.2       1 <0>         0.0512
     13 N3         -3.3291    4.3639    0.0429 N.2       1 <0>        -0.4855
     14 H1          3.2329    1.3304   -0.0217 H         1 <0>         0.1733
     15 H2          2.3640   -1.1187   -0.0268 H         1 <0>         0.2001
     16 H3         -2.1347    2.1807    0.0246 H         1 <0>         0.4641
     17 H4         -1.0029    6.7732    0.0535 H         1 <0>         0.2112
     18 H5         -5.3959    4.9703    0.0577 H         1 <0>         0.2320
@<TRIPOS>BOND
     1    1    5 1
     2    1    2 2
     3    1   14 1
     4    2    3 1
     5    2   15 1
     6    3    4 1
     7    4    5 2
     8    4    6 1
     9    6    7 am
    10    6   16 1
    11    7    8 2
    12    7    9 1
    13    9   13 1
    14    9   10 2
    15   10   11 1
    16   10   17 1
    17   11   12 1
    18   12   13 2
    19   12   18 1
@<TRIPOS>MOLECULE
ZINC28345987
   24    25     0     0     0
SMALL
USER_CHARGES
4-amino-N-thiazol-2-yl-pyridine-2-carboxamide
@<TRIPOS>ATOM
      1 C1         -2.4336    0.9495    0.0188 C.ar      1 <0>        -0.2147
      2 C2         -3.6214    1.6572    0.0282 C.ar      1 <0>         0.1800
      3 N1         -3.6263    2.9734    0.0349 N.ar      1 <0>        -0.4877
      4 C3         -2.4999    3.6782    0.0334 C.ar      1 <0>         0.1820
      5 C4         -1.2650    3.0395    0.0304 C.ar      1 <0>        -0.1615
      6 C5         -1.2258    1.6453    0.0168 C.ar      1 <0>         0.3203
      7 N2         -0.0111    0.9658    0.0074 N.pl3     1 <0>        -0.8359
      8 C6         -2.5604    5.1582    0.0416 C.2       1 <0>         0.5162
      9 O1         -1.5337    5.8083    0.0403 O.2       1 <0>        -0.5523
     10 N3         -3.7542    5.7837    0.0507 N.2       1 <0>        -0.6292
     11 C7         -3.8109    7.1713    0.0584 C.2       1 <0>         0.3595
     12 N4         -2.8195    8.0413    0.0643 N.pl3     1 <0>        -0.5761
     13 C8         -3.0499    9.3395    0.0673 C.2       1 <0>         0.0353
     14 C9         -4.3362    9.7674    0.0756 C.2       1 <0>        -0.2113
     15 S1         -5.2054    8.2062    0.0706 S.3       1 <0>         0.2301
     16 H1         -2.4415   -0.1304    0.0126 H         1 <0>         0.1780
     17 H2         -4.5594    1.1219    0.0297 H         1 <0>         0.2069
     18 H3         -0.3504    3.6139    0.0338 H         1 <0>         0.1799
     19 H4          0.9340    1.5287    0.0059 H         1 <0>         0.4489
     20 H5          0.0038   -0.1341    0.0014 H         1 <0>         0.4497
     21 H6         -2.2327   10.0457    0.0680 H         1 <0>         0.1989
     22 H7         -4.7276   10.7740    0.0836 H         1 <0>         0.2234
     23 H8         -1.7778    7.6880    0.0668 H         1 <0>         0.4680
     24 H9         -4.5810    3.5198    0.0420 H         1 <0>         0.4918
@<TRIPOS>BOND
     1    1    6 ar
     2    1    2 ar
     3    1   16 1
     4    2    3 ar
     5    2   17 1
     6    3    4 ar
     7    3   24 1
     8    4    5 ar
     9    4    8 1
    10    5    6 ar
    11    5   18 1
    12    6    7 1
    13    7   19 1
    14    7   20 1
    15    8    9 2
    16    8   10 1
    17   10   11 2
    18   11   15 1
    19   11   12 1
    20   12   13 1
    21   12   23 1
    22   13   14 2
    23   13   21 1
    24   14   15 1
    25   14   22 1
@<TRIPOS>MOLECULE
ZINC28345987
   23    24     0     0     0
SMALL
USER_CHARGES
4-amino-N-thiazol-2-yl-pyridine-2-carboxamide
@<TRIPOS>ATOM
      1 C1         -2.4336    0.9495    0.0188 C.ar      1 <0>        -0.2375
      2 C2         -3.6214    1.6572    0.0282 C.ar      1 <0>         0.1451
      3 N1         -3.6263    2.9734    0.0349 N.ar      1 <0>        -0.5124
      4 C3         -2.4999    3.6782    0.0334 C.ar      1 <0>         0.1213
      5 C4         -1.2650    3.0395    0.0304 C.ar      1 <0>        -0.1895
      6 C5         -1.2258    1.6453    0.0168 C.ar      1 <0>         0.2606
      7 N2         -0.0111    0.9658    0.0074 N.pl3     1 <0>        -0.8817
      8 C6         -2.5604    5.1582    0.0416 C.2       1 <0>         0.5737
      9 O1         -1.5337    5.8083    0.0403 O.2       1 <0>        -0.4655
     10 N3         -3.7542    5.7837    0.0507 N.am      1 <0>        -0.6181
     11 C7         -3.8109    7.1713    0.0584 C.2       1 <0>         0.3130
     12 N4         -2.8195    8.0413    0.0643 N.2       1 <0>        -0.5221
     13 C8         -3.0499    9.3395    0.0673 C.2       1 <0>         0.0589
     14 C9         -4.3362    9.7674    0.0756 C.2       1 <0>        -0.2346
     15 S1         -5.2054    8.2062    0.0706 S.3       1 <0>         0.0520
     16 H1         -2.4415   -0.1304    0.0126 H         1 <0>         0.1373
     17 H2         -4.5594    1.1219    0.0297 H         1 <0>         0.1638
     18 H3         -0.3504    3.6139    0.0338 H         1 <0>         0.1447
     19 H4          0.9340    1.5287    0.0059 H         1 <0>         0.4264
     20 H5          0.0038   -0.1341    0.0014 H         1 <0>         0.4257
     21 H6         -2.2327   10.0457    0.0680 H         1 <0>         0.1727
     22 H7         -4.7276   10.7740    0.0836 H         1 <0>         0.1995
     23 H8         -4.6835    5.1951    0.0520 H         1 <0>         0.4668
@<TRIPOS>BOND
     1    1    6 ar
     2    1    2 ar
     3    1   16 1
     4    2    3 ar
     5    2   17 1
     6    3    4 ar
     7    4    5 ar
     8    4    8 1
     9    5    6 ar
    10    5   18 1
    11    6    7 1
    12    7   19 1
    13    7   20 1
    14    8    9 2
    15    8   10 am
    16   10   11 1
    17   10   23 1
    18   11   15 1
    19   11   12 2
    20   12   13 1
    21   13   14 2
    22   13   21 1
    23   14   15 1
    24   14   22 1
@<TRIPOS>MOLECULE
ZINC13814845
   28    29     0     0     0
SMALL
USER_CHARGES

@<TRIPOS>ATOM
      1 C1         -0.0187    1.5258    0.0104 C.3       1 <0>        -0.1544
      2 C2          0.0021   -0.0041    0.0020 C.3       1 <0>         0.0550
      3 O1         -1.3386   -0.4987    0.0122 O.3       1 <0>        -0.2967
      4 C3         -1.4982   -1.8469    0.0064 C.ar      1 <0>         0.1505
      5 C4         -0.3899   -2.6788   -0.0029 C.ar      1 <0>        -0.2129
      6 C5         -0.5535   -4.0507   -0.0092 C.ar      1 <0>        -0.0788
      7 C6         -1.8227   -4.6048   -0.0058 C.ar      1 <0>        -0.1607
      8 C7         -2.9362   -3.7919    0.0034 C.ar      1 <0>        -0.0586
      9 C8         -2.7845   -2.4034    0.0157 C.ar      1 <0>        -0.0376
     10 C9         -3.9714   -1.5277    0.0324 C.2       1 <0>        -0.0030
     11 C10        -5.0565   -1.6270   -0.8109 C.2       1 <0>        -0.1981
     12 C11        -5.9451   -0.6115   -0.4538 C.2       1 <0>        -0.1900
     13 C12        -5.3681    0.0731    0.5981 C.2       1 <0>        -0.0310
     14 O2         -4.1786   -0.5032    0.8759 O.3       1 <0>        -0.1316
     15 C13        -5.9292    1.1839    1.2721 C.2       1 <0>         0.5496
     16 O3         -7.0236    1.6182    0.9321 O.co2     1 <0>        -0.6669
     17 O4         -5.3207    1.7115    2.1958 O.co2     1 <0>        -0.6744
     18 H1          1.0039    1.9031    0.0027 H         1 <0>         0.0758
     19 H2         -0.5459    1.8868   -0.8726 H         1 <0>         0.0669
     20 H3         -0.5289    1.8773    0.9072 H         1 <0>         0.0722
     21 H4          0.5123   -0.3556   -0.8948 H         1 <0>         0.0591
     22 H5          0.5293   -0.3651    0.8851 H         1 <0>         0.0608
     23 H6          0.6031   -2.2542   -0.0056 H         1 <0>         0.1292
     24 H7          0.3134   -4.6948   -0.0172 H         1 <0>         0.1241
     25 H8         -1.9408   -5.6783   -0.0108 H         1 <0>         0.1266
     26 H9         -3.9242   -4.2281    0.0057 H         1 <0>         0.1340
     27 H10        -5.1933   -2.3525   -1.5992 H         1 <0>         0.1417
     28 H11        -6.9001   -0.4011   -0.9121 H         1 <0>         0.1491
@<TRIPOS>BOND
     1    1    2 1
     2    1   18 1
     3    1   19 1
     4    1   20 1
     5    2    3 1
     6    2   21 1
     7    2   22 1
     8    3    4 1
     9    4    9 ar
    10    4    5 ar
    11    5    6 ar
    12    5   23 1
    13    6    7 ar
    14    6   24 1
    15    7    8 ar
    16    7   25 1
    17    8    9 ar
    18    8   26 1
    19    9   10 1
    20   10   14 1
    21   10   11 2
    22   11   12 1
    23   11   27 1
    24   12   13 2
    25   12   28 1
    26   13   14 1
    27   13   15 1
    28   15   16 2
    29   15   17 1
@<TRIPOS>MOLECULE
ZINC16052425
   24    25     0     0     0
SMALL
USER_CHARGES
5-[(2-chlorophenyl)methyl]furan-2-carboxylic acid
@<TRIPOS>ATOM
      1 C1          0.0021   -0.0041    0.0020 C.ar      1 <0>        -0.1145
      2 C2          1.2084   -0.6796   -0.0131 C.ar      1 <0>        -0.1122
      3 C3          2.3961    0.0268   -0.0211 C.ar      1 <0>        -0.1128
      4 C4          2.3780    1.4104   -0.0135 C.ar      1 <0>        -0.0249
      5 C5          1.1708    2.0857    0.0021 C.ar      1 <0>        -0.0703
      6 C6         -0.0167    1.3780    0.0096 C.ar      1 <0>        -0.0957
      7 C7          1.1502    3.5925    0.0098 C.3       1 <0>         0.0028
      8 C8          1.4030    4.0911    1.4093 C.2       1 <0>        -0.0394
      9 C9          2.6158    4.3622    1.9410 C.2       1 <0>        -0.2009
     10 C10         2.4016    4.8003    3.2567 C.2       1 <0>        -0.1947
     11 C11         1.0518    4.7665    3.4669 C.2       1 <0>        -0.0171
     12 O1          0.4637    4.3330    2.3325 O.3       1 <0>        -0.1468
     13 C12         0.3641    5.1365    4.7061 C.2       1 <0>         0.5263
     14 O2          1.0053    5.5155    5.6676 O.co2     1 <0>        -0.6069
     15 Cl1         3.8696    2.2984   -0.0229 Cl        1 <0>        -0.0657
     16 H1         -0.9259   -0.5565    0.0075 H         1 <0>         0.1293
     17 H2          1.2224   -1.7595   -0.0190 H         1 <0>         0.1300
     18 H3          3.3383   -0.5010   -0.0329 H         1 <0>         0.1319
     19 H4         -0.9593    1.9051    0.0169 H         1 <0>         0.1350
     20 H5          1.9261    3.9699   -0.6561 H         1 <0>         0.1028
     21 H6          0.1764    3.9443   -0.3308 H         1 <0>         0.0928
     22 H7          3.5703    4.2626    1.4456 H         1 <0>         0.1416
     23 H8          3.1573    5.1017    3.9669 H         1 <0>         0.1471
     24 O3         -0.9804    5.0568    4.7809 O.co2     1 <0>        -0.7377
@<TRIPOS>BOND
     1    1    6 ar
     2    1    2 ar
     3    1   16 1
     4    2    3 ar
     5    2   17 1
     6    3    4 ar
     7    3   18 1
     8    4    5 ar
     9    4   15 1
    10    5    6 ar
    11    5    7 1
    12    6   19 1
    13    7    8 1
    14    7   20 1
    15    7   21 1
    16    8   12 1
    17    8    9 2
    18    9   10 1
    19    9   22 1
    20   10   11 2
    21   10   23 1
    22   11   12 1
    23   11   13 1
    24   13   14 2
    25   13   24 1
@<TRIPOS>MOLECULE
ZINC13679495
   20    22     0     0     0
SMALL
USER_CHARGES
2-thiazol-4-yl-1H-imidazo[4,5-b]pyridine
@<TRIPOS>ATOM
      1 C1          3.3650   -1.6219   -0.0375 C.ar      1 <0>        -0.1599
      2 C2          1.9794   -1.6154   -0.0255 C.ar      1 <0>        -0.0594
      3 C3          1.3289   -0.3899   -0.0127 C.ar      1 <0>        -0.0036
      4 C4          2.0867    0.7961   -0.0136 C.ar      1 <0>         0.2545
      5 N1          3.4173    0.7334   -0.0263 N.ar      1 <0>        -0.4452
      6 C5          4.0520   -0.4192   -0.0381 C.ar      1 <0>         0.1235
      7 N2          1.2133    1.8242    0.0003 N.2       1 <0>        -0.4711
      8 C6         -0.0165    1.3644    0.0095 C.2       1 <0>         0.3829
      9 N3          0.0021   -0.0041    0.0020 N.pl3     1 <0>        -0.5796
     10 H1         -0.7935   -0.6099    0.0063 H         1 <0>         0.4387
     11 C7         -1.2348    2.1974    0.0200 C.2       1 <0>         0.0846
     12 C8         -1.1577    3.5650    0.0271 C.2       1 <0>        -0.1705
     13 S1         -2.8363    4.0051    0.0378 S.3       1 <0>         0.1493
     14 C9         -3.5089    2.4066    0.0324 C.2       1 <0>         0.0521
     15 N4         -2.4425    1.6471    0.0174 N.2       1 <0>        -0.4948
     16 H2          3.9050   -2.5572   -0.0464 H         1 <0>         0.1479
     17 H3          1.4207   -2.5397   -0.0247 H         1 <0>         0.1374
     18 H4          5.1319   -0.4276   -0.0482 H         1 <0>         0.1689
     19 H5         -0.2844    4.2005    0.0265 H         1 <0>         0.2128
     20 H6         -4.5478    2.1115    0.0354 H         1 <0>         0.2314
@<TRIPOS>BOND
     1    1    6 ar
     2    1    2 ar
     3    1   16 1
     4    2    3 ar
     5    2   17 1
     6    3    9 1
     7    3    4 ar
     8    4    5 ar
     9    4    7 1
    10    5    6 ar
    11    6   18 1
    12    7    8 2
    13    8    9 1
    14    8   11 1
    15    9   10 1
    16   11   15 1
    17   11   12 2
    18   12   13 1
    19   12   19 1
    20   13   14 1
    21   14   15 2
    22   14   20 1
@<TRIPOS>MOLECULE
ZINC04658787
   25    26     0     0     0
SMALL
USER_CHARGES
5-[2-(trifluoromethoxy)phenyl]furan-2-carboxylic acid
@<TRIPOS>ATOM
      1 C1         -0.4297    8.5278    0.9713 C.ar      1 <0>        -0.1368
      2 C2         -1.4613    8.7007    0.0638 C.ar      1 <0>        -0.0779
      3 C3         -1.7533    7.7140   -0.8585 C.ar      1 <0>        -0.1918
      4 C4         -1.0096    6.5450   -0.8842 C.ar      1 <0>         0.1230
      5 C5          0.0315    6.3635    0.0362 C.ar      1 <0>        -0.0047
      6 C6          0.3165    7.3685    0.9633 C.ar      1 <0>        -0.0618
      7 C7          0.8259    5.1203    0.0220 C.2       1 <0>        -0.0183
      8 C8          2.2003    5.0444    0.0078 C.2       1 <0>        -0.1838
      9 C9          2.5337    3.6873    0.0032 C.2       1 <0>        -0.1936
     10 C10         1.3473    2.9846    0.0052 C.2       1 <0>        -0.0067
     11 O1          0.3297    3.8717    0.0202 O.3       1 <0>        -0.1302
     12 C11         1.2142    1.5284   -0.0013 C.2       1 <0>         0.5246
     13 O2          2.2080    0.8268   -0.0146 O.co2     1 <0>        -0.6045
     14 O3         -1.2920    5.5772   -1.7937 O.3       1 <0>        -0.2929
     15 C12        -2.3670    5.8325   -2.7000 C.3       1 <0>         0.6026
     16 F1         -2.0836    6.9802   -3.4481 F         1 <0>        -0.1685
     17 F2         -2.5201    4.7405   -3.5611 F         1 <0>        -0.1268
     18 F3         -3.5495    6.0265   -1.9781 F         1 <0>        -0.1659
     19 H1         -0.2085    9.3047    1.6883 H         1 <0>         0.1349
     20 H2         -2.0411    9.6117    0.0771 H         1 <0>         0.1336
     21 H3         -2.5591    7.8562   -1.5633 H         1 <0>         0.1359
     22 H4          1.1199    7.2375    1.6730 H         1 <0>         0.1427
     23 H5          2.8899    5.8756    0.0058 H         1 <0>         0.1467
     24 H6          3.5295    3.2692   -0.0031 H         1 <0>         0.1528
     25 O4         -0.0110    0.9628    0.0073 O.co2     1 <0>        -0.7327
@<TRIPOS>BOND
     1    1    6 ar
     2    1    2 ar
     3    1   19 1
     4    2    3 ar
     5    2   20 1
     6    3    4 ar
     7    3   21 1
     8    4    5 ar
     9    4   14 1
    10    5    6 ar
    11    5    7 1
    12    6   22 1
    13    7   11 1
    14    7    8 2
    15    8    9 1
    16    8   23 1
    17    9   10 2
    18    9   24 1
    19   10   11 1
    20   10   12 1
    21   12   13 2
    22   12   25 1
    23   14   15 1
    24   15   16 1
    25   15   17 1
    26   15   18 1
@<TRIPOS>MOLECULE
ZINC13679474
   24    26     0     0     0
SMALL
USER_CHARGES

@<TRIPOS>ATOM
      1 C1         -0.0184    1.5028    0.0103 C.3       1 <0>        -0.1137
      2 C2          0.0021   -0.0041    0.0020 C.ar      1 <0>        -0.0629
      3 C3          0.0057   -0.6864   -1.2061 C.ar      1 <0>        -0.1251
      4 C4          0.0246   -2.0522   -1.2349 C.ar      1 <0>        -0.0571
      5 C5          0.0405   -2.7744   -0.0375 C.ar      1 <0>         0.0444
      6 C6          0.0368   -2.0829    1.1865 C.ar      1 <0>         0.0584
      7 C7          0.0228   -0.6954    1.1955 C.ar      1 <0>        -0.1157
      8 N1          0.0546   -3.0484    2.1758 N.pl3     1 <0>        -0.5827
      9 H1          0.0567   -2.8917    3.1330 H         1 <0>         0.4291
     10 C8          0.0683   -4.2673    1.5516 C.2       1 <0>         0.3528
     11 N2          0.0599   -4.0993    0.2506 N.2       1 <0>        -0.4737
     12 C9          0.0898   -5.5737    2.2394 C.2       1 <0>         0.1058
     13 C10         0.1079   -6.7575    1.5445 C.2       1 <0>        -0.1630
     14 S1          0.1286   -7.9294    2.8913 S.3       1 <0>         0.1445
     15 C11         0.1125   -6.8279    4.1631 C.2       1 <0>         0.0358
     16 N3          0.0982   -5.6677    3.5635 N.2       1 <0>        -0.5137
     17 H2          1.0042    1.8801    0.0026 H         1 <0>         0.0735
     18 H3         -0.5455    1.8639   -0.8728 H         1 <0>         0.0709
     19 H4         -0.5286    1.8543    0.9071 H         1 <0>         0.0669
     20 H5         -0.0069   -0.1323   -2.1330 H         1 <0>         0.1321
     21 H6          0.0269   -2.5732   -2.1809 H         1 <0>         0.1325
     22 H7          0.0244   -0.1591    2.1329 H         1 <0>         0.1245
     23 H8          0.1090   -6.9316    0.4786 H         1 <0>         0.2108
     24 H9          0.1169   -7.0318    5.2236 H         1 <0>         0.2255
@<TRIPOS>BOND
     1    1    2 1
     2    1   17 1
     3    1   18 1
     4    1   19 1
     5    2    7 ar
     6    2    3 ar
     7    3    4 ar
     8    3   20 1
     9    4    5 ar
    10    4   21 1
    11    5   11 1
    12    5    6 ar
    13    6    7 ar
    14    6    8 1
    15    7   22 1
    16    8    9 1
    17    8   10 1
    18   10   11 2
    19   10   12 1
    20   12   16 1
    21   12   13 2
    22   13   14 1
    23   13   23 1
    24   14   15 1
    25   15   16 2
    26   15   24 1
@<TRIPOS>MOLECULE
ZINC00238077
   23    24     0     0     0
SMALL
USER_CHARGES
5-(2-chloro-4-nitro-phenyl)furan-2-carboxylic acid
@<TRIPOS>ATOM
      1 C1         -0.4226    8.5299    0.9747 C.ar      1 <0>        -0.0481
      2 C2          0.3193    7.3670    0.9698 C.ar      1 <0>        -0.0891
      3 C3          0.0372    6.3664    0.0377 C.ar      1 <0>         0.0707
      4 C4         -1.0038    6.5466   -0.8776 C.ar      1 <0>        -0.0315
      5 C5         -1.7413    7.7136   -0.8574 C.ar      1 <0>        -0.0456
      6 C6         -1.4516    8.7025    0.0658 C.ar      1 <0>        -0.0408
      7 N1         -2.2465    9.9511    0.0816 N.pl3     1 <0>         0.0318
      8 O1         -3.1532   10.1059   -0.7169 O.2       1 <0>        -0.1579
      9 O2         -1.9940   10.8236    0.8930 O.3       1 <0>        -0.1567
     10 Cl1        -1.3688    5.3063   -2.0361 Cl        1 <0>        -0.0118
     11 C7          0.8309    5.1213    0.0227 C.2       1 <0>        -0.0465
     12 C8          2.1947    5.0466    0.0093 C.2       1 <0>        -0.1603
     13 C9          2.5323    3.6902    0.0033 C.2       1 <0>        -0.1982
     14 C10         1.3472    2.9853    0.0052 C.2       1 <0>         0.0136
     15 O3          0.3312    3.8743    0.0202 O.3       1 <0>        -0.1256
     16 C11         1.2140    1.5284   -0.0013 C.2       1 <0>         0.5225
     17 O4          2.2078    0.8268   -0.0146 O.co2     1 <0>        -0.5991
     18 H1         -0.2022    9.3063    1.6924 H         1 <0>         0.1636
     19 H2          1.1191    7.2323    1.6829 H         1 <0>         0.1629
     20 H3         -2.5463    7.8546   -1.5634 H         1 <0>         0.1659
     21 H4          2.8828    5.8791    0.0081 H         1 <0>         0.1502
     22 H5          3.5291    3.2744   -0.0034 H         1 <0>         0.1568
     23 O5         -0.0110    0.9628    0.0073 O.co2     1 <0>        -0.7268
@<TRIPOS>BOND
     1    1    6 ar
     2    1    2 ar
     3    1   18 1
     4    2    3 ar
     5    2   19 1
     6    3    4 ar
     7    3   11 1
     8    4    5 ar
     9    4   10 1
    10    5    6 ar
    11    5   20 1
    12    6    7 1
    13    7    8 2
    14    7    9 1
    15   11   15 1
    16   11   12 2
    17   12   13 1
    18   12   21 1
    19   13   14 2
    20   13   22 1
    21   14   15 1
    22   14   16 1
    23   16   17 2
    24   16   23 1
@<TRIPOS>MOLECULE
ZINC13679493
   25    27     0     0     0
SMALL
USER_CHARGES

@<TRIPOS>ATOM
      1 C1         -0.0167    1.3802    0.0096 C.ar      1 <0>        -0.0735
      2 C2          1.1934    2.0590    0.0017 C.ar      1 <0>        -0.1549
      3 C3          2.3753    1.3396   -0.0134 C.ar      1 <0>         0.1070
      4 N1          2.3656    0.0231   -0.0208 N.ar      1 <0>        -0.4785
      5 C4          1.2300   -0.6646   -0.0137 C.ar      1 <0>         0.1752
      6 C5          0.0021   -0.0041    0.0020 C.ar      1 <0>        -0.1161
      7 C6          1.2676   -2.1441   -0.0225 C.2       1 <0>         0.3369
      8 N2          2.4076   -2.9024   -0.0325 N.pl3     1 <0>        -0.5742
      9 H1          3.3190   -2.5705   -0.0350 H         1 <0>         0.4345
     10 C7          2.0194   -4.2248   -0.0383 C.ar      1 <0>         0.0787
     11 C8          2.7134   -5.4299   -0.0487 C.ar      1 <0>        -0.1056
     12 C9          2.0336   -6.6129   -0.0528 C.ar      1 <0>        -0.0548
     13 C10         0.6317   -6.6276   -0.0461 C.ar      1 <0>        -0.0347
     14 C11        -0.0805   -5.4328   -0.0356 C.ar      1 <0>        -0.0001
     15 C12         0.6112   -4.2199   -0.0314 C.ar      1 <0>         0.0443
     16 N3          0.2157   -2.9239   -0.0163 N.2       1 <0>        -0.4625
     17 C13        -0.0692   -7.8763   -0.0504 C.1       1 <0>         0.2564
     18 N4         -0.6252   -8.8670   -0.0539 N.1       1 <0>        -0.4117
     19 H2         -0.9522    1.9195    0.0259 H         1 <0>         0.1458
     20 H3          1.2126    3.1388    0.0070 H         1 <0>         0.1435
     21 H4          3.3187    1.8653   -0.0196 H         1 <0>         0.1657
     22 H5         -0.9212   -0.5644    0.0082 H         1 <0>         0.1527
     23 H6          3.7934   -5.4293   -0.0540 H         1 <0>         0.1375
     24 H7          2.5794   -7.5448   -0.0616 H         1 <0>         0.1434
     25 H8         -1.1604   -5.4431   -0.0308 H         1 <0>         0.1449
@<TRIPOS>BOND
     1    1    6 ar
     2    1    2 ar
     3    1   19 1
     4    2    3 ar
     5    2   20 1
     6    3    4 ar
     7    3   21 1
     8    4    5 ar
     9    5    6 ar
    10    5    7 1
    11    6   22 1
    12    7   16 2
    13    7    8 1
    14    8    9 1
    15    8   10 1
    16   10   15 ar
    17   10   11 ar
    18   11   12 ar
    19   11   23 1
    20   12   13 ar
    21   12   24 1
    22   13   14 ar
    23   13   17 1
    24   14   15 ar
    25   14   25 1
    26   15   16 1
    27   17   18 3
@<TRIPOS>MOLECULE
ZINC13122930
   26    28     0     0     0
SMALL
USER_CHARGES

@<TRIPOS>ATOM
      1 C1         -0.0167    1.3799    0.0096 C.ar      1 <0>        -0.0732
      2 C2          1.1935    2.0590    0.0017 C.ar      1 <0>        -0.1622
      3 C3          2.3753    1.3399   -0.0134 C.ar      1 <0>         0.1062
      4 N1          2.3659    0.0232   -0.0208 N.ar      1 <0>        -0.4822
      5 C4          1.2302   -0.6647   -0.0137 C.ar      1 <0>         0.1872
      6 C5          0.0021   -0.0041    0.0020 C.ar      1 <0>        -0.1225
      7 C6          1.2679   -2.1438   -0.0225 C.2       1 <0>         0.3062
      8 N2          2.4086   -2.9031   -0.0325 N.pl3     1 <0>        -0.5821
      9 H1          3.3205   -2.5722   -0.0345 H         1 <0>         0.4287
     10 C7          2.0174   -4.2266   -0.0383 C.ar      1 <0>         0.1103
     11 C8          2.7035   -5.4327   -0.0487 C.ar      1 <0>        -0.2143
     12 C9          1.9962   -6.6235   -0.0522 C.ar      1 <0>         0.2428
     13 C10         0.6016   -6.6139   -0.0454 C.ar      1 <0>        -0.1874
     14 C11        -0.0851   -5.4350   -0.0356 C.ar      1 <0>        -0.0110
     15 C12         0.6104   -4.2203   -0.0314 C.ar      1 <0>        -0.0047
     16 N3          0.2163   -2.9241   -0.0163 N.2       1 <0>        -0.4570
     17 N4          2.6831   -7.8402   -0.0631 N.pl3     1 <0>        -0.8723
     18 H2         -0.9522    1.9193    0.0259 H         1 <0>         0.1437
     19 H3          1.2126    3.1388    0.0070 H         1 <0>         0.1413
     20 H4          3.3186    1.8657   -0.0196 H         1 <0>         0.1633
     21 H5         -0.9212   -0.5644    0.0082 H         1 <0>         0.1509
     22 H6          3.7834   -5.4428   -0.0543 H         1 <0>         0.1221
     23 H7          0.0602   -7.5484   -0.0482 H         1 <0>         0.1312
     24 H8         -1.1651   -5.4391   -0.0311 H         1 <0>         0.1339
     25 H9          3.6531   -7.8496   -0.0682 H         1 <0>         0.3996
     26 H10         2.1901   -8.6756   -0.0656 H         1 <0>         0.4015
@<TRIPOS>BOND
     1    1    6 ar
     2    1    2 ar
     3    1   18 1
     4    2    3 ar
     5    2   19 1
     6    3    4 ar
     7    3   20 1
     8    4    5 ar
     9    5    6 ar
    10    5    7 1
    11    6   21 1
    12    7   16 2
    13    7    8 1
    14    8    9 1
    15    8   10 1
    16   10   15 ar
    17   10   11 ar
    18   11   12 ar
    19   11   22 1
    20   12   13 ar
    21   12   17 1
    22   13   14 ar
    23   13   23 1
    24   14   15 ar
    25   14   24 1
    26   15   16 1
    27   17   25 1
    28   17   26 1
@<TRIPOS>MOLECULE
ZINC13679485
   24    26     0     0     0
SMALL
USER_CHARGES

@<TRIPOS>ATOM
      1 C1         -0.0167    1.3801    0.0096 C.ar      1 <0>        -0.0734
      2 C2          1.1934    2.0590    0.0017 C.ar      1 <0>        -0.1560
      3 C3          2.3753    1.3397   -0.0134 C.ar      1 <0>         0.1069
      4 N1          2.3657    0.0231   -0.0208 N.ar      1 <0>        -0.4793
      5 C4          1.2301   -0.6647   -0.0137 C.ar      1 <0>         0.1775
      6 C5          0.0021   -0.0041    0.0020 C.ar      1 <0>        -0.1170
      7 C6          1.2677   -2.1440   -0.0230 C.2       1 <0>         0.3328
      8 N2          2.4077   -2.9027   -0.0334 N.pl3     1 <0>        -0.5751
      9 H1          3.3194   -2.5718   -0.0362 H         1 <0>         0.4332
     10 C7          2.0168   -4.2262   -0.0388 C.ar      1 <0>         0.0794
     11 C8          2.7024   -5.4334   -0.0496 C.ar      1 <0>        -0.1500
     12 C9          1.9973   -6.6204   -0.0529 C.ar      1 <0>         0.1246
     13 C10         0.6071   -6.6134   -0.0459 C.ar      1 <0>        -0.1571
     14 C11        -0.0832   -5.4356   -0.0356 C.ar      1 <0>        -0.0271
     15 C12         0.6102   -4.2202   -0.0311 C.ar      1 <0>         0.0388
     16 N3          0.2159   -2.9243   -0.0168 N.2       1 <0>        -0.4641
     17 F1          2.6626   -7.7962   -0.0635 F         1 <0>        -0.1315
     18 H2         -0.9522    1.9194    0.0259 H         1 <0>         0.1457
     19 H3          1.2126    3.1388    0.0070 H         1 <0>         0.1434
     20 H4          3.3186    1.8655   -0.0196 H         1 <0>         0.1654
     21 H5         -0.9212   -0.5644    0.0082 H         1 <0>         0.1524
     22 H6          3.7823   -5.4439   -0.0559 H         1 <0>         0.1392
     23 H7          0.0679   -7.5492   -0.0489 H         1 <0>         0.1465
     24 H8         -1.1632   -5.4420   -0.0309 H         1 <0>         0.1447
@<TRIPOS>BOND
     1    1    6 ar
     2    1    2 ar
     3    1   18 1
     4    2    3 ar
     5    2   19 1
     6    3    4 ar
     7    3   20 1
     8    4    5 ar
     9    5    6 ar
    10    5    7 1
    11    6   21 1
    12    7   16 2
    13    7    8 1
    14    8    9 1
    15    8   10 1
    16   10   15 ar
    17   10   11 ar
    18   11   12 ar
    19   11   22 1
    20   12   13 ar
    21   12   17 1
    22   13   14 ar
    23   13   23 1
    24   14   15 ar
    25   14   24 1
    26   15   16 1
@<TRIPOS>MOLECULE
ZINC01456631
   23    25     0     0     0
SMALL
USER_CHARGES
2-pyrazin-2-yl-1H-benzimidazole
@<TRIPOS>ATOM
      1 C1          0.4541    7.9594    0.0363 C.ar      1 <0>        -0.0923
      2 C2          1.8419    7.9320    0.0229 C.ar      1 <0>        -0.1265
      3 C3          2.5155    6.7442    0.0112 C.ar      1 <0>        -0.0581
      4 C4          1.8041    5.5392    0.0127 C.ar      1 <0>         0.0467
      5 C5          0.3978    5.5672    0.0263 C.ar      1 <0>         0.0582
      6 C6         -0.2684    6.7853    0.0380 C.ar      1 <0>        -0.1137
      7 N1         -0.0136    4.2499    0.0186 N.pl3     1 <0>        -0.5799
      8 H1         -0.9588    3.9234    0.0194 H         1 <0>         0.4370
      9 C7          1.1138    3.4738    0.0096 C.2       1 <0>         0.3245
     10 N2          2.1780    4.2376    0.0030 N.2       1 <0>        -0.4647
     11 C8          1.1284    1.9941    0.0020 C.ar      1 <0>         0.1339
     12 C9          2.3426    1.3056   -0.0133 C.ar      1 <0>         0.1053
     13 N3          2.3495   -0.0142   -0.0209 N.ar      1 <0>        -0.4320
     14 C10         1.2093   -0.6833   -0.0136 C.ar      1 <0>         0.0641
     15 C11         0.0021   -0.0041    0.0020 C.ar      1 <0>         0.0599
     16 N4         -0.0158    1.3152    0.0093 N.ar      1 <0>        -0.4340
     17 H2         -0.0633    8.9073    0.0450 H         1 <0>         0.1337
     18 H3          2.3947    8.8597    0.0220 H         1 <0>         0.1333
     19 H4          3.5954    6.7348    0.0012 H         1 <0>         0.1334
     20 H5         -1.3480    6.8129    0.0488 H         1 <0>         0.1264
     21 H6          3.2743    1.8517   -0.0189 H         1 <0>         0.1858
     22 H7          1.2190   -1.7632   -0.0202 H         1 <0>         0.1789
     23 H8         -0.9265   -0.5556    0.0079 H         1 <0>         0.1801
@<TRIPOS>BOND
     1    1    6 ar
     2    1    2 ar
     3    1   17 1
     4    2    3 ar
     5    2   18 1
     6    3    4 ar
     7    3   19 1
     8    4   10 1
     9    4    5 ar
    10    5    6 ar
    11    5    7 1
    12    6   20 1
    13    7    8 1
    14    7    9 1
    15    9   10 2
    16    9   11 1
    17   11   16 ar
    18   11   12 ar
    19   12   13 ar
    20   12   21 1
    21   13   14 ar
    22   14   15 ar
    23   14   22 1
    24   15   16 ar
    25   15   23 1
@<TRIPOS>MOLECULE
ZINC00280585
   21    22     0     0     0
SMALL
USER_CHARGES

@<TRIPOS>ATOM
      1 C1         -0.0166    1.3748    0.0096 C.ar      1 <0>        -0.1172
      2 C2          1.1703    2.0869    0.0021 C.ar      1 <0>        -0.1098
      3 C3          2.3832    1.4226   -0.0135 C.ar      1 <0>        -0.1123
      4 C4          2.4176    0.0420   -0.0218 C.ar      1 <0>        -0.0235
      5 C5          1.2227   -0.6829   -0.0138 C.ar      1 <0>         0.0101
      6 C6          0.0021   -0.0041    0.0020 C.ar      1 <0>        -0.0884
      7 C7          1.2505   -2.1590   -0.0225 C.2       1 <0>        -0.0264
      8 C8          0.5517   -2.9814    0.8327 C.2       1 <0>        -0.1841
      9 C9          0.8632   -4.2961    0.4797 C.2       1 <0>        -0.1924
     10 C10         1.7437   -4.2269   -0.5816 C.2       1 <0>        -0.0210
     11 O1          1.9571   -2.9251   -0.8696 O.3       1 <0>        -0.1292
     12 C11         2.3193   -5.3314   -1.2561 C.2       1 <0>         0.5483
     13 O2          2.0450   -6.4734   -0.9066 O.co2     1 <0>        -0.6643
     14 O3          3.0915   -5.1450   -2.1890 O.co2     1 <0>        -0.6710
     15 Cl1         3.9407   -0.7907   -0.0425 Cl        1 <0>        -0.0477
     16 H1         -0.9599    1.9005    0.0260 H         1 <0>         0.1315
     17 H2          1.1491    3.1667    0.0081 H         1 <0>         0.1313
     18 H3          3.3054    1.9846   -0.0197 H         1 <0>         0.1349
     19 H4         -0.9251   -0.5579    0.0083 H         1 <0>         0.1362
     20 H5         -0.1109   -2.6689    1.6262 H         1 <0>         0.1436
     21 H6          0.4878   -5.1944    0.9473 H         1 <0>         0.1512
@<TRIPOS>BOND
     1    1    6 ar
     2    1    2 ar
     3    1   16 1
     4    2    3 ar
     5    2   17 1
     6    3    4 ar
     7    3   18 1
     8    4    5 ar
     9    4   15 1
    10    5    6 ar
    11    5    7 1
    12    6   19 1
    13    7   11 1
    14    7    8 2
    15    8    9 1
    16    8   20 1
    17    9   10 2
    18    9   21 1
    19   10   11 1
    20   10   12 1
    21   12   13 2
    22   12   14 1
@<TRIPOS>MOLECULE
ZINC00457067
   24    25     0     0     0
SMALL
USER_CHARGES
5-(2-chloro-3-methyl-phenyl)furan-2-carboxylic acid
@<TRIPOS>ATOM
      1 C1         -2.8663    7.9091   -1.8414 C.3       1 <0>        -0.1184
      2 C2         -1.7425    7.7128   -0.8567 C.ar      1 <0>        -0.0788
      3 C3         -1.4519    8.7023    0.0656 C.ar      1 <0>        -0.1103
      4 C4         -0.4219    8.5305    0.9733 C.ar      1 <0>        -0.1129
      5 C5          0.3201    7.3676    0.9685 C.ar      1 <0>        -0.0937
      6 C6          0.0372    6.3664    0.0372 C.ar      1 <0>         0.0116
      7 C7         -1.0047    6.5460   -0.8772 C.ar      1 <0>        -0.0247
      8 Cl1        -1.3695    5.3057   -2.0357 Cl        1 <0>        -0.0441
      9 C8          0.8309    5.1213    0.0224 C.2       1 <0>        -0.0182
     10 C9          2.1947    5.0466    0.0087 C.2       1 <0>        -0.1833
     11 C10         2.5323    3.6902    0.0033 C.2       1 <0>        -0.1959
     12 C11         1.3472    2.9853    0.0052 C.2       1 <0>        -0.0056
     13 O1          0.3312    3.8743    0.0202 O.3       1 <0>        -0.1285
     14 C12         1.2140    1.5284   -0.0013 C.2       1 <0>         0.5250
     15 O2          2.2078    0.8268   -0.0146 O.co2     1 <0>        -0.6050
     16 H1         -3.7943    7.5293   -1.4140 H         1 <0>         0.0760
     17 H2         -2.9754    8.9712   -2.0611 H         1 <0>         0.0700
     18 H3         -2.6420    7.3690   -2.7612 H         1 <0>         0.0740
     19 H4         -2.0318    9.6134    0.0768 H         1 <0>         0.1310
     20 H5         -0.2011    9.3071    1.6906 H         1 <0>         0.1318
     21 H6          1.1208    7.2335    1.6807 H         1 <0>         0.1359
     22 H7          2.8828    5.8791    0.0068 H         1 <0>         0.1448
     23 H8          3.5291    3.2744   -0.0037 H         1 <0>         0.1517
     24 O3         -0.0110    0.9628    0.0073 O.co2     1 <0>        -0.7324
@<TRIPOS>BOND
     1    1    2 1
     2    1   16 1
     3    1   17 1
     4    1   18 1
     5    2    7 ar
     6    2    3 ar
     7    3    4 ar
     8    3   19 1
     9    4    5 ar
    10    4   20 1
    11    5    6 ar
    12    5   21 1
    13    6    7 ar
    14    6    9 1
    15    7    8 1
    16    9   13 1
    17    9   10 2
    18   10   11 1
    19   10   22 1
    20   11   12 2
    21   11   23 1
    22   12   13 1
    23   12   14 1
    24   14   15 2
    25   14   24 1
@<TRIPOS>MOLECULE
ZINC00349812
   24    25     0     0     0
SMALL
USER_CHARGES

@<TRIPOS>ATOM
      1 C1         -0.0166    1.3749    0.0096 C.ar      1 <0>        -0.0880
      2 C2          1.1705    2.0863    0.0021 C.ar      1 <0>        -0.1246
      3 C3          2.3832    1.4207   -0.0130 C.ar      1 <0>        -0.0725
      4 C4          2.4167    0.0415   -0.0207 C.ar      1 <0>        -0.1695
      5 C5          1.2228   -0.6826   -0.0132 C.ar      1 <0>         0.0574
      6 C6          0.0021   -0.0041    0.0020 C.ar      1 <0>        -0.1026
      7 C7          1.2508   -2.1591   -0.0218 C.2       1 <0>        -0.0531
      8 C8          0.5518   -2.9813    0.8329 C.2       1 <0>        -0.1701
      9 C9          0.8629   -4.2963    0.4795 C.2       1 <0>        -0.1944
     10 C10         1.7434   -4.2269   -0.5816 C.2       1 <0>        -0.0122
     11 O1          1.9578   -2.9251   -0.8686 O.3       1 <0>        -0.1275
     12 C11         2.3194   -5.3316   -1.2562 C.2       1 <0>         0.5473
     13 O2          2.0453   -6.4736   -0.9068 O.co2     1 <0>        -0.6627
     14 O3          3.0916   -5.1451   -2.1891 O.co2     1 <0>        -0.6673
     15 C12         3.7387   -0.6818   -0.0377 C.3       1 <0>         0.5023
     16 F1          4.7809    0.2515   -0.0430 F         1 <0>        -0.1842
     17 F2          3.8425   -1.4902    1.0994 F         1 <0>        -0.1729
     18 F3          3.8199   -1.4781   -1.1851 F         1 <0>        -0.1537
     19 H1         -0.9598    1.9009    0.0259 H         1 <0>         0.1353
     20 H2          1.1500    3.1661    0.0077 H         1 <0>         0.1345
     21 H3          3.3059    1.9820   -0.0192 H         1 <0>         0.1400
     22 H4         -0.9250   -0.5580    0.0082 H         1 <0>         0.1394
     23 H5         -0.1110   -2.6688    1.6263 H         1 <0>         0.1458
     24 H6          0.4875   -5.1946    0.9469 H         1 <0>         0.1532
@<TRIPOS>BOND
     1    1    6 ar
     2    1    2 ar
     3    1   19 1
     4    2    3 ar
     5    2   20 1
     6    3    4 ar
     7    3   21 1
     8    4    5 ar
     9    4   15 1
    10    5    6 ar
    11    5    7 1
    12    6   22 1
    13    7   11 1
    14    7    8 2
    15    8    9 1
    16    8   23 1
    17    9   10 2
    18    9   24 1
    19   10   11 1
    20   10   12 1
    21   12   13 2
    22   12   14 1
    23   15   16 1
    24   15   17 1
    25   15   18 1
@<TRIPOS>MOLECULE
ZINC04387691
   25    26     0     0     0
SMALL
USER_CHARGES
5-(2-chlorophenyl)furan-2-carbohydrazide
@<TRIPOS>ATOM
      1 C1          0.0021   -0.0041    0.0020 C.ar      1 <0>        -0.1142
      2 C2          1.2078   -0.6836   -0.0136 C.ar      1 <0>        -0.0912
      3 C3          2.4023    0.0137   -0.0208 C.ar      1 <0>        -0.1087
      4 C4          2.3990    1.3947   -0.0129 C.ar      1 <0>        -0.0110
      5 C5          1.1850    2.0866    0.0020 C.ar      1 <0>        -0.0233
      6 C6         -0.0166    1.3749    0.0096 C.ar      1 <0>        -0.0804
      7 C7          1.1727    3.5632    0.0095 C.2       1 <0>         0.0543
      8 C8          1.8871    4.3609    0.8568 C.2       1 <0>        -0.1813
      9 C9          1.5874    5.6859    0.5247 C.2       1 <0>        -0.1059
     10 C10         0.6932    5.6408   -0.5224 C.2       1 <0>        -0.0751
     11 O1          0.4612    4.3448   -0.8199 O.3       1 <0>        -0.1545
     12 C11         0.1014    6.7979   -1.1987 C.2       1 <0>         0.6072
     13 O2          0.3919    7.9251   -0.8428 O.2       1 <0>        -0.5037
     14 N1         -0.7647    6.6143   -2.2149 N.am      1 <0>        -0.5678
     15 N2         -1.3165    7.6931   -2.8454 N.3       1 <0>        -0.5994
     16 Cl1         3.8989    2.2688   -0.0225 Cl        1 <0>        -0.0503
     17 H1         -0.9267   -0.5553    0.0079 H         1 <0>         0.1375
     18 H2          1.2160   -1.7635   -0.0198 H         1 <0>         0.1391
     19 H3          3.3394   -0.5229   -0.0323 H         1 <0>         0.1427
     20 H4         -0.9585    1.9033    0.0169 H         1 <0>         0.1372
     21 H5          2.5578    4.0307    1.6363 H         1 <0>         0.1616
     22 H6          1.9808    6.5734    0.9981 H         1 <0>         0.1673
     23 H7         -0.9962    5.7160   -2.4984 H         1 <0>         0.4066
     24 H8         -1.9418    7.4009   -3.5814 H         1 <0>         0.3627
     25 H9         -1.7888    8.2942   -2.1869 H         1 <0>         0.3509
@<TRIPOS>BOND
     1    1    6 ar
     2    1    2 ar
     3    1   17 1
     4    2    3 ar
     5    2   18 1
     6    3    4 ar
     7    3   19 1
     8    4    5 ar
     9    4   16 1
    10    5    6 ar
    11    5    7 1
    12    6   20 1
    13    7   11 1
    14    7    8 2
    15    8    9 1
    16    8   21 1
    17    9   10 2
    18    9   22 1
    19   10   11 1
    20   10   12 1
    21   12   13 2
    22   12   14 am
    23   14   15 1
    24   14   23 1
    25   15   24 1
    26   15   25 1
@<TRIPOS>MOLECULE
ZINC05819379
   22    24     0     0     0
SMALL
USER_CHARGES

@<TRIPOS>ATOM
      1 C1         -0.0167    1.3803    0.0096 C.ar      1 <0>        -0.0823
      2 C2          1.1933    2.0590    0.0017 C.ar      1 <0>        -0.1959
      3 C3          2.3753    1.3394   -0.0134 C.ar      1 <0>         0.0957
      4 N1          2.3654    0.0230   -0.0204 N.ar      1 <0>        -0.4638
      5 C4          1.2298   -0.6646   -0.0133 C.ar      1 <0>         0.2449
      6 C5          0.0021   -0.0041    0.0020 C.ar      1 <0>        -0.1492
      7 C6          1.2674   -2.1443   -0.0216 C.2       1 <0>         0.2125
      8 N2          2.3592   -2.8709   -0.0306 N.2       1 <0>        -0.5326
      9 C7          2.0358   -4.1757   -0.0358 C.ar      1 <0>         0.0254
     10 C8          2.7676   -5.3705   -0.0449 C.ar      1 <0>        -0.1273
     11 C9          2.0913   -6.5573   -0.0471 C.ar      1 <0>         0.0191
     12 N3          0.7697   -6.5996   -0.0413 N.ar      1 <0>        -0.5126
     13 C10         0.0291   -5.5087   -0.0327 C.ar      1 <0>         0.1417
     14 C11         0.6279   -4.2592   -0.0294 C.ar      1 <0>        -0.0435
     15 N4          0.1687   -2.9591   -0.0150 N.2       1 <0>        -0.5564
     16 H1         -0.9522    1.9197    0.0259 H         1 <0>         0.1297
     17 H2          1.2126    3.1389    0.0070 H         1 <0>         0.1270
     18 H3          3.3187    1.8650   -0.0200 H         1 <0>         0.1503
     19 H4         -0.9212   -0.5644    0.0082 H         1 <0>         0.1417
     20 H5          3.8475   -5.3534   -0.0504 H         1 <0>         0.1081
     21 H6          2.6488   -7.4823   -0.0540 H         1 <0>         0.1330
     22 H7         -1.0479   -5.5893   -0.0283 H         1 <0>         0.1346
@<TRIPOS>BOND
     1    1    6 ar
     2    1    2 ar
     3    1   16 1
     4    2    3 ar
     5    2   17 1
     6    3    4 ar
     7    3   18 1
     8    4    5 ar
     9    5    6 ar
    10    5    7 1
    11    6   19 1
    12    7   15 1
    13    7    8 2
    14    8    9 1
    15    9   10 ar
    16    9   14 ar
    17   10   11 ar
    18   10   20 1
    19   11   12 ar
    20   11   21 1
    21   12   13 ar
    22   13   14 ar
    23   13   22 1
    24   14   15 1
@<TRIPOS>MOLECULE
ZINC05819379
   24    26     0     0     0
SMALL
USER_CHARGES
2-(2-pyridyl)-3H-imidazo[5,4-c]pyridine
@<TRIPOS>ATOM
      1 C1          1.2201   -0.6681   -0.0132 C.ar      1 <0>        -0.0611
      2 C2          0.0021   -0.0041    0.0020 C.ar      1 <0>        -0.1100
      3 C3         -0.0167    1.3797    0.0096 C.ar      1 <0>         0.1262
      4 N1          1.1035    2.0712    0.0026 N.ar      1 <0>        -0.4533
      5 C4          2.2895    1.4748   -0.0118 C.ar      1 <0>         0.1064
      6 C5          2.3827    0.0837   -0.0202 C.ar      1 <0>        -0.1142
      7 C6          3.5228    2.2933   -0.0192 C.cat     1 <0>         0.4737
      8 N2          3.5595    3.6607   -0.0176 N.pl3     1 <0>        -0.5002
      9 H1          2.7714    4.2762   -0.0136 H         1 <0>         0.4805
     10 C7          4.8878    4.0306   -0.0226 C.ar      1 <0>         0.0166
     11 C8          5.5676    5.2385   -0.0227 C.ar      1 <0>         0.1775
     12 N3          6.8857    5.2581   -0.0358 N.ar      1 <0>        -0.4362
     13 C9          7.6096    4.1513   -0.0492 C.ar      1 <0>         0.1336
     14 C10         7.0260    2.9167   -0.0502 C.ar      1 <0>        -0.1296
     15 C11         5.6272    2.8302   -0.0367 C.ar      1 <0>         0.0983
     16 H2          1.2605   -1.7474   -0.0197 H         1 <0>         0.1631
     17 H3         -0.9228   -0.5618    0.0082 H         1 <0>         0.1631
     18 H4         -0.9634    1.8994    0.0169 H         1 <0>         0.1852
     19 H5          3.3480   -0.4004   -0.0324 H         1 <0>         0.1462
     20 H6          5.0156    6.1668   -0.0123 H         1 <0>         0.1893
     21 H7          8.6870    4.2256   -0.0600 H         1 <0>         0.1911
     22 H8          7.6317    2.0226   -0.0609 H         1 <0>         0.1687
     23 N4          4.7449    1.8149   -0.0339 N.pl3     1 <0>        -0.4946
     24 H9          4.9900    0.8178   -0.0421 H         1 <0>         0.4797
@<TRIPOS>BOND
     1    1    6 ar
     2    1    2 ar
     3    1   16 1
     4    2    3 ar
     5    2   17 1
     6    3    4 ar
     7    3   18 1
     8    4    5 ar
     9    5    6 ar
    10    5    7 1
    11    6   19 1
    12    7    8 1
    13    7   23 2
    14    8    9 1
    15    8   10 1
    16   10   15 ar
    17   10   11 ar
    18   11   12 ar
    19   11   20 1
    20   12   13 ar
    21   13   14 ar
    22   13   21 1
    23   14   15 ar
    24   14   22 1
    25   15   23 1
    26   23   24 1
@<TRIPOS>MOLECULE
ZINC00434357
   27    29     0     0     0
SMALL
USER_CHARGES
imidazo[2,1-a]isoquinoline-2-carbohydrazide
@<TRIPOS>ATOM
      1 C1         -0.0126    1.0758    0.0080 C.ar      1 <0>        -0.1036
      2 C2          1.1847    1.7790    0.0003 C.ar      1 <0>        -0.1112
      3 C3          1.1911    3.1569    0.0076 C.ar      1 <0>        -0.0770
      4 C4         -0.0176    3.8502    0.0229 C.ar      1 <0>        -0.0169
      5 C5         -1.2358    3.1359    0.0307 C.ar      1 <0>        -0.0488
      6 C6         -1.2188    1.7408    0.0173 C.ar      1 <0>        -0.0985
      7 C7         -2.4909    3.8923    0.0470 C.2       1 <0>        -0.1173
      8 C8         -2.4628    5.2305    0.0531 C.2       1 <0>         0.0549
      9 N1         -1.2888    5.9450    0.0453 N.pl3     1 <0>        -0.3861
     10 C9         -0.0688    5.3191    0.0308 C.2       1 <0>         0.2499
     11 N2          0.8750    6.2357    0.0266 N.2       1 <0>        -0.4541
     12 C10         0.3038    7.4558    0.0380 C.2       1 <0>        -0.0199
     13 C11        -1.0507    7.2882    0.0498 C.2       1 <0>         0.0228
     14 C12         1.0173    8.7466    0.0383 C.2       1 <0>         0.6073
     15 O1          0.3897    9.7882    0.0498 O.2       1 <0>        -0.5256
     16 N3          2.3647    8.7718    0.0258 N.am      1 <0>        -0.5625
     17 N4          3.0255    9.9674    0.0261 N.3       1 <0>        -0.6009
     18 H1          0.0021   -0.0041    0.0020 H         1 <0>         0.1321
     19 H2          2.1206    1.2403   -0.0119 H         1 <0>         0.1332
     20 H3          2.1269    3.6961    0.0013 H         1 <0>         0.1391
     21 H4         -2.1454    1.1859    0.0184 H         1 <0>         0.1364
     22 H5         -3.4368    3.3710    0.0538 H         1 <0>         0.1607
     23 H6         -3.3986    5.7694    0.0649 H         1 <0>         0.1669
     24 H7         -1.7940    8.0716    0.0603 H         1 <0>         0.1995
     25 H8          2.8653    7.9410    0.0167 H         1 <0>         0.4108
     26 H9          2.7473   10.5341    0.8131 H         1 <0>         0.3481
     27 H10         4.0248    9.8282    0.0160 H         1 <0>         0.3607
@<TRIPOS>BOND
     1    1    6 ar
     2    1    2 ar
     3    1   18 1
     4    2    3 ar
     5    2   19 1
     6    3    4 ar
     7    3   20 1
     8    4   10 1
     9    4    5 ar
    10    5    6 ar
    11    5    7 1
    12    6   21 1
    13    7    8 2
    14    7   22 1
    15    8    9 1
    16    8   23 1
    17    9   13 1
    18    9   10 1
    19   10   11 2
    20   11   12 1
    21   12   13 2
    22   12   14 1
    23   13   24 1
    24   14   15 2
    25   14   16 am
    26   16   17 1
    27   16   25 1
    28   17   26 1
    29   17   27 1
@<TRIPOS>MOLECULE
ZINC13521891
   21    22     0     0     0
SMALL
USER_CHARGES

@<TRIPOS>ATOM
      1 C1         -0.0167    1.3830    0.0096 C.ar      1 <0>        -0.1028
      2 C2         -1.2306    2.0468    0.0190 C.ar      1 <0>        -0.2227
      3 C3         -2.4003    1.2905    0.0205 C.ar      1 <0>         0.2746
      4 C4         -2.3034   -0.1056    0.0124 C.ar      1 <0>        -0.1127
      5 N1         -1.1141   -0.6975    0.0040 N.ar      1 <0>        -0.4237
      6 C5          0.0021   -0.0041    0.0020 C.ar      1 <0>        -0.0474
      7 C6         -3.5321   -0.9268    0.0138 C.2       1 <0>         0.5729
      8 O1         -4.6224   -0.3892    0.0219 O.2       1 <0>        -0.4464
      9 N2         -3.4438   -2.2716    0.0061 N.am      1 <0>        -0.6187
     10 C7         -4.5985   -3.0433    0.0074 C.2       1 <0>         0.3118
     11 N3         -5.8510   -2.6406    0.0097 N.2       1 <0>        -0.5375
     12 C8         -6.8464   -3.5076    0.0100 C.2       1 <0>         0.0760
     13 C9         -6.5178   -4.8230    0.0077 C.2       1 <0>        -0.2756
     14 S1         -4.7353   -4.7207   -0.0011 S.3       1 <0>         0.0648
     15 O2         -3.6135    1.8973    0.0300 O.3       1 <0>        -0.6555
     16 H1          0.9085    1.9401    0.0038 H         1 <0>         0.1089
     17 H2         -1.2703    3.1260    0.0254 H         1 <0>         0.1134
     18 H3          0.9495   -0.5225   -0.0098 H         1 <0>         0.1327
     19 H4         -2.5738   -2.7005   -0.0004 H         1 <0>         0.4273
     20 H5         -7.8767   -3.1836    0.0122 H         1 <0>         0.1690
     21 H6         -7.1579   -5.6929    0.0075 H         1 <0>         0.1916
@<TRIPOS>BOND
     1    1    6 ar
     2    1   16 1
     3    1    2 ar
     4    2    3 ar
     5    2   17 1
     6    3   15 1
     7    3    4 ar
     8    4    7 1
     9    4    5 ar
    10    5    6 ar
    11    6   18 1
    12    7    8 2
    13    7    9 am
    14    9   10 1
    15    9   19 1
    16   10   14 1
    17   10   11 2
    18   11   12 1
    19   12   13 2
    20   12   20 1
    21   13   14 1
    22   13   21 1
@<TRIPOS>MOLECULE
ZINC13521891
   22    23     0     0     0
SMALL
USER_CHARGES

@<TRIPOS>ATOM
      1 C1         -0.0167    1.3830    0.0096 C.ar      1 <0>        -0.1021
      2 C2         -1.2306    2.0468    0.0190 C.ar      1 <0>        -0.1055
      3 C3         -2.4003    1.2905    0.0205 C.ar      1 <0>         0.2943
      4 C4         -2.3034   -0.1056    0.0124 C.ar      1 <0>        -0.1090
      5 N1         -1.1141   -0.6975    0.0040 N.ar      1 <0>        -0.3745
      6 C5          0.0021   -0.0041    0.0020 C.ar      1 <0>         0.0325
      7 C6         -3.5321   -0.9268    0.0138 C.2       1 <0>         0.5533
      8 O1         -4.6224   -0.3892    0.0219 O.2       1 <0>        -0.3971
      9 N2         -3.4438   -2.2716    0.0061 N.am      1 <0>        -0.6339
     10 C7         -4.5985   -3.0433    0.0074 C.2       1 <0>         0.2725
     11 N3         -5.8510   -2.6406    0.0097 N.2       1 <0>        -0.5176
     12 C8         -6.8464   -3.5076    0.0100 C.2       1 <0>         0.0651
     13 C9         -6.5178   -4.8230    0.0077 C.2       1 <0>        -0.2392
     14 S1         -4.7353   -4.7207   -0.0011 S.3       1 <0>         0.1057
     15 O2         -3.6135    1.8973    0.0300 O.3       1 <0>        -0.5652
     16 H1          0.9085    1.9401    0.0038 H         1 <0>         0.1640
     17 H2         -1.2703    3.1260    0.0254 H         1 <0>         0.1564
     18 H3          0.9495   -0.5225   -0.0098 H         1 <0>         0.1894
     19 H4         -2.5738   -2.7005   -0.0004 H         1 <0>         0.4102
     20 H5         -7.8767   -3.1836    0.0122 H         1 <0>         0.1792
     21 H6         -7.1579   -5.6929    0.0075 H         1 <0>         0.2018
     22 H7         -1.0685   -1.6664   -0.0008 H         1 <0>         0.4199
@<TRIPOS>BOND
     1    1    6 ar
     2    1   16 1
     3    1    2 ar
     4    2    3 ar
     5    2   17 1
     6    3   15 1
     7    3    4 ar
     8    4    7 1
     9    4    5 ar
    10    5   22 1
    11    5    6 ar
    12    6   18 1
    13    7    8 2
    14    7    9 am
    15    9   10 1
    16    9   19 1
    17   10   14 1
    18   10   11 2
    19   11   12 1
    20   12   13 2
    21   12   20 1
    22   13   14 1
    23   13   21 1
@<TRIPOS>MOLECULE
ZINC13521891
   22    23     0     0     0
SMALL
USER_CHARGES

@<TRIPOS>ATOM
      1 C1         -0.0167    1.3830    0.0096 C.ar      1 <0>        -0.1235
      2 C2         -1.2306    2.0468    0.0190 C.ar      1 <0>        -0.1095
      3 C3         -2.4003    1.2905    0.0205 C.ar      1 <0>         0.1306
      4 C4         -2.3034   -0.1056    0.0124 C.ar      1 <0>         0.0437
      5 N1         -1.1141   -0.6975    0.0040 N.ar      1 <0>        -0.4456
      6 C5          0.0021   -0.0041    0.0020 C.ar      1 <0>         0.0919
      7 C6         -3.5321   -0.9268    0.0138 C.2       1 <0>         0.5682
      8 O1         -4.6224   -0.3892    0.0219 O.2       1 <0>        -0.4442
      9 N2         -3.4438   -2.2716    0.0061 N.am      1 <0>        -0.6079
     10 C7         -4.5985   -3.0433    0.0074 C.2       1 <0>         0.2715
     11 N3         -5.8510   -2.6406    0.0097 N.2       1 <0>        -0.5242
     12 C8         -6.8464   -3.5076    0.0100 C.2       1 <0>         0.0632
     13 C9         -6.5178   -4.8230    0.0077 C.2       1 <0>        -0.2453
     14 S1         -4.7353   -4.7207   -0.0011 S.3       1 <0>         0.1134
     15 O2         -3.6135    1.8973    0.0300 O.3       1 <0>        -0.4702
     16 H1          0.9085    1.9401    0.0038 H         1 <0>         0.1497
     17 H2         -1.2703    3.1260    0.0254 H         1 <0>         0.1526
     18 H3          0.9495   -0.5225   -0.0098 H         1 <0>         0.1715
     19 H4         -2.5738   -2.7005   -0.0004 H         1 <0>         0.4349
     20 H5         -7.8767   -3.1836    0.0122 H         1 <0>         0.1770
     21 H6         -7.1579   -5.6929    0.0075 H         1 <0>         0.2002
     22 H7         -3.9696    2.0783   -0.8506 H         1 <0>         0.4019
@<TRIPOS>BOND
     1    1    6 ar
     2    1   16 1
     3    1    2 ar
     4    2    3 ar
     5    2   17 1
     6    3   15 1
     7    3    4 ar
     8    4    7 1
     9    4    5 ar
    10    5    6 ar
    11    6   18 1
    12    7    8 2
    13    7    9 am
    14    9   10 1
    15    9   19 1
    16   10   14 1
    17   10   11 2
    18   11   12 1
    19   12   13 2
    20   12   20 1
    21   13   14 1
    22   13   21 1
    23   15   22 1
@<TRIPOS>MOLECULE
ZINC12481420
   27    29     0     0     0
SMALL
USER_CHARGES

@<TRIPOS>ATOM
      1 C1         -0.0184    1.5028    0.0103 C.3       1 <0>        -0.1140
      2 C2          0.0021   -0.0041    0.0020 C.ar      1 <0>        -0.0613
      3 C3          0.0057   -0.6865   -1.2068 C.ar      1 <0>        -0.1256
      4 C4          0.0241   -2.0516   -1.2364 C.ar      1 <0>        -0.0557
      5 C5          0.0400   -2.7748   -0.0387 C.ar      1 <0>         0.0424
      6 C6          0.0368   -2.0831    1.1861 C.ar      1 <0>         0.0599
      7 C7          0.0228   -0.6947    1.1949 C.ar      1 <0>        -0.1162
      8 N1          0.0549   -3.0476    2.1731 N.pl3     1 <0>        -0.5783
      9 H1          0.0571   -2.8915    3.1304 H         1 <0>         0.4303
     10 C8          0.0683   -4.2655    1.5486 C.2       1 <0>         0.3249
     11 N2          0.0594   -4.0980    0.2495 N.2       1 <0>        -0.4687
     12 C9          0.0906   -5.5751    2.2377 C.ar      1 <0>         0.1808
     13 C10         0.1085   -6.7508    1.4882 C.ar      1 <0>        -0.1190
     14 C11         0.1296   -7.9680    2.1473 C.ar      1 <0>        -0.0734
     15 C12         0.1322   -7.9700    3.5348 C.ar      1 <0>        -0.1583
     16 C13         0.1137   -6.7654    4.2154 C.ar      1 <0>         0.1064
     17 N3          0.0989   -5.6210    3.5645 N.ar      1 <0>        -0.4803
     18 H2          1.0042    1.8801    0.0026 H         1 <0>         0.0737
     19 H3         -0.5455    1.8639   -0.8728 H         1 <0>         0.0710
     20 H4         -0.5286    1.8543    0.9071 H         1 <0>         0.0672
     21 H5         -0.0065   -0.1320   -2.1335 H         1 <0>         0.1322
     22 H6          0.0260   -2.5721   -2.1827 H         1 <0>         0.1327
     23 H7          0.0240   -0.1583    2.1323 H         1 <0>         0.1252
     24 H8          0.1055   -6.7124    0.4089 H         1 <0>         0.1516
     25 H9          0.1435   -8.8953    1.5938 H         1 <0>         0.1450
     26 H10         0.1482   -8.9030    4.0784 H         1 <0>         0.1427
     27 H11         0.1153   -6.7639    5.2954 H         1 <0>         0.1647
@<TRIPOS>BOND
     1    1    2 1
     2    1   18 1
     3    1   19 1
     4    1   20 1
     5    2    7 ar
     6    2    3 ar
     7    3    4 ar
     8    3   21 1
     9    4    5 ar
    10    4   22 1
    11    5   11 1
    12    5    6 ar
    13    6    7 ar
    14    6    8 1
    15    7   23 1
    16    8    9 1
    17    8   10 1
    18   10   11 2
    19   10   12 1
    20   12   17 ar
    21   12   13 ar
    22   13   14 ar
    23   13   24 1
    24   14   15 ar
    25   14   25 1
    26   15   16 ar
    27   15   26 1
    28   16   17 ar
    29   16   27 1
@<TRIPOS>MOLECULE
ZINC28349959
   23    24     0     0     0
SMALL
USER_CHARGES
5-amino-N-thiazol-2-yl-pyridine-2-carboxamide
@<TRIPOS>ATOM
      1 C1         -2.4276    0.9397    0.0187 C.ar      1 <0>        -0.1790
      2 C2         -3.6102    1.6556    0.0287 C.ar      1 <0>        -0.0443
      3 C3         -3.5608    3.0500    0.0365 C.ar      1 <0>        -0.0020
      4 N1         -2.3951    3.6880    0.0348 N.ar      1 <0>        -0.4172
      5 C4         -1.2534    3.0394    0.0304 C.ar      1 <0>         0.0236
      6 C5         -1.2248    1.6448    0.0168 C.ar      1 <0>         0.2114
      7 N2         -0.0111    0.9658    0.0074 N.pl3     1 <0>        -0.8775
      8 C6         -4.8185    3.8258    0.0472 C.2       1 <0>         0.5809
      9 O1         -5.8886    3.2489    0.0491 O.2       1 <0>        -0.4744
     10 N3         -4.7792    5.1730    0.0548 N.am      1 <0>        -0.6216
     11 C7         -5.9612    5.9021    0.0648 C.2       1 <0>         0.3166
     12 N4         -7.2053    5.4639    0.0626 N.2       1 <0>        -0.5227
     13 C8         -8.2243    6.3006    0.0783 C.2       1 <0>         0.0599
     14 C9         -7.9673    7.6316    0.0848 C.2       1 <0>        -0.2363
     15 S1         -6.1805    7.6247    0.0759 S.3       1 <0>         0.0459
     16 H1         -2.4352   -0.1402    0.0128 H         1 <0>         0.1406
     17 H2         -4.5604    1.1421    0.0300 H         1 <0>         0.1479
     18 H3         -0.3257    3.5922    0.0331 H         1 <0>         0.1608
     19 H4          0.9340    1.5286    0.0060 H         1 <0>         0.4267
     20 H5          0.0038   -0.1341    0.0014 H         1 <0>         0.4260
     21 H6         -3.8110    5.6950    0.0531 H         1 <0>         0.4636
     22 H7         -9.2402    5.9341    0.0813 H         1 <0>         0.1722
     23 H8         -8.6531    8.4658    0.0927 H         1 <0>         0.1989
@<TRIPOS>BOND
     1    1    6 ar
     2    1    2 ar
     3    1   16 1
     4    2    3 ar
     5    2   17 1
     6    3    4 ar
     7    3    8 1
     8    4    5 ar
     9    5    6 ar
    10    5   18 1
    11    6    7 1
    12    7   19 1
    13    7   20 1
    14    8    9 2
    15    8   10 am
    16   10   11 1
    17   10   21 1
    18   11   15 1
    19   11   12 2
    20   12   13 1
    21   13   14 2
    22   13   22 1
    23   14   15 1
    24   14   23 1
@<TRIPOS>MOLECULE
ZINC28354101
   23    24     0     0     0
SMALL
USER_CHARGES
6-(thiazol-2-ylcarbamoyl)pyridine-2-carboxylic acid
@<TRIPOS>ATOM
      1 C1         -2.9774    7.0686    0.0559 C.ar      1 <0>        -0.0972
      2 C2         -1.8816    6.2203    0.0510 C.ar      1 <0>        -0.1145
      3 C3         -2.0879    4.8393    0.0388 C.ar      1 <0>         0.0552
      4 N1         -3.3134    4.3392    0.0423 N.ar      1 <0>        -0.4150
      5 C4         -4.3811    5.1217    0.0519 C.ar      1 <0>         0.1029
      6 C5         -4.2460    6.5117    0.0592 C.ar      1 <0>        -0.1091
      7 C6         -5.7332    4.5167    0.0554 C.2       1 <0>         0.5020
      8 O1         -6.7168    5.2285    0.0642 O.co2     1 <0>        -0.6205
      9 O2         -5.8715    3.1771    0.0488 O.co2     1 <0>        -0.7229
     10 C7         -0.9226    3.9242    0.0280 C.2       1 <0>         0.5832
     11 O3          0.2052    4.3765    0.0248 O.2       1 <0>        -0.4769
     12 N2         -1.1136    2.5900    0.0217 N.am      1 <0>        -0.6199
     13 C8         -0.0215    1.7323    0.0116 C.2       1 <0>         0.3282
     14 N3          1.2641    2.0274    0.0009 N.2       1 <0>        -0.5296
     15 C9          2.1821    1.0812   -0.0130 C.2       1 <0>         0.0624
     16 C10         1.7767   -0.2124   -0.0160 C.2       1 <0>        -0.2507
     17 S1          0.0021   -0.0041    0.0020 S.3       1 <0>         0.0501
     18 H1         -2.8453    8.1405    0.0617 H         1 <0>         0.1407
     19 H2         -0.8794    6.6228    0.0526 H         1 <0>         0.1428
     20 H3         -5.1206    7.1454    0.0671 H         1 <0>         0.1487
     21 H4         -2.1345    2.1805    0.0246 H         1 <0>         0.4762
     22 H5          3.2328    1.3309   -0.0220 H         1 <0>         0.1685
     23 H6          2.3640   -1.1186   -0.0268 H         1 <0>         0.1954
@<TRIPOS>BOND
     1    1    6 ar
     2    1    2 ar
     3    1   18 1
     4    2    3 ar
     5    2   19 1
     6    3    4 ar
     7    3   10 1
     8    4    5 ar
     9    5    6 ar
    10    5    7 1
    11    6   20 1
    12    7    8 2
    13    7    9 1
    14   10   11 2
    15   10   12 am
    16   12   13 1
    17   12   21 1
    18   13   17 1
    19   13   14 2
    20   14   15 1
    21   15   16 2
    22   15   22 1
    23   16   17 1
    24   16   23 1
@<TRIPOS>MOLECULE
ZINC04657315
   27    28     0     0     0
SMALL
USER_CHARGES
5-(2-methoxy-5-nitro-phenyl)furan-2-carboxylic acid
@<TRIPOS>ATOM
      1 C1         -0.4969   -3.2062   -2.7563 C.3       1 <0>         0.0187
      2 O1         -0.3134   -2.1271   -1.8376 O.3       1 <0>        -0.2815
      3 C2         -1.2959   -1.9223   -0.9231 C.ar      1 <0>         0.2016
      4 C3         -2.4137   -2.7411   -0.9075 C.ar      1 <0>        -0.2105
      5 C4         -3.4124   -2.5324    0.0243 C.ar      1 <0>        -0.0105
      6 C5         -3.3057   -1.5055    0.9472 C.ar      1 <0>        -0.0861
      7 C6         -2.1976   -0.6851    0.9493 C.ar      1 <0>         0.0036
      8 C7         -1.1836   -0.8822    0.0094 C.ar      1 <0>        -0.0287
      9 C8          0.0021   -0.0041    0.0020 C.2       1 <0>        -0.0187
     10 C9         -0.0166    1.3724    0.0096 C.2       1 <0>        -0.1787
     11 C10         1.3143    1.7983   -0.0008 C.2       1 <0>        -0.1927
     12 C11         2.0969    0.6630   -0.0144 C.2       1 <0>        -0.0016
     13 O2          1.2818   -0.4133   -0.0124 O.3       1 <0>        -0.1274
     14 C12         3.5587    0.6304   -0.0278 C.2       1 <0>         0.5245
     15 O3          4.1904    1.6701   -0.0279 O.co2     1 <0>        -0.6021
     16 N1         -4.3825   -1.2922    1.9402 N.pl3     1 <0>         0.0389
     17 O4         -5.3598   -2.0192    1.9444 O.2       1 <0>        -0.1700
     18 O5         -4.2913   -0.3898    2.7531 O.3       1 <0>        -0.1635
     19 H1         -1.4057   -3.0402   -3.3348 H         1 <0>         0.0619
     20 H2          0.3582   -3.2591   -3.4301 H         1 <0>         0.1114
     21 H3         -0.5833   -4.1423   -2.2046 H         1 <0>         0.0637
     22 H4         -2.5041   -3.5438   -1.6243 H         1 <0>         0.1558
     23 H5         -4.2815   -3.1736    0.0326 H         1 <0>         0.1573
     24 H6         -2.1160    0.1116    1.6739 H         1 <0>         0.1651
     25 H7         -0.8932    2.0032    0.0173 H         1 <0>         0.1477
     26 H8          1.6630    2.8205    0.0010 H         1 <0>         0.1545
     27 O6          4.2071   -0.5531   -0.0401 O.co2     1 <0>        -0.7327
@<TRIPOS>BOND
     1    1    2 1
     2    1   19 1
     3    1   20 1
     4    1   21 1
     5    2    3 1
     6    3    8 ar
     7    3    4 ar
     8    4    5 ar
     9    4   22 1
    10    5    6 ar
    11    5   23 1
    12    6    7 ar
    13    6   16 1
    14    7    8 ar
    15    7   24 1
    16    8    9 1
    17    9   13 1
    18    9   10 2
    19   10   11 1
    20   10   25 1
    21   11   12 2
    22   11   26 1
    23   12   13 1
    24   12   14 1
    25   14   15 2
    26   14   27 1
    27   16   17 2
    28   16   18 1
@<TRIPOS>MOLECULE
ZINC13679482
   23    25     0     0     0
SMALL
USER_CHARGES

@<TRIPOS>ATOM
      1 C1         -0.0168    1.3890    0.0097 C.ar      1 <0>        -0.1875
      2 C2          1.1492    2.1000    0.0024 C.ar      1 <0>        -0.0124
      3 C3          2.3764    1.4299   -0.0129 C.ar      1 <0>        -0.0028
      4 C4          2.3988    0.0239   -0.0206 C.ar      1 <0>         0.1086
      5 C5          1.2080   -0.6867   -0.0131 C.ar      1 <0>        -0.2125
      6 C6          0.0021   -0.0041    0.0020 C.ar      1 <0>         0.2410
      7 N1         -1.2012   -0.7166    0.0101 N.pl3     1 <0>        -0.8733
      8 N2          3.7322   -0.3413   -0.0353 N.pl3     1 <0>        -0.5865
      9 H1          4.0811   -1.2463   -0.0434 H         1 <0>         0.4274
     10 C7          4.4688    0.8147   -0.0361 C.2       1 <0>         0.3351
     11 N3          3.6663    1.8515   -0.0229 N.2       1 <0>        -0.4625
     12 C8          5.9439    0.8821   -0.0494 C.2       1 <0>         0.1117
     13 C9          6.6138    2.0802   -0.0441 C.2       1 <0>        -0.1668
     14 S1          8.3060    1.5111   -0.0656 S.3       1 <0>         0.1384
     15 C10         7.9987   -0.1430   -0.0787 C.2       1 <0>         0.0350
     16 N4          6.6945   -0.2126   -0.0614 N.2       1 <0>        -0.5141
     17 H2         -0.9620    1.9113    0.0260 H         1 <0>         0.1310
     18 H3          1.1235    3.1796    0.0080 H         1 <0>         0.1337
     19 H4          1.2203   -1.7667   -0.0193 H         1 <0>         0.1216
     20 H5         -2.0465   -0.2409    0.0210 H         1 <0>         0.4014
     21 H6         -1.1905   -1.6865    0.0048 H         1 <0>         0.3993
     22 H7          6.2250    3.0877   -0.0307 H         1 <0>         0.2099
     23 H8          8.7110   -0.9548   -0.0933 H         1 <0>         0.2245
@<TRIPOS>BOND
     1    1    6 ar
     2    1    2 ar
     3    1   17 1
     4    2    3 ar
     5    2   18 1
     6    3   11 1
     7    3    4 ar
     8    4    5 ar
     9    4    8 1
    10    5    6 ar
    11    5   19 1
    12    6    7 1
    13    7   20 1
    14    7   21 1
    15    8    9 1
    16    8   10 1
    17   10   11 2
    18   10   12 1
    19   12   16 1
    20   12   13 2
    21   13   14 1
    22   13   22 1
    23   14   15 1
    24   15   16 2
    25   15   23 1
@<TRIPOS>MOLECULE
ZINC00156746
   21    22     0     0     0
SMALL
USER_CHARGES
5-(2,5-dichlorophenyl)furan-2-carboxylic acid
@<TRIPOS>ATOM
      1 C1         -3.4162   -2.5256    0.0230 C.ar      1 <0>        -0.0993
      2 C2         -3.3113   -1.5011    0.9467 C.ar      1 <0>        -0.0974
      3 C3         -2.2003   -0.6814    0.9499 C.ar      1 <0>        -0.0174
      4 C4         -1.1859   -0.8809    0.0091 C.ar      1 <0>         0.0257
      5 C5         -1.2986   -1.9168   -0.9202 C.ar      1 <0>        -0.0792
      6 C6         -2.4122   -2.7328   -0.9079 C.ar      1 <0>        -0.0300
      7 Cl1        -2.5543   -4.0214   -2.0625 Cl        1 <0>        -0.0606
      8 C7          0.0021   -0.0041    0.0020 C.2       1 <0>        -0.0299
      9 C8         -0.0164    1.3617    0.0095 C.2       1 <0>        -0.1646
     10 C9          1.3138    1.7912   -0.0009 C.2       1 <0>        -0.1947
     11 C10         2.0978    0.6570   -0.0144 C.2       1 <0>         0.0000
     12 O1          1.2802   -0.4174   -0.0124 O.3       1 <0>        -0.1358
     13 C11         3.5604    0.6236   -0.0286 C.2       1 <0>         0.5248
     14 O2          4.1925    1.6630   -0.0286 O.co2     1 <0>        -0.6020
     15 Cl2        -2.0673    0.5991    2.1145 Cl        1 <0>        -0.0466
     16 H1         -4.2851   -3.1669    0.0281 H         1 <0>         0.1440
     17 H2         -4.0980   -1.3451    1.6699 H         1 <0>         0.1470
     18 H3         -0.5166   -2.0791   -1.6472 H         1 <0>         0.1488
     19 H4         -0.8939    1.9914    0.0173 H         1 <0>         0.1458
     20 H5          1.6605    2.8140    0.0008 H         1 <0>         0.1536
     21 O3          4.2082   -0.5600   -0.0416 O.co2     1 <0>        -0.7322
@<TRIPOS>BOND
     1    1    6 ar
     2    1    2 ar
     3    1   16 1
     4    2    3 ar
     5    2   17 1
     6    3    4 ar
     7    3   15 1
     8    4    5 ar
     9    4    8 1
    10    5    6 ar
    11    5   18 1
    12    6    7 1
    13    8   12 1
    14    8    9 2
    15    9   10 1
    16    9   19 1
    17   10   11 2
    18   10   20 1
    19   11   12 1
    20   11   13 1
    21   13   14 2
    22   13   21 1
@<TRIPOS>MOLECULE
ZINC13679483
   21    23     0     0     0
SMALL
USER_CHARGES
5-fluoro-2-thiazol-4-yl-1H-benzimidazole
@<TRIPOS>ATOM
      1 C1          1.1597    3.1728    0.0071 C.ar      1 <0>        -0.1308
      2 C2         -0.0347    3.8626    0.0217 C.ar      1 <0>        -0.0779
      3 C3         -1.2345    3.1669    0.0299 C.ar      1 <0>         0.0426
      4 C4         -1.2314    1.7610    0.0174 C.ar      1 <0>         0.0778
      5 C5         -0.0126    1.0758    0.0080 C.ar      1 <0>        -0.1013
      6 C6          1.1701    1.7837    0.0005 C.ar      1 <0>         0.0956
      7 F1          2.3478    1.1218   -0.0139 F         1 <0>        -0.1342
      8 N1         -2.5258    1.3569    0.0217 N.2       1 <0>        -0.4778
      9 C7         -3.3150    2.4048    0.0309 C.2       1 <0>         0.3665
     10 N2         -2.5641    3.5498    0.0439 N.pl3     1 <0>        -0.5827
     11 H1         -2.9116    4.4873    0.0604 H         1 <0>         0.4382
     12 C8         -4.7908    2.3567    0.0375 C.2       1 <0>         0.0955
     13 C9         -5.4616    1.1592    0.0347 C.2       1 <0>        -0.1397
     14 S1         -7.1544    1.7309    0.0452 S.3       1 <0>         0.0855
     15 C10        -6.8215    3.4347    0.0520 C.2       1 <0>         0.0772
     16 N3         -5.5127    3.4687    0.0517 N.2       1 <0>        -0.5069
     17 H2          2.0930    3.7163    0.0011 H         1 <0>         0.1463
     18 H3         -0.0356    4.9426    0.0271 H         1 <0>         0.1369
     19 H4          0.0021   -0.0041    0.0020 H         1 <0>         0.1453
     20 H5         -5.0738    0.1513    0.0277 H         1 <0>         0.2125
     21 H6         -7.5188    4.2594    0.0592 H         1 <0>         0.2316
@<TRIPOS>BOND
     1    1    6 ar
     2    1    2 ar
     3    1   17 1
     4    2    3 ar
     5    2   18 1
     6    3   10 1
     7    3    4 ar
     8    4    5 ar
     9    4    8 1
    10    5    6 ar
    11    5   19 1
    12    6    7 1
    13    8    9 2
    14    9   10 1
    15    9   12 1
    16   10   11 1
    17   12   16 1
    18   12   13 2
    19   13   14 1
    20   13   20 1
    21   14   15 1
    22   15   16 2
    23   15   21 1
@<TRIPOS>MOLECULE
ZINC13679487
   21    23     0     0     0
SMALL
USER_CHARGES
5-chloro-2-thiazol-4-yl-1H-benzimidazole
@<TRIPOS>ATOM
      1 C1          1.1598    3.1713    0.0071 C.ar      1 <0>        -0.0903
      2 C2         -0.0342    3.8620    0.0217 C.ar      1 <0>        -0.0956
      3 C3         -1.2344    3.1668    0.0299 C.ar      1 <0>         0.0563
      4 C4         -1.2314    1.7609    0.0174 C.ar      1 <0>         0.0619
      5 C5         -0.0126    1.0758    0.0080 C.ar      1 <0>        -0.0524
      6 C6          1.1694    1.7831    0.0005 C.ar      1 <0>        -0.0415
      7 Cl1         2.6825    0.9322   -0.0179 Cl        1 <0>        -0.0602
      8 N1         -2.5259    1.3569    0.0217 N.2       1 <0>        -0.4748
      9 C7         -3.3147    2.4050    0.0309 C.2       1 <0>         0.3638
     10 N2         -2.5634    3.5499    0.0439 N.pl3     1 <0>        -0.5835
     11 H1         -2.9107    4.4875    0.0604 H         1 <0>         0.4382
     12 C8         -4.7905    2.3574    0.0372 C.2       1 <0>         0.0961
     13 C9         -5.4617    1.1602    0.0341 C.2       1 <0>        -0.1402
     14 S1         -7.1544    1.7324    0.0444 S.3       1 <0>         0.0853
     15 C10        -6.8209    3.4361    0.0514 C.2       1 <0>         0.0772
     16 N3         -5.5120    3.4696    0.0515 N.2       1 <0>        -0.5071
     17 H2          2.0934    3.7142    0.0011 H         1 <0>         0.1439
     18 H3         -0.0344    4.9420    0.0271 H         1 <0>         0.1358
     19 H4          0.0021   -0.0041    0.0020 H         1 <0>         0.1434
     20 H5         -5.0743    0.1521    0.0268 H         1 <0>         0.2124
     21 H6         -7.5180    4.2610    0.0586 H         1 <0>         0.2315
@<TRIPOS>BOND
     1    1    6 ar
     2    1    2 ar
     3    1   17 1
     4    2    3 ar
     5    2   18 1
     6    3   10 1
     7    3    4 ar
     8    4    5 ar
     9    4    8 1
    10    5    6 ar
    11    5   19 1
    12    6    7 1
    13    8    9 2
    14    9   10 1
    15    9   12 1
    16   10   11 1
    17   12   16 1
    18   12   13 2
    19   13   14 1
    20   13   20 1
    21   14   15 1
    22   15   16 2
    23   15   21 1
@<TRIPOS>MOLECULE
ZINC08727138
   23    24     0     0     0
SMALL
USER_CHARGES
5-(2-formylphenyl)furan-2-carboxylic acid
@<TRIPOS>ATOM
      1 C1         -1.4663    8.7084    0.0671 C.ar      1 <0>        -0.1346
      2 C2         -0.4327    8.5289    0.9730 C.ar      1 <0>        -0.0865
      3 C3          0.3137    7.3684    0.9636 C.ar      1 <0>        -0.1120
      4 C4          0.0309    6.3644    0.0377 C.ar      1 <0>         0.0528
      5 C5         -1.0180    6.5485   -0.8889 C.ar      1 <0>        -0.1741
      6 C6         -1.7646    7.7295   -0.8572 C.ar      1 <0>        -0.0596
      7 C7         -1.3263    5.5044   -1.8746 C.2       1 <0>         0.3852
      8 O1         -2.2286    5.6674   -2.6687 O.2       1 <0>        -0.4628
      9 C8          0.8255    5.1227    0.0228 C.2       1 <0>        -0.0364
     10 C9          2.2001    5.0473    0.0092 C.2       1 <0>        -0.1744
     11 C10         2.5332    3.6892    0.0032 C.2       1 <0>        -0.1936
     12 C11         1.3472    2.9874    0.0052 C.2       1 <0>        -0.0029
     13 O2          0.3303    3.8732    0.0202 O.3       1 <0>        -0.1381
     14 C12         1.2138    1.5283   -0.0013 C.2       1 <0>         0.5238
     15 O3          2.2073    0.8269   -0.0146 O.co2     1 <0>        -0.6013
     16 H1         -2.0426    9.6216    0.0855 H         1 <0>         0.1291
     17 H2         -0.2097    9.3036    1.6917 H         1 <0>         0.1310
     18 H3          1.1169    7.2373    1.6737 H         1 <0>         0.1349
     19 H4         -2.5718    7.8774   -1.5594 H         1 <0>         0.1357
     20 H5         -0.7496    4.5914   -1.8925 H         1 <0>         0.1116
     21 H6          2.8897    5.8785    0.0075 H         1 <0>         0.1484
     22 H7          3.5288    3.2707   -0.0040 H         1 <0>         0.1544
     23 O4         -0.0110    0.9628    0.0073 O.co2     1 <0>        -0.7306
@<TRIPOS>BOND
     1    1    6 ar
     2    1    2 ar
     3    1   16 1
     4    2    3 ar
     5    2   17 1
     6    3    4 ar
     7    3   18 1
     8    4    5 ar
     9    4    9 1
    10    5    6 ar
    11    5    7 1
    12    6   19 1
    13    7    8 2
    14    7   20 1
    15    9   13 1
    16    9   10 2
    17   10   11 1
    18   10   21 1
    19   11   12 2
    20   11   22 1
    21   12   13 1
    22   12   14 1
    23   14   15 2
    24   14   23 1
@<TRIPOS>MOLECULE
ZINC12525556
   23    25     0     0     0
SMALL
USER_CHARGES

@<TRIPOS>ATOM
      1 C1         -0.0167    1.3830    0.0096 C.ar      1 <0>        -0.0733
      2 C2          1.1593    2.0982    0.0023 C.ar      1 <0>        -0.0554
      3 C3          2.3831    1.4221   -0.0131 C.ar      1 <0>         0.0997
      4 C4          2.3960    0.0161   -0.0208 C.ar      1 <0>         0.0424
      5 C5          1.2005   -0.6871   -0.0118 C.ar      1 <0>        -0.0287
      6 C6          0.0021   -0.0041    0.0020 C.ar      1 <0>        -0.0340
      7 N1         -1.2727   -0.7565    0.0102 N.pl3     1 <0>         0.0368
      8 O1         -2.3254   -0.1621    0.0234 O.2       1 <0>        -0.1488
      9 O2         -1.2612   -1.9654    0.0036 O.3       1 <0>        -0.1619
     10 N2          3.7272   -0.3575   -0.0363 N.pl3     1 <0>        -0.5735
     11 C7          4.4706    0.7926   -0.0376 C.2       1 <0>         0.3934
     12 N3          3.6746    1.8351   -0.0239 N.2       1 <0>        -0.4768
     13 C8          5.9460    0.8504   -0.0518 C.2       1 <0>         0.0920
     14 C9          6.6238    2.0442   -0.0469 C.2       1 <0>        -0.1547
     15 S1          8.3122    1.4640   -0.0688 S.3       1 <0>         0.1619
     16 C10         7.9941   -0.1881   -0.0815 C.2       1 <0>         0.0385
     17 N4          6.6896   -0.2492   -0.0643 N.2       1 <0>        -0.5132
     18 H1         -0.9616    1.9059    0.0260 H         1 <0>         0.1626
     19 H2          1.1369    3.1780    0.0079 H         1 <0>         0.1578
     20 H3          1.2078   -1.7671   -0.0180 H         1 <0>         0.1565
     21 H4          6.2416    3.0543   -0.0341 H         1 <0>         0.2136
     22 H5          8.7010   -1.0044   -0.0961 H         1 <0>         0.2282
     23 H6          4.0704   -1.2648   -0.0443 H         1 <0>         0.4373
@<TRIPOS>BOND
     1    1    6 ar
     2    1    2 ar
     3    1   18 1
     4    2    3 ar
     5    2   19 1
     6    3   12 1
     7    3    4 ar
     8    4    5 ar
     9    4   10 1
    10    5    6 ar
    11    5   20 1
    12    6    7 1
    13    7    8 2
    14    7    9 1
    15   10   11 1
    16   10   23 1
    17   11   12 2
    18   11   13 1
    19   13   17 1
    20   13   14 2
    21   14   15 1
    22   14   21 1
    23   15   16 1
    24   16   17 2
    25   16   22 1
@<TRIPOS>MOLECULE
ZINC28530394
   22    23     0     0     0
SMALL
USER_CHARGES
5-(2-hydroxyphenyl)furan-2-carboxylic acid
@<TRIPOS>ATOM
      1 C1         -0.4297    8.5278    0.9713 C.ar      1 <0>        -0.1688
      2 C2         -1.4613    8.7007    0.0638 C.ar      1 <0>        -0.0744
      3 C3         -1.7533    7.7140   -0.8585 C.ar      1 <0>        -0.1678
      4 C4         -1.0096    6.5450   -0.8842 C.ar      1 <0>         0.1836
      5 C5          0.0315    6.3635    0.0362 C.ar      1 <0>        -0.1018
      6 C6          0.3165    7.3685    0.9633 C.ar      1 <0>        -0.0554
      7 C7          0.8259    5.1203    0.0220 C.2       1 <0>        -0.0216
      8 C8          2.2003    5.0444    0.0078 C.2       1 <0>        -0.1832
      9 C9          2.5337    3.6873    0.0032 C.2       1 <0>        -0.1894
     10 C10         1.3473    2.9846    0.0052 C.2       1 <0>        -0.0116
     11 O1          0.3297    3.8717    0.0202 O.3       1 <0>        -0.1465
     12 C11         1.2142    1.5284   -0.0013 C.2       1 <0>         0.5241
     13 O2          2.2080    0.8268   -0.0146 O.co2     1 <0>        -0.6026
     14 O3         -0.0110    0.9628    0.0073 O.co2     1 <0>        -0.7328
     15 O4         -1.2920    5.5772   -1.7937 O.3       1 <0>        -0.5057
     16 H1         -0.2085    9.3047    1.6883 H         1 <0>         0.1254
     17 H2         -2.0411    9.6117    0.0771 H         1 <0>         0.1277
     18 H3         -2.5595    7.8559   -1.5629 H         1 <0>         0.1304
     19 H4          1.1199    7.2375    1.6730 H         1 <0>         0.1277
     20 H5          2.8899    5.8756    0.0058 H         1 <0>         0.1462
     21 H6          3.5295    3.2692   -0.0031 H         1 <0>         0.1532
     22 H7         -0.7002    4.6501   -1.8121 H         1 <0>         0.4430
@<TRIPOS>BOND
     1    1    6 ar
     2    1    2 ar
     3    1   16 1
     4    2    3 ar
     5    2   17 1
     6    3    4 ar
     7    3   18 1
     8    4    5 ar
     9    4   15 1
    10    5    6 ar
    11    5    7 1
    12    6   19 1
    13    7   11 1
    14    7    8 2
    15    8    9 1
    16    8   20 1
    17    9   10 2
    18    9   21 1
    19   10   11 1
    20   10   12 1
    21   12   13 2
    22   12   14 1
    23   15   22 1
@<TRIPOS>MOLECULE
ZINC13233958
   23    25     0     0     0
SMALL
USER_CHARGES
2-(2-pyridyl)-1H-imidazo[4,5-b]pyridine
@<TRIPOS>ATOM
      1 C1          1.0768   -4.1797   -0.0298 C.ar      1 <0>        -0.0734
      2 C2          2.4349   -4.4627   -0.0438 C.ar      1 <0>        -0.1533
      3 C3          3.3456   -3.4207   -0.0468 C.ar      1 <0>         0.1065
      4 N1          2.9401   -2.1682   -0.0421 N.ar      1 <0>        -0.4775
      5 C4          1.6502   -1.8543   -0.0232 C.ar      1 <0>         0.1742
      6 C5          0.6781   -2.8539   -0.0193 C.ar      1 <0>        -0.1132
      7 C6          1.2409   -0.4321   -0.0121 C.2       1 <0>         0.3556
      8 N2          2.0981    0.6333   -0.0145 N.pl3     1 <0>        -0.5744
      9 H1          3.0972    0.5927   -0.0242 H         1 <0>         0.4401
     10 C7          1.3237    1.7746   -0.0010 C.ar      1 <0>        -0.0016
     11 C8          1.6039    3.1354    0.0039 C.ar      1 <0>        -0.0595
     12 C9          0.5414    4.0223    0.0192 C.ar      1 <0>        -0.1579
     13 C10        -0.7559    3.5327    0.0290 C.ar      1 <0>         0.1246
     14 N3         -1.0016    2.2411    0.0285 N.ar      1 <0>        -0.4435
     15 C11        -0.0162    1.3441    0.0094 C.ar      1 <0>         0.2507
     16 N4          0.0021   -0.0041    0.0020 N.2       1 <0>        -0.4641
     17 H2          0.3469   -4.9757   -0.0268 H         1 <0>         0.1467
     18 H3          2.7783   -5.4866   -0.0518 H         1 <0>         0.1441
     19 H4          4.4035   -3.6379   -0.0577 H         1 <0>         0.1662
     20 H5         -0.3710   -2.5975   -0.0079 H         1 <0>         0.1539
     21 H6          2.6234    3.4916   -0.0042 H         1 <0>         0.1382
     22 H7          0.7213    5.0872    0.0239 H         1 <0>         0.1484
     23 H8         -1.5826    4.2276    0.0406 H         1 <0>         0.1693
@<TRIPOS>BOND
     1    1    6 ar
     2    1    2 ar
     3    1   17 1
     4    2    3 ar
     5    2   18 1
     6    3    4 ar
     7    3   19 1
     8    4    5 ar
     9    5    6 ar
    10    5    7 1
    11    6   20 1
    12    7   16 2
    13    7    8 1
    14    8    9 1
    15    8   10 1
    16   10   15 ar
    17   10   11 ar
    18   11   12 ar
    19   11   21 1
    20   12   13 ar
    21   12   22 1
    22   13   14 ar
    23   13   23 1
    24   14   15 ar
    25   15   16 1
@<TRIPOS>MOLECULE
ZINC13679499
   22    24     0     0     0
SMALL
USER_CHARGES
8-(2-pyridyl)-7H-purine
@<TRIPOS>ATOM
      1 C1          4.4644    7.6070    0.0003 C.ar      1 <0>        -0.0736
      2 C2          3.7513    8.7969    0.0140 C.ar      1 <0>        -0.1486
      3 C3          2.3678    8.7593    0.0275 C.ar      1 <0>         0.1073
      4 N1          1.7226    7.6119    0.0270 N.ar      1 <0>        -0.4747
      5 C4          2.3667    6.4512    0.0141 C.ar      1 <0>         0.1671
      6 C5          3.7604    6.4147    0.0059 C.ar      1 <0>        -0.1089
      7 C6          1.5992    5.1856    0.0147 C.2       1 <0>         0.3773
      8 N2          0.2358    5.0933    0.0272 N.pl3     1 <0>        -0.5598
      9 H1         -0.4117    5.8553    0.0375 H         1 <0>         0.4450
     10 C7         -0.0779    3.7514    0.0230 C.ar      1 <0>        -0.0671
     11 C8         -1.2546    3.0175    0.0298 C.ar      1 <0>         0.1949
     12 N3         -1.1791    1.6957    0.0170 N.ar      1 <0>        -0.5056
     13 C9         -0.0126    1.0758    0.0080 C.ar      1 <0>         0.2996
     14 N4          1.1312    1.7240    0.0005 N.ar      1 <0>        -0.4778
     15 C10         1.1511    3.0590    0.0075 C.ar      1 <0>         0.2938
     16 N5          2.1258    3.9833    0.0031 N.2       1 <0>        -0.4672
     17 H2          5.5443    7.6106   -0.0101 H         1 <0>         0.1481
     18 H3          4.2708    9.7437    0.0138 H         1 <0>         0.1456
     19 H4          1.8099    9.6840    0.0382 H         1 <0>         0.1680
     20 H5          4.2835    5.4698   -0.0004 H         1 <0>         0.1549
     21 H6         -2.2135    3.5143    0.0413 H         1 <0>         0.1732
     22 H7          0.0021   -0.0041    0.0020 H         1 <0>         0.2084
@<TRIPOS>BOND
     1    1    6 ar
     2    1    2 ar
     3    1   17 1
     4    2    3 ar
     5    2   18 1
     6    3    4 ar
     7    3   19 1
     8    4    5 ar
     9    5    6 ar
    10    5    7 1
    11    6   20 1
    12    7   16 2
    13    7    8 1
    14    8    9 1
    15    8   10 1
    16   10   15 ar
    17   10   11 ar
    18   11   12 ar
    19   11   21 1
    20   12   13 ar
    21   13   14 ar
    22   13   22 1
    23   14   15 ar
    24   15   16 1
@<TRIPOS>MOLECULE
ZINC13679499
   23    25     0     0     0
SMALL
USER_CHARGES
8-(2-pyridyl)-7H-purine
@<TRIPOS>ATOM
      1 C1          4.4644    7.6070    0.0003 C.ar      1 <0>        -0.0611
      2 C2          3.7513    8.7969    0.0140 C.ar      1 <0>        -0.1054
      3 C3          2.3678    8.7593    0.0275 C.ar      1 <0>         0.1269
      4 N1          1.7226    7.6119    0.0270 N.ar      1 <0>        -0.4513
      5 C4          2.3667    6.4512    0.0141 C.ar      1 <0>         0.1019
      6 C5          3.7604    6.4147    0.0059 C.ar      1 <0>        -0.1088
      7 C6          1.5992    5.1856    0.0147 C.cat     1 <0>         0.4968
      8 N2          0.2358    5.0933    0.0272 N.pl3     1 <0>        -0.4927
      9 H1         -0.4117    5.8553    0.0375 H         1 <0>         0.4833
     10 C7         -0.0779    3.7514    0.0230 C.ar      1 <0>        -0.0391
     11 C8         -1.2546    3.0175    0.0298 C.ar      1 <0>         0.2383
     12 N3         -1.1791    1.6957    0.0170 N.ar      1 <0>        -0.4741
     13 C9         -0.0126    1.0758    0.0080 C.ar      1 <0>         0.3609
     14 N4          1.1312    1.7240    0.0005 N.ar      1 <0>        -0.4844
     15 C10         1.1511    3.0590    0.0075 C.ar      1 <0>         0.3135
     16 H2          5.5443    7.6106   -0.0101 H         1 <0>         0.1646
     17 H3          4.2708    9.7437    0.0138 H         1 <0>         0.1643
     18 H4          1.8099    9.6840    0.0382 H         1 <0>         0.1866
     19 H5          4.2835    5.4698   -0.0004 H         1 <0>         0.1484
     20 H6         -2.2135    3.5143    0.0413 H         1 <0>         0.2039
     21 H7          0.0021   -0.0041    0.0020 H         1 <0>         0.2353
     22 N5          2.1280    3.9829    0.0031 N.pl3     1 <0>        -0.4924
     23 H8          3.1343    3.7794   -0.0077 H         1 <0>         0.4846
@<TRIPOS>BOND
     1    1    6 ar
     2    1    2 ar
     3    1   16 1
     4    2    3 ar
     5    2   17 1
     6    3    4 ar
     7    3   18 1
     8    4    5 ar
     9    5    6 ar
    10    5    7 1
    11    6   19 1
    12    7    8 1
    13    7   22 2
    14    8    9 1
    15    8   10 1
    16   10   15 ar
    17   10   11 ar
    18   11   12 ar
    19   11   20 1
    20   12   13 ar
    21   13   14 ar
    22   13   21 1
    23   14   15 ar
    24   15   22 1
    25   22   23 1
@<TRIPOS>MOLECULE
ZINC13679477
   30    32     0     0     0
SMALL
USER_CHARGES
5,6-dimethyl-2-(2-pyridyl)-1H-benzimidazole
@<TRIPOS>ATOM
      1 C1          1.2009   -2.2030   -0.0227 C.3       1 <0>        -0.1172
      2 C2          1.2049   -0.6960   -0.0136 C.ar      1 <0>        -0.0601
      3 C3          2.4037   -0.0146   -0.0214 C.ar      1 <0>        -0.1128
      4 C4          2.4062    1.3734   -0.0136 C.ar      1 <0>         0.0566
      5 C5          1.1867    2.0751    0.0019 C.ar      1 <0>         0.0469
      6 C6         -0.0164    1.3617    0.0095 C.ar      1 <0>        -0.0589
      7 C7          0.0021   -0.0041    0.0020 C.ar      1 <0>        -0.0924
      8 C8         -1.2972   -0.7674    0.0103 C.3       1 <0>        -0.1149
      9 N1          1.4858    3.3960    0.0057 N.2       1 <0>        -0.4704
     10 C9          2.7861    3.5531   -0.0061 C.2       1 <0>         0.3254
     11 N2          3.4008    2.3301   -0.0178 N.pl3     1 <0>        -0.5813
     12 H1          4.3864    2.1614   -0.0276 H         1 <0>         0.4362
     13 C10         3.4858    4.8573   -0.0065 C.ar      1 <0>         0.1815
     14 C11         2.7459    6.0391    0.0011 C.ar      1 <0>        -0.1194
     15 C12         3.4148    7.2511    0.0054 C.ar      1 <0>        -0.0734
     16 C13         4.8022    7.2420   -0.0086 C.ar      1 <0>        -0.1587
     17 C14         5.4730    6.0318   -0.0210 C.ar      1 <0>         0.1063
     18 N3          4.8129    4.8926   -0.0197 N.ar      1 <0>        -0.4804
     19 H2          1.1901   -2.5601   -1.0525 H         1 <0>         0.0738
     20 H3          2.0948   -2.5717    0.4804 H         1 <0>         0.0667
     21 H4          0.3149   -2.5671    0.4974 H         1 <0>         0.0750
     22 H5          3.3366   -0.5585   -0.0340 H         1 <0>         0.1254
     23 H6         -0.9585    1.8898    0.0169 H         1 <0>         0.1316
     24 H7         -1.6203   -0.9460   -1.0153 H         1 <0>         0.0716
     25 H8         -1.1548   -1.7216    0.5177 H         1 <0>         0.0721
     26 H9         -2.0564   -0.1869    0.5346 H         1 <0>         0.0673
     27 H10         1.6663    6.0094    0.0077 H         1 <0>         0.1514
     28 H11         2.8690    8.1830    0.0153 H         1 <0>         0.1448
     29 H12         5.3534    8.1707   -0.0094 H         1 <0>         0.1425
     30 H13         6.5529    6.0216   -0.0315 H         1 <0>         0.1646
@<TRIPOS>BOND
     1    1    2 1
     2    1   19 1
     3    1   20 1
     4    1   21 1
     5    2    7 ar
     6    2    3 ar
     7    3    4 ar
     8    3   22 1
     9    4   11 1
    10    4    5 ar
    11    5    6 ar
    12    5    9 1
    13    6    7 ar
    14    6   23 1
    15    7    8 1
    16    8   24 1
    17    8   25 1
    18    8   26 1
    19    9   10 2
    20   10   11 1
    21   10   13 1
    22   11   12 1
    23   13   18 ar
    24   13   14 ar
    25   14   15 ar
    26   14   27 1
    27   15   16 ar
    28   15   28 1
    29   16   17 ar
    30   16   29 1
    31   17   18 ar
    32   17   30 1
@<TRIPOS>MOLECULE
ZINC00265874
   25    26     0     0     0
SMALL
USER_CHARGES

@<TRIPOS>ATOM
      1 C1         -0.0173    1.4248    0.0099 C.3       1 <0>         0.0269
      2 O1          0.0021   -0.0041    0.0020 O.3       1 <0>        -0.2979
      3 C2          0.6252   -0.6177    1.0404 C.ar      1 <0>         0.1470
      4 C3          1.2016    0.1365    2.0500 C.ar      1 <0>        -0.2120
      5 C4          1.8360   -0.4891    3.1061 C.ar      1 <0>        -0.0793
      6 C5          1.9006   -1.8713    3.1649 C.ar      1 <0>        -0.1600
      7 C6          1.3325   -2.6369    2.1691 C.ar      1 <0>        -0.0589
      8 C7          0.6832   -2.0169    1.0989 C.ar      1 <0>        -0.0367
      9 C8          0.0673   -2.8300    0.0333 C.2       1 <0>        -0.0042
     10 C9          0.6763   -3.8645   -0.6431 C.2       1 <0>        -0.1974
     11 C10        -0.2547   -4.3568   -1.5593 C.2       1 <0>        -0.1900
     12 C11        -1.4019   -3.6023   -1.4083 C.2       1 <0>        -0.0308
     13 O2         -1.1832   -2.6901   -0.4366 O.3       1 <0>        -0.1319
     14 C12        -2.6017   -3.7613   -2.1420 C.2       1 <0>         0.5495
     15 O3         -2.6841   -4.6317   -3.0007 O.co2     1 <0>        -0.6665
     16 O4         -3.5582   -3.0284   -1.9185 O.co2     1 <0>        -0.6744
     17 H1          1.0053    1.8021    0.0021 H         1 <0>         0.0533
     18 H2         -0.5445    1.7859   -0.8732 H         1 <0>         0.1016
     19 H3         -0.5275    1.7763    0.9067 H         1 <0>         0.0551
     20 H4          1.1553    1.2148    2.0111 H         1 <0>         0.1299
     21 H5          2.2843    0.1031    3.8901 H         1 <0>         0.1243
     22 H6          2.3985   -2.3514    3.9943 H         1 <0>         0.1268
     23 H7          1.3855   -3.7144    2.2186 H         1 <0>         0.1342
     24 H8          1.6830   -4.2256   -0.4932 H         1 <0>         0.1420
     25 H9         -0.1064   -5.1710   -2.2532 H         1 <0>         0.1494
@<TRIPOS>BOND
     1    1    2 1
     2    1   17 1
     3    1   18 1
     4    1   19 1
     5    2    3 1
     6    3    8 ar
     7    3    4 ar
     8    4    5 ar
     9    4   20 1
    10    5    6 ar
    11    5   21 1
    12    6    7 ar
    13    6   22 1
    14    7    8 ar
    15    7   23 1
    16    8    9 1
    17    9   13 1
    18    9   10 2
    19   10   11 1
    20   10   24 1
    21   11   12 2
    22   11   25 1
    23   12   13 1
    24   12   14 1
    25   14   15 2
    26   14   16 1
@<TRIPOS>MOLECULE
ZINC00302074
   37    40     0     0     0
SMALL
USER_CHARGES
1-benzyl-2-(2-pyridyl)benzoimidazole
@<TRIPOS>ATOM
      1 C1          1.1563    3.1654    0.0076 C.ar      1 <0>        -0.1100
      2 C2          1.1750    1.7832    0.0004 C.ar      1 <0>        -0.1278
      3 C3         -0.0126    1.0758    0.0080 C.ar      1 <0>        -0.0976
      4 C4         -1.2190    1.7506    0.0173 C.ar      1 <0>        -0.1118
      5 C5         -1.2377    3.1328    0.0299 C.ar      1 <0>        -0.1012
      6 C6         -0.0501    3.8402    0.0223 C.ar      1 <0>        -0.1242
      7 C7         -2.5137    0.9795    0.0193 C.3       1 <0>         0.1488
      8 N1         -2.9267    0.7221    1.4011 N.pl3     1 <0>        -0.4617
      9 C8         -3.7260    1.5326    2.1814 C.ar      1 <0>         0.0575
     10 C9         -4.3614    2.7492    1.9722 C.ar      1 <0>        -0.1108
     11 C10        -5.1094    3.3124    2.9840 C.ar      1 <0>        -0.0965
     12 C11        -5.2319    2.6717    4.2093 C.ar      1 <0>        -0.1282
     13 C12        -4.6147    1.4746    4.4346 C.ar      1 <0>        -0.0602
     14 C13        -3.8496    0.8834    3.4232 C.ar      1 <0>         0.0473
     15 N2         -3.1374   -0.2659    3.3461 N.2       1 <0>        -0.4719
     16 C14        -2.5968   -0.3700    2.1575 C.2       1 <0>         0.3225
     17 C15        -1.7525   -1.4970    1.7022 C.ar      1 <0>         0.1866
     18 C16        -1.4820   -2.5536    2.5709 C.ar      1 <0>        -0.1184
     19 C17        -0.6949   -3.6030    2.1286 C.ar      1 <0>        -0.0712
     20 C18        -0.1948   -3.5565    0.8352 C.ar      1 <0>        -0.1575
     21 C19        -0.4985   -2.4742    0.0285 C.ar      1 <0>         0.1014
     22 N3         -1.2541   -1.4913    0.4716 N.ar      1 <0>        -0.4773
     23 H1          2.0841    3.7181    0.0014 H         1 <0>         0.1226
     24 H2          2.1175    1.2560   -0.0115 H         1 <0>         0.1218
     25 H3          0.0021   -0.0041    0.0020 H         1 <0>         0.1410
     26 H4         -2.1802    3.6600    0.0410 H         1 <0>         0.1191
     27 H5         -0.0647    4.9201    0.0276 H         1 <0>         0.1236
     28 H6         -3.2837    1.5610   -0.4877 H         1 <0>         0.0912
     29 H7         -2.3729    0.0317   -0.5003 H         1 <0>         0.1262
     30 H8         -4.2697    3.2524    1.0210 H         1 <0>         0.1213
     31 H9         -5.6040    4.2587    2.8220 H         1 <0>         0.1312
     32 H10        -5.8218    3.1245    4.9925 H         1 <0>         0.1310
     33 H11        -4.7169    0.9850    5.3918 H         1 <0>         0.1305
     34 H12        -1.8845   -2.5553    3.5731 H         1 <0>         0.1509
     35 H13        -0.4717   -4.4373    2.7772 H         1 <0>         0.1444
     36 H14         0.4254   -4.3578    0.4615 H         1 <0>         0.1422
     37 H15        -0.1106   -2.4353   -0.9787 H         1 <0>         0.1653
@<TRIPOS>BOND
     1    1    6 ar
     2    1    2 ar
     3    1   23 1
     4    2    3 ar
     5    2   24 1
     6    3    4 ar
     7    3   25 1
     8    4    5 ar
     9    4    7 1
    10    5    6 ar
    11    5   26 1
    12    6   27 1
    13    7    8 1
    14    7   28 1
    15    7   29 1
    16    8   16 1
    17    8    9 1
    18    9   14 ar
    19    9   10 ar
    20   10   11 ar
    21   10   30 1
    22   11   12 ar
    23   11   31 1
    24   12   13 ar
    25   12   32 1
    26   13   14 ar
    27   13   33 1
    28   14   15 1
    29   15   16 2
    30   16   17 1
    31   17   22 ar
    32   17   18 ar
    33   18   19 ar
    34   18   34 1
    35   19   20 ar
    36   19   35 1
    37   20   21 ar
    38   20   36 1
    39   21   22 ar
    40   21   37 1
@<TRIPOS>MOLECULE
ZINC00302074
   38    41     0     0     0
SMALL
USER_CHARGES
1-benzyl-2-(2-pyridyl)benzoimidazole
@<TRIPOS>ATOM
      1 C1          1.1563    3.1654    0.0076 C.ar      1 <0>        -0.0932
      2 C2          1.1750    1.7832    0.0004 C.ar      1 <0>        -0.1237
      3 C3         -0.0126    1.0758    0.0080 C.ar      1 <0>        -0.0949
      4 C4         -1.2190    1.7506    0.0173 C.ar      1 <0>        -0.1365
      5 C5         -1.2377    3.1328    0.0299 C.ar      1 <0>        -0.0953
      6 C6         -0.0501    3.8402    0.0223 C.ar      1 <0>        -0.1188
      7 C7         -2.5137    0.9795    0.0193 C.3       1 <0>         0.1402
      8 N1         -2.9267    0.7221    1.4011 N.pl3     1 <0>        -0.3992
      9 C8         -3.7260    1.5326    2.1814 C.ar      1 <0>         0.0817
     10 C9         -4.3614    2.7492    1.9722 C.ar      1 <0>        -0.0879
     11 C10        -5.1094    3.3124    2.9840 C.ar      1 <0>        -0.0662
     12 C11        -5.2319    2.6717    4.2093 C.ar      1 <0>        -0.0777
     13 C12        -4.6147    1.4746    4.4346 C.ar      1 <0>        -0.0789
     14 C13        -3.8496    0.8834    3.4232 C.ar      1 <0>         0.0569
     15 C14        -2.5968   -0.3700    2.1575 C.cat     1 <0>         0.4389
     16 C15        -1.7525   -1.4970    1.7022 C.ar      1 <0>         0.1215
     17 C16        -1.4820   -2.5536    2.5709 C.ar      1 <0>        -0.1187
     18 C17        -0.6949   -3.6030    2.1286 C.ar      1 <0>        -0.0581
     19 C18        -0.1948   -3.5565    0.8352 C.ar      1 <0>        -0.1163
     20 C19        -0.4985   -2.4742    0.0285 C.ar      1 <0>         0.1192
     21 N2         -1.2541   -1.4913    0.4716 N.ar      1 <0>        -0.4551
     22 H1          2.0841    3.7181    0.0014 H         1 <0>         0.1309
     23 H2          2.1175    1.2560   -0.0115 H         1 <0>         0.1288
     24 H3          0.0021   -0.0041    0.0020 H         1 <0>         0.1391
     25 H4         -2.1802    3.6600    0.0410 H         1 <0>         0.1235
     26 H5         -0.0647    4.9201    0.0276 H         1 <0>         0.1316
     27 H6         -3.2837    1.5610   -0.4877 H         1 <0>         0.1200
     28 H7         -2.3729    0.0317   -0.5003 H         1 <0>         0.1442
     29 H8         -4.2697    3.2524    1.0210 H         1 <0>         0.1499
     30 H9         -5.6040    4.2587    2.8220 H         1 <0>         0.1570
     31 H10        -5.8218    3.1245    4.9925 H         1 <0>         0.1569
     32 H11        -4.7169    0.9850    5.3918 H         1 <0>         0.1530
     33 H12        -1.8845   -2.5553    3.5731 H         1 <0>         0.1446
     34 H13        -0.4717   -4.4373    2.7772 H         1 <0>         0.1609
     35 H14         0.4254   -4.3578    0.4615 H         1 <0>         0.1607
     36 H15        -0.1106   -2.4353   -0.9787 H         1 <0>         0.1835
     37 N3         -3.1373   -0.2666    3.3469 N.pl3     1 <0>        -0.4954
     38 H16        -3.0364   -0.9520    4.1047 H         1 <0>         0.4729
@<TRIPOS>BOND
     1    1    6 ar
     2    1    2 ar
     3    1   22 1
     4    2    3 ar
     5    2   23 1
     6    3    4 ar
     7    3   24 1
     8    4    5 ar
     9    4    7 1
    10    5    6 ar
    11    5   25 1
    12    6   26 1
    13    7    8 1
    14    7   27 1
    15    7   28 1
    16    8   15 1
    17    8    9 1
    18    9   14 ar
    19    9   10 ar
    20   10   11 ar
    21   10   29 1
    22   11   12 ar
    23   11   30 1
    24   12   13 ar
    25   12   31 1
    26   13   14 ar
    27   13   32 1
    28   14   37 1
    29   15   16 1
    30   15   37 2
    31   16   21 ar
    32   16   17 ar
    33   17   18 ar
    34   17   33 1
    35   18   19 ar
    36   18   34 1
    37   19   20 ar
    38   19   35 1
    39   20   21 ar
    40   20   36 1
    41   37   38 1
@<TRIPOS>MOLECULE
ZINC00570088
   23    24     0     0     0
SMALL
USER_CHARGES
5-(2-chloro-5-nitro-phenyl)furan-2-carboxylic acid
@<TRIPOS>ATOM
      1 C1         -3.4148   -2.5262    0.0221 C.ar      1 <0>        -0.0453
      2 C2         -3.3106   -1.5022    0.9466 C.ar      1 <0>        -0.1068
      3 C3         -2.2004   -0.6815    0.9498 C.ar      1 <0>         0.0220
      4 C4         -1.1859   -0.8809    0.0091 C.ar      1 <0>         0.0195
      5 C5         -1.2987   -1.9169   -0.9202 C.ar      1 <0>        -0.0254
      6 C6         -2.4113   -2.7323   -0.9080 C.ar      1 <0>        -0.0400
      7 N1         -2.5318   -3.8312   -1.8924 N.pl3     1 <0>         0.0286
      8 O1         -1.6493   -4.0145   -2.7116 O.2       1 <0>        -0.1491
      9 O2         -3.5134   -4.5522   -1.8832 O.3       1 <0>        -0.1577
     10 C7          0.0021   -0.0041    0.0020 C.2       1 <0>        -0.0414
     11 C8         -0.0164    1.3617    0.0095 C.2       1 <0>        -0.1560
     12 C9          1.3138    1.7912   -0.0009 C.2       1 <0>        -0.1956
     13 C10         2.0978    0.6570   -0.0144 C.2       1 <0>         0.0102
     14 O3          1.2802   -0.4174   -0.0124 O.3       1 <0>        -0.1342
     15 C11         3.5604    0.6236   -0.0286 C.2       1 <0>         0.5233
     16 O4          4.1925    1.6630   -0.0286 O.co2     1 <0>        -0.5990
     17 Cl1        -2.0675    0.5984    2.1151 Cl        1 <0>        -0.0232
     18 H1         -4.2834   -3.1679    0.0266 H         1 <0>         0.1642
     19 H2         -4.0973   -1.3474    1.6703 H         1 <0>         0.1623
     20 H3         -0.5167   -2.0792   -1.6472 H         1 <0>         0.1682
     21 H4         -0.8939    1.9914    0.0173 H         1 <0>         0.1477
     22 H5          1.6605    2.8140    0.0008 H         1 <0>         0.1564
     23 O5          4.2082   -0.5600   -0.0416 O.co2     1 <0>        -0.7285
@<TRIPOS>BOND
     1    1    6 ar
     2    1    2 ar
     3    1   18 1
     4    2    3 ar
     5    2   19 1
     6    3    4 ar
     7    3   17 1
     8    4    5 ar
     9    4   10 1
    10    5    6 ar
    11    5   20 1
    12    6    7 1
    13    7    8 2
    14    7    9 1
    15   10   14 1
    16   10   11 2
    17   11   12 1
    18   11   21 1
    19   12   13 2
    20   12   22 1
    21   13   14 1
    22   13   15 1
    23   15   16 2
    24   15   23 1
@<TRIPOS>MOLECULE
ZINC15990236
   26    28     0     0     0
SMALL
USER_CHARGES

@<TRIPOS>ATOM
      1 C1         -0.0167    1.3801    0.0096 C.ar      1 <0>        -0.0736
      2 C2          1.1934    2.0590    0.0017 C.ar      1 <0>        -0.1486
      3 C3          2.3753    1.3396   -0.0134 C.ar      1 <0>         0.1079
      4 N1          2.3656    0.0231   -0.0208 N.ar      1 <0>        -0.4757
      5 C4          1.2300   -0.6646   -0.0137 C.ar      1 <0>         0.1655
      6 C5          0.0021   -0.0041    0.0020 C.ar      1 <0>        -0.1106
      7 C6          1.2676   -2.1441   -0.0225 C.2       1 <0>         0.3651
      8 N2          2.4071   -2.9025   -0.0324 N.pl3     1 <0>        -0.5680
      9 H1          3.3188   -2.5714   -0.0351 H         1 <0>         0.4384
     10 C7          2.0164   -4.2260   -0.0374 C.ar      1 <0>         0.0418
     11 C8          2.7015   -5.4336   -0.0480 C.ar      1 <0>        -0.0263
     12 C9          1.9974   -6.6188   -0.0513 C.ar      1 <0>        -0.0331
     13 C10         0.6093   -6.6130   -0.0446 C.ar      1 <0>        -0.0750
     14 C11        -0.0827   -5.4359   -0.0345 C.ar      1 <0>        -0.0534
     15 C12         0.6097   -4.2200   -0.0301 C.ar      1 <0>         0.0973
     16 N3          0.2156   -2.9244   -0.0163 N.2       1 <0>        -0.4716
     17 N4          2.7268   -7.9068   -0.0627 N.pl3     1 <0>         0.0366
     18 O1          3.9357   -7.9168   -0.0690 O.2       1 <0>        -0.1616
     19 O2          2.1136   -8.9487   -0.0656 O.3       1 <0>        -0.1485
     20 H2         -0.9522    1.9195    0.0259 H         1 <0>         0.1481
     21 H3          1.2126    3.1388    0.0070 H         1 <0>         0.1460
     22 H4          3.3187    1.8653   -0.0196 H         1 <0>         0.1680
     23 H5         -0.9212   -0.5644    0.0082 H         1 <0>         0.1540
     24 H6          3.7815   -5.4444   -0.0540 H         1 <0>         0.1575
     25 H7          0.0710   -7.5493   -0.0476 H         1 <0>         0.1622
     26 H8         -1.1627   -5.4433   -0.0301 H         1 <0>         0.1574
@<TRIPOS>BOND
     1    1    6 ar
     2    1    2 ar
     3    1   20 1
     4    2    3 ar
     5    2   21 1
     6    3    4 ar
     7    3   22 1
     8    4    5 ar
     9    5    6 ar
    10    5    7 1
    11    6   23 1
    12    7   16 2
    13    7    8 1
    14    8    9 1
    15    8   10 1
    16   10   15 ar
    17   10   11 ar
    18   11   12 ar
    19   11   24 1
    20   12   13 ar
    21   12   17 1
    22   13   14 ar
    23   13   25 1
    24   14   15 ar
    25   14   26 1
    26   15   16 1
    27   17   18 2
    28   17   19 1
@<TRIPOS>MOLECULE
ZINC00554515
   26    27     0     0     0
SMALL
USER_CHARGES
5-(2-methyl-4-nitro-phenyl)furan-2-carboxylic acid
@<TRIPOS>ATOM
      1 C1         -1.3211    5.4679   -1.8811 C.3       1 <0>        -0.1192
      2 C2         -1.0040    6.5457   -0.8767 C.ar      1 <0>        -0.0615
      3 C3         -1.7419    7.7112   -0.8571 C.ar      1 <0>        -0.0549
      4 C4         -1.4524    8.7015    0.0647 C.ar      1 <0>        -0.0454
      5 C5         -0.4224    8.5306    0.9730 C.ar      1 <0>        -0.0598
      6 C6          0.3202    7.3684    0.9678 C.ar      1 <0>        -0.0950
      7 C7          0.0369    6.3668    0.0366 C.ar      1 <0>         0.0548
      8 C8          0.8308    5.1215    0.0219 C.2       1 <0>        -0.0356
      9 C9          2.1944    5.0470    0.0079 C.2       1 <0>        -0.1697
     10 C10         2.5322    3.6903    0.0032 C.2       1 <0>        -0.1962
     11 C11         1.3472    2.9856    0.0052 C.2       1 <0>         0.0052
     12 O1          0.3313    3.8745    0.0202 O.3       1 <0>        -0.1336
     13 C12         1.2140    1.5284   -0.0013 C.2       1 <0>         0.5231
     14 O2          2.2077    0.8268   -0.0146 O.co2     1 <0>        -0.5994
     15 N1         -2.2485    9.9494    0.0797 N.pl3     1 <0>         0.0320
     16 O3         -3.1559   10.1025   -0.7182 O.2       1 <0>        -0.1641
     17 O4         -1.9961   10.8230    0.8900 O.3       1 <0>        -0.1647
     18 H1         -2.0544    4.7814   -1.4581 H         1 <0>         0.0884
     19 H2         -1.7273    5.9217   -2.7850 H         1 <0>         0.0748
     20 H3         -0.4108    4.9210   -2.1267 H         1 <0>         0.0796
     21 H4         -2.5475    7.8508   -1.5627 H         1 <0>         0.1561
     22 H5         -0.2018    9.3077    1.6899 H         1 <0>         0.1565
     23 H6          1.1213    7.2348    1.6796 H         1 <0>         0.1533
     24 H7          2.8825    5.8794    0.0061 H         1 <0>         0.1488
     25 H8          3.5290    3.2746   -0.0029 H         1 <0>         0.1557
     26 O5         -0.0110    0.9628    0.0073 O.co2     1 <0>        -0.7293
@<TRIPOS>BOND
     1    1    2 1
     2    1   18 1
     3    1   19 1
     4    1   20 1
     5    2    7 ar
     6    2    3 ar
     7    3    4 ar
     8    3   21 1
     9    4    5 ar
    10    4   15 1
    11    5    6 ar
    12    5   22 1
    13    6    7 ar
    14    6   23 1
    15    7    8 1
    16    8   12 1
    17    8    9 2
    18    9   10 1
    19    9   24 1
    20   10   11 2
    21   10   25 1
    22   11   12 1
    23   11   13 1
    24   13   14 2
    25   13   26 1
    26   15   16 2
    27   15   17 1
@<TRIPOS>MOLECULE
ZINC13679497
   19    21     0     0     0
SMALL
USER_CHARGES

@<TRIPOS>ATOM
      1 C1         -0.0164    1.3617    0.0095 C.ar      1 <0>        -0.1302
      2 C2          0.0021   -0.0041    0.0020 C.ar      1 <0>         0.0200
      3 N1         -1.1161   -0.7101    0.0094 N.ar      1 <0>        -0.5138
      4 C3         -2.3075   -0.1439    0.0242 C.ar      1 <0>         0.1399
      5 C4         -2.4237    1.2359    0.0328 C.ar      1 <0>        -0.0450
      6 C5         -1.2527    2.0207    0.0308 C.ar      1 <0>         0.0280
      7 N2         -1.6341    3.3105    0.0435 N.2       1 <0>        -0.5423
      8 C6         -2.9456    3.3851    0.0630 C.2       1 <0>         0.2403
      9 N3         -3.4806    2.1251    0.0481 N.2       1 <0>        -0.5598
     10 C7         -3.7249    4.6386    0.0821 C.2       1 <0>         0.1557
     11 C8         -5.0918    4.6385    0.1071 C.2       1 <0>        -0.2692
     12 S1         -5.4525    6.2795    0.1200 S.3       1 <0>         0.1852
     13 C9         -3.8917    6.8977    0.0937 C.2       1 <0>        -0.0301
     14 N4         -3.1365    5.8315    0.0814 N.2       1 <0>        -0.4622
     15 H1          0.9058    1.9238    0.0037 H         1 <0>         0.1073
     16 H2          0.9513   -0.5190   -0.0106 H         1 <0>         0.1327
     17 H3         -3.1954   -0.7587    0.0294 H         1 <0>         0.1339
     18 H4         -5.7685    3.7968    0.1161 H         1 <0>         0.1973
     19 H5         -3.5842    7.9330    0.0920 H         1 <0>         0.2125
@<TRIPOS>BOND
     1    1    2 ar
     2    1   15 1
     3    1    6 ar
     4    2    3 ar
     5    2   16 1
     6    3    4 ar
     7    4    5 ar
     8    4   17 1
     9    5    9 1
    10    5    6 ar
    11    6    7 1
    12    7    8 2
    13    8   10 1
    14    8    9 1
    15   10   14 1
    16   10   11 2
    17   11   12 1
    18   11   18 1
    19   12   13 1
    20   13   14 2
    21   13   19 1
@<TRIPOS>MOLECULE
ZINC13233998
   21    22     0     0     0
SMALL
USER_CHARGES

@<TRIPOS>ATOM
      1 C1         -0.0152    1.3773    0.0280 C.ar      1 <0>        -0.1025
      2 C2          1.1711    2.0913    0.0209 C.ar      1 <0>        -0.1000
      3 C3          2.3823    1.4289    0.0022 C.ar      1 <0>        -0.0985
      4 C4          2.4115    0.0415   -0.0095 C.ar      1 <0>         0.0895
      5 C5          1.2154   -0.6785   -0.0023 C.ar      1 <0>         0.0868
      6 C6          0.0031   -0.0032    0.0164 C.ar      1 <0>        -0.0972
      7 N1          1.5486   -2.0297   -0.0163 N.pl3     1 <0>        -0.5932
      8 H1          0.9215   -2.7698   -0.0156 H         1 <0>         0.4468
      9 C7          2.9061   -2.1341   -0.0316 C.2       1 <0>         0.6747
     10 N2          3.4495   -0.8855   -0.0277 N.pl3     1 <0>        -0.6239
     11 N3          3.5899   -3.2702   -0.0472 N.2       1 <0>        -0.6441
     12 C8          4.9234   -3.2472   -0.1605 C.2       1 <0>         0.5826
     13 N4          5.5161   -3.7713   -1.2516 N.pl3     1 <0>        -0.7724
     14 S1          5.8760   -2.5522    1.0806 S.2       1 <0>        -0.6747
     15 H2         -0.9587    1.9023    0.0471 H         1 <0>         0.1398
     16 H3          1.1488    3.1710    0.0296 H         1 <0>         0.1395
     17 H4          3.3054    1.9895   -0.0037 H         1 <0>         0.1366
     18 H5         -0.9243   -0.5565    0.0223 H         1 <0>         0.1372
     19 H6          4.9763   -4.1651   -1.9547 H         1 <0>         0.4016
     20 H7          6.4825   -3.7547   -1.3337 H         1 <0>         0.4254
     21 H8          4.3969   -0.6779   -0.0365 H         1 <0>         0.4459
@<TRIPOS>BOND
     1    1    6 ar
     2    1    2 ar
     3    1   15 1
     4    2    3 ar
     5    2   16 1
     6    3    4 ar
     7    3   17 1
     8    4   10 1
     9    4    5 ar
    10    5    6 ar
    11    5    7 1
    12    6   18 1
    13    7    8 1
    14    7    9 1
    15    9   10 1
    16    9   11 2
    17   10   21 1
    18   11   12 1
    19   12   13 1
    20   12   14 2
    21   13   19 1
    22   13   20 1
@<TRIPOS>MOLECULE
ZINC26479958
   27    28     0     0     0
SMALL
USER_CHARGES
5-(2-methoxycarbonylphenyl)furan-2-carboxylic acid
@<TRIPOS>ATOM
      1 C1         -2.5708    4.6082   -3.7053 C.3       1 <0>         0.0341
      2 O1         -2.3219    5.6826   -2.7608 O.3       1 <0>        -0.3621
      3 C2         -1.3198    5.5015   -1.8783 C.2       1 <0>         0.4863
      4 O2         -0.6717    4.4740   -1.8976 O.2       1 <0>        -0.4543
      5 C3         -1.0096    6.5506   -0.8891 C.ar      1 <0>        -0.1096
      6 C4         -1.7543    7.7298   -0.8590 C.ar      1 <0>        -0.0626
      7 C5         -1.4562    8.7104    0.0647 C.ar      1 <0>        -0.1352
      8 C6         -0.4231    8.5316    0.9706 C.ar      1 <0>        -0.0853
      9 C7          0.3221    7.3704    0.9617 C.ar      1 <0>        -0.1102
     10 C8          0.0375    6.3662    0.0361 C.ar      1 <0>         0.0610
     11 C9          0.8306    5.1229    0.0219 C.2       1 <0>        -0.0174
     12 C10         2.1950    5.0483    0.0079 C.2       1 <0>        -0.1858
     13 C11         2.5321    3.6914    0.0032 C.2       1 <0>        -0.2030
     14 C12         1.3472    2.9871    0.0052 C.2       1 <0>         0.0033
     15 O3          0.3316    3.8752    0.0202 O.3       1 <0>        -0.1107
     16 C13         1.2138    1.5283   -0.0013 C.2       1 <0>         0.5266
     17 O4          2.2073    0.8269   -0.0146 O.co2     1 <0>        -0.6080
     18 O5         -0.0110    0.9628    0.0073 O.co2     1 <0>        -0.7337
     19 H1         -3.4087    4.8844   -4.3623 H         1 <0>         0.1004
     20 H2         -2.8227    3.6887   -3.1566 H         1 <0>         0.0685
     21 H3         -1.6695    4.4376   -4.3124 H         1 <0>         0.0631
     22 H4         -2.5613    7.8769   -1.5615 H         1 <0>         0.1400
     23 H5         -2.0324    9.6237    0.0820 H         1 <0>         0.1316
     24 H6         -0.1993    9.3067    1.6885 H         1 <0>         0.1328
     25 H7          1.1255    7.2387    1.6714 H         1 <0>         0.1381
     26 H8          2.8832    5.8806    0.0055 H         1 <0>         0.1426
     27 H9          3.5287    3.2753   -0.0031 H         1 <0>         0.1492
@<TRIPOS>BOND
     1    1    2 1
     2    1   19 1
     3    1   20 1
     4    1   21 1
     5    2    3 1
     6    3    4 2
     7    3    5 1
     8    5   10 ar
     9    5    6 ar
    10    6    7 ar
    11    6   22 1
    12    7    8 ar
    13    7   23 1
    14    8    9 ar
    15    8   24 1
    16    9   10 ar
    17    9   25 1
    18   10   11 1
    19   11   15 1
    20   11   12 2
    21   12   13 1
    22   12   26 1
    23   13   14 2
    24   13   27 1
    25   14   15 1
    26   14   16 1
    27   16   17 2
    28   16   18 1
@<TRIPOS>MOLECULE
ZINC00155127
   23    24     0     0     0
SMALL
USER_CHARGES
5-(2-nitrophenyl)furan-2-carboxylic acid
@<TRIPOS>ATOM
      1 C1         -0.4212    8.5314    0.9718 C.ar      1 <0>        -0.0688
      2 C2         -1.4509    8.7025    0.0631 C.ar      1 <0>        -0.1236
      3 C3         -1.7410    7.7118   -0.8580 C.ar      1 <0>        -0.0545
      4 C4         -1.0003    6.5481   -0.8805 C.ar      1 <0>        -0.0381
      5 C5          0.0369    6.3668    0.0366 C.ar      1 <0>         0.0720
      6 C6          0.3239    7.3709    0.9640 C.ar      1 <0>        -0.1029
      7 C7          0.8308    5.1215    0.0219 C.2       1 <0>        -0.0443
      8 C8          2.1944    5.0470    0.0079 C.2       1 <0>        -0.1663
      9 C9          2.5322    3.6903    0.0032 C.2       1 <0>        -0.2040
     10 C10         1.3472    2.9856    0.0052 C.2       1 <0>         0.0217
     11 O1          0.3313    3.8745    0.0202 O.3       1 <0>        -0.1129
     12 C11         1.2140    1.5284   -0.0013 C.2       1 <0>         0.5244
     13 O2          2.2077    0.8268   -0.0146 O.co2     1 <0>        -0.6040
     14 N1         -1.3081    5.4918   -1.8707 N.pl3     1 <0>         0.0195
     15 O3         -2.2131    5.6514   -2.6700 O.2       1 <0>        -0.1792
     16 O4         -0.6563    4.4630   -1.8862 O.3       1 <0>        -0.1083
     17 H1         -0.2003    9.3087    1.6884 H         1 <0>         0.1454
     18 H2         -2.0310    9.6134    0.0734 H         1 <0>         0.1463
     19 H3         -2.5461    7.8517   -1.5641 H         1 <0>         0.1540
     20 H4          1.1272    7.2386    1.6737 H         1 <0>         0.1510
     21 H5          2.8825    5.8794    0.0061 H         1 <0>         0.1455
     22 H6          3.5290    3.2746   -0.0029 H         1 <0>         0.1540
     23 O5         -0.0110    0.9628    0.0073 O.co2     1 <0>        -0.7270
@<TRIPOS>BOND
     1    1    6 ar
     2    1    2 ar
     3    1   17 1
     4    2    3 ar
     5    2   18 1
     6    3    4 ar
     7    3   19 1
     8    4    5 ar
     9    4   14 1
    10    5    6 ar
    11    5    7 1
    12    6   20 1
    13    7   11 1
    14    7    8 2
    15    8    9 1
    16    8   21 1
    17    9   10 2
    18    9   22 1
    19   10   11 1
    20   10   12 1
    21   12   13 2
    22   12   23 1
    23   14   15 2
    24   14   16 1
@<TRIPOS>MOLECULE
ZINC00073711
   21    23     0     0     0
SMALL
USER_CHARGES

@<TRIPOS>ATOM
      1 C1         -0.0166    1.3751    0.0096 C.ar      1 <0>        -0.0968
      2 C2          1.1697    2.0946    0.0021 C.ar      1 <0>        -0.1262
      3 C3          2.3748    1.4511   -0.0128 C.ar      1 <0>        -0.0616
      4 C4          2.4185    0.0534   -0.0208 C.ar      1 <0>         0.0492
      5 C5          1.2164   -0.6755   -0.0132 C.ar      1 <0>         0.0526
      6 C6          0.0021   -0.0041    0.0020 C.ar      1 <0>        -0.1123
      7 N1          1.5740   -2.0108   -0.0243 N.pl3     1 <0>        -0.5824
      8 H1          0.9688   -2.7688   -0.0230 H         1 <0>         0.4294
      9 C7          2.9424   -2.0632   -0.0379 C.2       1 <0>         0.3550
     10 N2          3.4327   -0.8465   -0.0358 N.2       1 <0>        -0.4751
     11 C8          3.7450   -3.3026   -0.0523 C.2       1 <0>         0.1049
     12 C9          5.1175   -3.2762   -0.0602 C.2       1 <0>        -0.1624
     13 S1          5.4801   -5.0243   -0.0753 S.3       1 <0>         0.1452
     14 C10         3.8969   -5.5940   -0.0701 C.2       1 <0>         0.0359
     15 N3          3.1788   -4.5033   -0.0527 N.2       1 <0>        -0.5137
     16 H2         -0.9612    1.8986    0.0260 H         1 <0>         0.1327
     17 H3          1.1403    3.1741    0.0079 H         1 <0>         0.1322
     18 H4          3.2922    2.0209   -0.0189 H         1 <0>         0.1318
     19 H5         -0.9244   -0.5590    0.0083 H         1 <0>         0.1250
     20 H6          5.7912   -2.4321   -0.0582 H         1 <0>         0.2109
     21 H7          3.5556   -6.6186   -0.0760 H         1 <0>         0.2257
@<TRIPOS>BOND
     1    1    6 ar
     2    1    2 ar
     3    1   16 1
     4    2    3 ar
     5    2   17 1
     6    3    4 ar
     7    3   18 1
     8    4   10 1
     9    4    5 ar
    10    5    6 ar
    11    5    7 1
    12    6   19 1
    13    7    8 1
    14    7    9 1
    15    9   10 2
    16    9   11 1
    17   11   15 1
    18   11   12 2
    19   12   13 1
    20   12   20 1
    21   13   14 1
    22   14   15 2
    23   14   21 1
@<TRIPOS>MOLECULE
ZINC00225950
   24    26     0     0     0
SMALL
USER_CHARGES

@<TRIPOS>ATOM
      1 C1         -0.0166    1.3744    0.0096 C.ar      1 <0>        -0.0952
      2 C2          1.1700    2.0946    0.0021 C.ar      1 <0>        -0.1268
      3 C3          2.3750    1.4524   -0.0133 C.ar      1 <0>        -0.0602
      4 C4          2.4197    0.0539   -0.0213 C.ar      1 <0>         0.0471
      5 C5          1.2171   -0.6758   -0.0132 C.ar      1 <0>         0.0541
      6 C6          0.0021   -0.0041    0.0020 C.ar      1 <0>        -0.1128
      7 N1          1.5753   -2.0085   -0.0239 N.pl3     1 <0>        -0.5781
      8 H1          0.9708   -2.7670   -0.0225 H         1 <0>         0.4306
      9 C7          2.9431   -2.0599   -0.0378 C.2       1 <0>         0.3271
     10 N2          3.4326   -0.8449   -0.0362 N.2       1 <0>        -0.4700
     11 C8          3.7480   -3.3018   -0.0515 C.ar      1 <0>         0.1799
     12 C9          5.1402   -3.2236   -0.0592 C.ar      1 <0>        -0.1185
     13 C10         5.8793   -4.3941   -0.0716 C.ar      1 <0>        -0.0735
     14 C11         5.2020   -5.6050   -0.0758 C.ar      1 <0>        -0.1578
     15 C12         3.8183   -5.6090   -0.0676 C.ar      1 <0>         0.1064
     16 N3          3.1388   -4.4814   -0.0508 N.ar      1 <0>        -0.4801
     17 H2         -0.9613    1.8976    0.0260 H         1 <0>         0.1330
     18 H3          1.1399    3.1742    0.0082 H         1 <0>         0.1324
     19 H4          3.2920    2.0230   -0.0197 H         1 <0>         0.1320
     20 H5         -0.9244   -0.5591    0.0075 H         1 <0>         0.1257
     21 H6          5.6349   -2.2635   -0.0560 H         1 <0>         0.1518
     22 H7          6.9589   -4.3653   -0.0781 H         1 <0>         0.1452
     23 H8          5.7497   -6.5358   -0.0857 H         1 <0>         0.1429
     24 H9          3.2885   -6.5501   -0.0713 H         1 <0>         0.1649
@<TRIPOS>BOND
     1    1    6 ar
     2    1    2 ar
     3    1   17 1
     4    2    3 ar
     5    2   18 1
     6    3    4 ar
     7    3   19 1
     8    4   10 1
     9    4    5 ar
    10    5    6 ar
    11    5    7 1
    12    6   20 1
    13    7    8 1
    14    7    9 1
    15    9   10 2
    16    9   11 1
    17   11   16 ar
    18   11   12 ar
    19   12   13 ar
    20   12   21 1
    21   13   14 ar
    22   13   22 1
    23   14   15 ar
    24   14   23 1
    25   15   16 ar
    26   15   24 1
@<TRIPOS>MOLECULE
ZINC00777985
   21    22     0     0     0
SMALL
USER_CHARGES

@<TRIPOS>ATOM
      1 C1         -0.0167    1.3815    0.0096 C.ar      1 <0>        -0.0782
      2 C2          1.1926    2.0594    0.0017 C.ar      1 <0>        -0.1426
      3 C3          2.3755    1.3381   -0.0134 C.ar      1 <0>         0.1016
      4 N1          2.3648    0.0229   -0.0204 N.ar      1 <0>        -0.4631
      5 C4          1.2291   -0.6642   -0.0132 C.ar      1 <0>         0.0754
      6 C5          0.0021   -0.0041    0.0020 C.ar      1 <0>        -0.1043
      7 C6          1.2665   -2.1448   -0.0220 C.2       1 <0>         0.5711
      8 O1          0.2297   -2.7788   -0.0156 O.2       1 <0>        -0.4593
      9 N2          2.4502   -2.7889   -0.0373 N.am      1 <0>        -0.6064
     10 C7          2.4853   -4.1772   -0.0455 C.2       1 <0>         0.2695
     11 N3          1.4754   -5.0205   -0.0463 N.2       1 <0>        -0.5241
     12 C8          1.6761   -6.3252   -0.0552 C.2       1 <0>         0.0627
     13 C9          2.9635   -6.7506   -0.0634 C.2       1 <0>        -0.2445
     14 S1          3.8298   -5.1894   -0.0644 S.3       1 <0>         0.1158
     15 H1         -0.9521    1.9211    0.0259 H         1 <0>         0.1472
     16 H2          1.2124    3.1392    0.0070 H         1 <0>         0.1455
     17 H3          3.3193    1.8630   -0.0200 H         1 <0>         0.1680
     18 H4         -0.9212   -0.5644    0.0082 H         1 <0>         0.1516
     19 H5          3.2777   -2.2828   -0.0424 H         1 <0>         0.4361
     20 H6          0.8516   -7.0227   -0.0555 H         1 <0>         0.1773
     21 H7          3.3565   -7.7565   -0.0713 H         1 <0>         0.2005
@<TRIPOS>BOND
     1    1    6 ar
     2    1    2 ar
     3    1   15 1
     4    2    3 ar
     5    2   16 1
     6    3    4 ar
     7    3   17 1
     8    4    5 ar
     9    5    6 ar
    10    5    7 1
    11    6   18 1
    12    7    8 2
    13    7    9 am
    14    9   10 1
    15    9   19 1
    16   10   14 1
    17   10   11 2
    18   11   12 1
    19   12   13 2
    20   12   20 1
    21   13   14 1
    22   13   21 1
@<TRIPOS>MOLECULE
ZINC13521829
   25    26     0     0     0
SMALL
USER_CHARGES
3-formamido-N-thiazol-2-yl-pyridine-2-carboxamide
@<TRIPOS>ATOM
      1 C1          0.3432    1.1011   -0.0640 C.ar      1 <0>        -0.1139
      2 C2          1.4553    1.9232   -0.0394 C.ar      1 <0>        -0.0992
      3 C3          1.2600    3.3029    0.0078 C.ar      1 <0>         0.1732
      4 C4         -0.0492    3.8007    0.0285 C.ar      1 <0>         0.0271
      5 N1         -1.0850    2.9696    0.0035 N.ar      1 <0>        -0.4392
      6 C5         -0.9237    1.6664   -0.0469 C.ar      1 <0>         0.0806
      7 C6         -0.2793    5.2595    0.0781 C.2       1 <0>         0.5833
      8 O1          0.6614    6.0261    0.0051 O.2       1 <0>        -0.4749
      9 N2         -1.5321    5.7402    0.2042 N.am      1 <0>        -0.6000
     10 C7         -1.7485    7.1112    0.2507 C.2       1 <0>         0.2994
     11 N3         -0.8679    8.0915    0.1933 N.2       1 <0>        -0.5141
     12 C8         -1.2461    9.3536    0.2470 C.2       1 <0>         0.0560
     13 C9         -2.5676    9.6270    0.3755 C.2       1 <0>        -0.2281
     14 S1         -3.2470    7.9746    0.4071 S.3       1 <0>         0.0651
     15 N4          2.3484    4.1717    0.0336 N.am      1 <0>        -0.6633
     16 C10         3.5332    3.7829   -0.4779 C.2       1 <0>         0.4948
     17 O2          3.6270    2.7165   -1.0478 O.2       1 <0>        -0.5315
     18 H1          0.4601    0.0281   -0.1006 H         1 <0>         0.1494
     19 H2          2.4514    1.5062   -0.0561 H         1 <0>         0.1656
     20 H3         -1.7919    1.0244   -0.0706 H         1 <0>         0.1701
     21 H4         -2.2827    5.1285    0.2624 H         1 <0>         0.4384
     22 H5         -0.5195   10.1508    0.1949 H         1 <0>         0.1751
     23 H6         -3.0709   10.5803    0.4411 H         1 <0>         0.2015
     24 H7          2.2537    5.0565    0.4196 H         1 <0>         0.4295
     25 H8          4.3990    4.4211   -0.3804 H         1 <0>         0.1551
@<TRIPOS>BOND
     1    1    6 ar
     2    1    2 ar
     3    1   18 1
     4    2    3 ar
     5    2   19 1
     6    3    4 ar
     7    3   15 1
     8    4    5 ar
     9    4    7 1
    10    5    6 ar
    11    6   20 1
    12    7    8 2
    13    7    9 am
    14    9   10 1
    15    9   21 1
    16   10   14 1
    17   10   11 2
    18   11   12 1
    19   12   13 2
    20   12   22 1
    21   13   14 1
    22   13   23 1
    23   15   16 am
    24   15   24 1
    25   16   17 2
    26   16   25 1
