@<TRIPOS>MOLECULE
ZINC13671868
   21    22     0     0     0
SMALL
USER_CHARGES
4-(p-tolyl)-3H-triazole
@<TRIPOS>ATOM
      1 C1          2.4523    3.9332   -0.0016 C.3       1 <0>        -0.1186
      2 C2          1.1549    3.1666    0.0076 C.ar      1 <0>        -0.0772
      3 C3          1.1720    1.7834    0.0004 C.ar      1 <0>        -0.1211
      4 C4         -0.0126    1.0758    0.0080 C.ar      1 <0>        -0.0875
      5 C5         -1.2290    1.7582    0.0174 C.ar      1 <0>        -0.0180
      6 C6         -1.2397    3.1529    0.0309 C.ar      1 <0>        -0.0941
      7 C7         -0.0484    3.8492    0.0228 C.ar      1 <0>        -0.1192
      8 C8         -2.5034    1.0053    0.0193 C.2       1 <0>         0.0389
      9 C9         -3.7679    1.5237    0.0341 C.2       1 <0>        -0.0085
     10 N1         -4.6023    0.4814    0.0357 N.2       1 <0>        -0.2934
     11 N2         -3.9208   -0.6083    0.0172 N.pl3     1 <0>        -0.2164
     12 N3         -2.6594   -0.3522    0.0066 N.2       1 <0>        -0.2845
     13 H1         -4.3156   -1.5271    0.0118 H         1 <0>         0.4811
     14 H2          2.7547    4.1232   -1.0315 H         1 <0>         0.0728
     15 H3          2.3177    4.8817    0.5184 H         1 <0>         0.0682
     16 H4          3.2230    3.3492    0.5014 H         1 <0>         0.0678
     17 H5          2.1145    1.2562   -0.0114 H         1 <0>         0.1260
     18 H6          0.0021   -0.0041    0.0020 H         1 <0>         0.1291
     19 H7         -2.1784    3.6868    0.0424 H         1 <0>         0.1280
     20 H8         -0.0553    4.9291    0.0287 H         1 <0>         0.1279
     21 H9         -4.0385    2.5693    0.0428 H         1 <0>         0.1986
@<TRIPOS>BOND
     1    1    2 1
     2    1   14 1
     3    1   15 1
     4    1   16 1
     5    2    7 ar
     6    2    3 ar
     7    3    4 ar
     8    3   17 1
     9    4    5 ar
    10    4   18 1
    11    5    6 ar
    12    5    8 1
    13    6    7 ar
    14    6   19 1
    15    7   20 1
    16    8    9 1
    17    8   12 2
    18    9   21 1
    19    9   10 2
    20   10   11 1
    21   11   13 1
    22   11   12 1
@<TRIPOS>MOLECULE
ZINC19287602
   25    26     0     0     0
SMALL
USER_CHARGES

@<TRIPOS>ATOM
      1 C1         -0.0690    1.3204    0.6823 C.ar      1 <0>        -0.0105
      2 C2          1.0859    2.0623    0.7858 C.ar      1 <0>        -0.1056
      3 C3          2.2984    1.5364    0.3316 C.ar      1 <0>        -0.1130
      4 C4          2.3413    0.2566   -0.2281 C.ar      1 <0>        -0.1138
      5 C5          1.1887   -0.4886   -0.3334 C.ar      1 <0>        -0.1056
      6 C6         -0.0282    0.0368    0.1214 C.ar      1 <0>        -0.1027
      7 C7         -1.2582   -0.7561    0.0105 C.2       1 <0>         0.0795
      8 C8         -2.4109   -0.1767   -0.4802 C.2       1 <0>        -0.2735
      9 C9         -2.3935    1.1491   -1.1247 C.2       1 <0>         0.4920
     10 O1         -1.2411    1.8387   -1.2546 O.3       1 <0>        -0.5999
     11 N1         -3.5323    1.6457   -1.5724 N.2       1 <0>        -0.6724
     12 C10        -4.6850    0.9881   -1.4587 C.2       1 <0>         0.6672
     13 O2         -5.6922    1.5138   -1.8974 O.2       1 <0>        -0.5923
     14 N2         -4.7989   -0.2203   -0.8889 N.am      1 <0>        -0.6968
     15 C11        -3.7198   -0.8603   -0.3890 C.2       1 <0>         0.5706
     16 O3         -3.8215   -1.9587    0.1233 O.2       1 <0>        -0.5449
     17 C12         3.5369    2.3350    0.4428 C.2       1 <0>         0.5224
     18 O4          3.5002    3.4550    0.9319 O.co2     1 <0>        -0.6910
     19 O5          4.5981    1.8758    0.0457 O.co2     1 <0>        -0.6961
     20 H1         -1.0052    1.7255    1.0372 H         1 <0>         0.1085
     21 H2          1.0549    3.0515    1.2180 H         1 <0>         0.1211
     22 H3          3.2794   -0.1479   -0.5785 H         1 <0>         0.1205
     23 H4          1.2222   -1.4773   -0.7667 H         1 <0>         0.1098
     24 H5         -1.2614   -1.7929    0.3128 H         1 <0>         0.1314
     25 H6         -5.6701   -0.6438   -0.8389 H         1 <0>         0.3950
@<TRIPOS>BOND
     1    1    6 ar
     2    1    2 ar
     3    1   20 1
     4    2    3 ar
     5    2   21 1
     6    3    4 ar
     7    3   17 1
     8    4    5 ar
     9    4   22 1
    10    5    6 ar
    11    5   23 1
    12    6    7 1
    13    7    8 2
    14    7   24 1
    15    8   15 1
    16    8    9 1
    17    9   10 1
    18    9   11 2
    19   11   12 1
    20   12   13 2
    21   12   14 am
    22   14   15 am
    23   14   25 1
    24   15   16 2
    25   17   18 2
    26   17   19 1
@<TRIPOS>MOLECULE
ZINC19287602
   25    26     0     0     0
SMALL
USER_CHARGES
4-[(2,4,6-trioxohexahydropyrimidin-5-ylidene)methyl]benzoic acid
@<TRIPOS>ATOM
      1 C1         -3.4127    2.1000   -0.0326 C.ar      1 <0>        -0.1107
      2 C2         -2.1643    1.5910   -0.3103 C.ar      1 <0>        -0.1043
      3 C3         -1.1620    2.4282   -0.8062 C.ar      1 <0>        -0.1023
      4 C4         -1.4224    3.7844   -1.0161 C.ar      1 <0>        -0.0896
      5 C5         -2.6708    4.2967   -0.7444 C.ar      1 <0>        -0.0492
      6 C6         -3.6777    3.4588   -0.2474 C.ar      1 <0>        -0.0926
      7 C7         -5.0085    4.0039    0.0475 C.2       1 <0>         0.0484
      8 C8         -5.1296    5.1886    0.7389 C.2       1 <0>        -0.2762
      9 C9         -3.9664    5.8218    1.3972 C.2       1 <0>         0.5571
     10 O1         -2.8643    5.3107    1.3458 O.2       1 <0>        -0.5128
     11 N1         -4.1617    6.9849    2.0521 N.am      1 <0>        -0.7087
     12 C10        -5.3719    7.5563    2.1217 C.2       1 <0>         0.6667
     13 O2         -5.4790    8.6014    2.7326 O.3       1 <0>        -0.6054
     14 N2         -6.4707    7.0387    1.5554 N.2       1 <0>        -0.7170
     15 C11        -6.4300    5.8822    0.8621 C.2       1 <0>         0.5381
     16 O3         -7.4341    5.4231    0.3525 O.2       1 <0>        -0.5703
     17 C12         0.1786    1.8790   -1.1038 C.2       1 <0>         0.4920
     18 O4          0.4074    0.7010   -0.9169 O.co2     1 <0>        -0.6379
     19 O5          1.1441    2.6842   -1.5873 O.co2     1 <0>        -0.7588
     20 H1         -4.1875    1.4522    0.3502 H         1 <0>         0.1157
     21 H2         -1.9596    0.5435   -0.1448 H         1 <0>         0.1233
     22 H3         -0.6448    4.4308   -1.3954 H         1 <0>         0.1264
     23 H4         -2.8729    5.3445   -0.9107 H         1 <0>         0.1088
     24 H5         -5.9089    3.4659   -0.2839 H         1 <0>         0.1453
     25 H6         -3.3163    7.4871    2.5452 H         1 <0>         0.4140
@<TRIPOS>BOND
     1    1    6 ar
     2    1    2 ar
     3    1   20 1
     4    2    3 ar
     5    2   21 1
     6    3    4 ar
     7    3   17 1
     8    4    5 ar
     9    4   22 1
    10    5    6 ar
    11    5   23 1
    12    6    7 1
    13    7    8 2
    14    7   24 1
    15    8   15 1
    16    8    9 1
    17    9   10 2
    18    9   11 am
    19   11   12 1
    20   11   25 1
    21   12   13 1
    22   12   14 2
    23   14   15 1
    24   15   16 2
    25   17   18 2
    26   17   19 1
@<TRIPOS>MOLECULE
ZINC03157622
   25    26     0     0     0
SMALL
USER_CHARGES

@<TRIPOS>ATOM
      1 C1          0.0463    1.4421   -0.7633 C.ar      1 <0>        -0.1381
      2 C2          1.2493    2.1072   -0.6664 C.ar      1 <0>         0.0565
      3 C3          2.3659    1.4522   -0.1284 C.ar      1 <0>        -0.0713
      4 C4          2.2469    0.1244    0.3065 C.ar      1 <0>        -0.0319
      5 C5          1.0361   -0.5242    0.2017 C.ar      1 <0>        -0.0747
      6 C6         -0.0616    0.1310   -0.3313 C.ar      1 <0>        -0.0362
      7 N1          0.9080   -1.9260    0.6596 N.pl3     1 <0>         0.0442
      8 O1          1.8650   -2.4999    1.1247 O.2       1 <0>        -0.1729
      9 O2         -0.1538   -2.4970    0.5685 O.3       1 <0>        -0.1737
     10 C7          3.6492    2.1504   -0.0217 C.2       1 <0>         0.0432
     11 C8          3.6975    3.4341    0.4905 C.2       1 <0>        -0.2329
     12 C9          2.5326    4.0420    1.1555 C.2       1 <0>         0.4920
     13 O3          1.3768    3.3579    1.2852 O.3       1 <0>        -0.6242
     14 N2          2.6458    5.2728    1.6227 N.2       1 <0>        -0.6583
     15 C10         3.7734    5.9716    1.5096 C.2       1 <0>         0.6686
     16 O4          3.7987    7.1005    1.9665 O.2       1 <0>        -0.5682
     17 N3          4.8829    5.5017    0.9212 N.am      1 <0>        -0.6941
     18 C11         4.9222    4.2562    0.4008 C.2       1 <0>         0.5675
     19 O5          5.9303    3.8272   -0.1282 O.2       1 <0>        -0.5264
     20 H1         -0.8162    1.9464   -1.1733 H         1 <0>         0.1445
     21 H2          1.3317    3.1297   -1.0042 H         1 <0>         0.1381
     22 H3          3.1019   -0.3882    0.7219 H         1 <0>         0.1496
     23 H4         -1.0077   -0.3838   -0.4100 H         1 <0>         0.1470
     24 H5          4.5577    1.6627   -0.3429 H         1 <0>         0.1479
     25 H6          5.6716    6.0642    0.8724 H         1 <0>         0.4037
@<TRIPOS>BOND
     1    1    6 ar
     2    1    2 ar
     3    1   20 1
     4    2    3 ar
     5    2   21 1
     6    3    4 ar
     7    3   10 1
     8    4    5 ar
     9    4   22 1
    10    5    6 ar
    11    5    7 1
    12    6   23 1
    13    7    8 2
    14    7    9 1
    15   10   11 2
    16   10   24 1
    17   11   18 1
    18   11   12 1
    19   12   13 1
    20   12   14 2
    21   14   15 1
    22   15   16 2
    23   15   17 am
    24   17   18 am
    25   17   25 1
    26   18   19 2
@<TRIPOS>MOLECULE
ZINC03157622
   25    26     0     0     0
SMALL
USER_CHARGES
5-[(3-nitrophenyl)methylene]hexahydropyrimidine-2,4,6-trione
@<TRIPOS>ATOM
      1 C1          0.7730    2.0841   -1.6754 C.ar      1 <0>        -0.1281
      2 C2          0.7580    3.4261   -1.3618 C.ar      1 <0>         0.0177
      3 C3         -0.0470    3.8867   -0.3115 C.ar      1 <0>        -0.0651
      4 C4         -0.8304    2.9764    0.4110 C.ar      1 <0>        -0.0366
      5 C5         -0.8068    1.6391    0.0799 C.ar      1 <0>        -0.0584
      6 C6         -0.0041    1.1921   -0.9563 C.ar      1 <0>        -0.0451
      7 N1         -1.6374    0.6765    0.8378 N.pl3     1 <0>         0.0346
      8 O1         -1.6144   -0.5067    0.5497 O.2       1 <0>        -0.1697
      9 O2         -2.3441    1.0677    1.7495 O.3       1 <0>        -0.1665
     10 C7         -0.0701    5.3124    0.0294 C.2       1 <0>         0.0137
     11 C8          1.1111    6.0176    0.1255 C.2       1 <0>        -0.2386
     12 C9          2.4210    5.3339    0.1196 C.2       1 <0>         0.5630
     13 O3          2.4938    4.1233    0.0289 O.2       1 <0>        -0.5357
     14 N2          3.5341    6.0904    0.2123 N.am      1 <0>        -0.7017
     15 C10         3.4684    7.4248    0.3183 C.2       1 <0>         0.6624
     16 O4          4.5093    8.0461    0.4039 O.3       1 <0>        -0.5868
     17 N3          2.3176    8.1114    0.3355 N.2       1 <0>        -0.7041
     18 C11         1.1234    7.4903    0.2453 C.2       1 <0>         0.5322
     19 O5          0.0860    8.1248    0.2617 O.2       1 <0>        -0.5551
     20 H1          1.3926    1.7273   -2.4849 H         1 <0>         0.1460
     21 H2          1.3646    4.1206   -1.9241 H         1 <0>         0.1365
     22 H3         -1.4538    3.3227    1.2221 H         1 <0>         0.1540
     23 H4          0.0123    0.1420   -1.2079 H         1 <0>         0.1496
     24 H5         -1.0296    5.8196    0.2085 H         1 <0>         0.1613
     25 H6          4.5254    5.6138    0.2019 H         1 <0>         0.4204
@<TRIPOS>BOND
     1    1    6 ar
     2    1    2 ar
     3    1   20 1
     4    2    3 ar
     5    2   21 1
     6    3    4 ar
     7    3   10 1
     8    4    5 ar
     9    4   22 1
    10    5    6 ar
    11    5    7 1
    12    6   23 1
    13    7    8 2
    14    7    9 1
    15   10   11 2
    16   10   24 1
    17   11   18 1
    18   11   12 1
    19   12   13 2
    20   12   14 am
    21   14   15 1
    22   14   25 1
    23   15   16 1
    24   15   17 2
    25   17   18 1
    26   18   19 2
@<TRIPOS>MOLECULE
ZINC03157622
   26    27     0     0     0
SMALL
USER_CHARGES

@<TRIPOS>ATOM
      1 C1          0.2994    0.9843   -1.2265 C.ar      1 <0>        -0.1241
      2 C2          1.4748    1.6983   -1.1367 C.ar      1 <0>         0.0170
      3 C3          2.3966    1.3977   -0.1251 C.ar      1 <0>        -0.1124
      4 C4          2.1135    0.3720    0.7871 C.ar      1 <0>        -0.0157
      5 C5          0.9333   -0.3313    0.6821 C.ar      1 <0>        -0.0603
      6 C6          0.0281   -0.0272   -0.3210 C.ar      1 <0>        -0.0238
      7 N1          0.6320   -1.4150    1.6442 N.pl3     1 <0>         0.0332
      8 O1          1.4209   -1.6819    2.5206 O.2       1 <0>        -0.1551
      9 O2         -0.4030   -2.0332    1.5537 O.3       1 <0>        -0.1523
     10 C7          3.6499    2.1513   -0.0217 C.2       1 <0>         0.1270
     11 C8          3.6373    3.5269   -0.1188 C.2       1 <0>        -0.2706
     12 C9          2.3725    4.2906   -0.1000 C.2       1 <0>         0.5665
     13 O3          1.3015    3.7236    0.0026 O.2       1 <0>        -0.4729
     14 N2          2.4390    5.6343   -0.1994 N.am      1 <0>        -0.6599
     15 C10         3.6122    6.2720   -0.3129 C.2       1 <0>         0.7153
     16 O4          3.6011    7.4842   -0.3984 O.2       1 <0>        -0.5181
     17 N3          4.7970    5.6461   -0.3369 N.am      1 <0>        -0.6609
     18 C11         4.8884    4.3037   -0.2400 C.2       1 <0>         0.5723
     19 O5          5.9700    3.7479   -0.2576 O.2       1 <0>        -0.4731
     20 H1         -0.4143    1.2175   -2.0028 H         1 <0>         0.1542
     21 H2          1.6849    2.4869   -1.8441 H         1 <0>         0.1401
     22 H3          2.8184    0.1333    1.5698 H         1 <0>         0.1608
     23 H4         -0.8951   -0.5824   -0.3971 H         1 <0>         0.1584
     24 H5          4.5829    1.6292    0.1304 H         1 <0>         0.1733
     25 H6          5.6083    6.1711   -0.4214 H         1 <0>         0.4411
     26 H7          1.6182    6.1511   -0.1887 H         1 <0>         0.4401
@<TRIPOS>BOND
     1    1    6 ar
     2    1    2 ar
     3    1   20 1
     4    2    3 ar
     5    2   21 1
     6    3    4 ar
     7    3   10 1
     8    4    5 ar
     9    4   22 1
    10    5    6 ar
    11    5    7 1
    12    6   23 1
    13    7    8 2
    14    7    9 1
    15   10   11 2
    16   10   24 1
    17   11   18 1
    18   11   12 1
    19   12   13 2
    20   12   14 am
    21   14   15 am
    22   14   26 1
    23   15   16 2
    24   15   17 am
    25   17   18 am
    26   17   25 1
    27   18   19 2
@<TRIPOS>MOLECULE
ZINC08969139
   31    32     0     0     0
SMALL
USER_CHARGES

@<TRIPOS>ATOM
      1 C1         -0.9850    1.4800   -0.1071 C.3       1 <0>         0.0919
      2 N1         -0.4006    0.1367   -0.0974 N.pl3     1 <0>        -0.6350
      3 C2          0.0801   -0.4440    1.1588 C.3       1 <0>         0.0963
      4 C3         -0.3023   -0.5855   -1.2777 C.ar      1 <0>         0.2309
      5 C4          0.2493   -1.8663   -1.2645 C.ar      1 <0>        -0.2141
      6 C5          0.3484   -2.5810   -2.4221 C.ar      1 <0>        -0.0368
      7 C6         -0.1065   -2.0244   -3.6293 C.ar      1 <0>        -0.1523
      8 C7         -0.6614   -0.7335   -3.6365 C.ar      1 <0>         0.0247
      9 C8         -0.7607   -0.0302   -2.4720 C.ar      1 <0>        -0.2096
     10 C9         -0.0057   -2.7619   -4.8351 C.2       1 <0>         0.0707
     11 C10         0.4879   -2.1549   -5.9800 C.2       1 <0>        -0.2601
     12 C11         0.3980   -2.8068   -7.2954 C.2       1 <0>         0.4986
     13 O1         -0.1719   -4.0232   -7.4256 O.3       1 <0>        -0.6421
     14 N2          0.8879   -2.1734   -8.3475 N.2       1 <0>        -0.6709
     15 C12         1.4549   -0.9734   -8.2493 C.2       1 <0>         0.6684
     16 O2          1.8826   -0.4540   -9.2649 O.2       1 <0>        -0.5825
     17 N3          1.5809   -0.3043   -7.0940 N.am      1 <0>        -0.6967
     18 C13         1.1219   -0.8225   -5.9346 C.2       1 <0>         0.5617
     19 O3          1.2312   -0.2135   -4.8868 O.2       1 <0>        -0.5213
     20 H1         -0.2001    2.2165   -0.2789 H         1 <0>         0.0477
     21 H2         -1.7271    1.5477   -0.9026 H         1 <0>         0.0704
     22 H3         -1.4627    1.6754    0.8530 H         1 <0>         0.0638
     23 H4         -0.0794    0.2650    1.9712 H         1 <0>         0.0699
     24 H5         -0.4666   -1.3637    1.3666 H         1 <0>         0.0540
     25 H6          1.1440   -0.6651    1.0732 H         1 <0>         0.0540
     26 H7          0.5990   -2.2929   -0.3361 H         1 <0>         0.1184
     27 H8          0.7761   -3.5726   -2.4108 H         1 <0>         0.1229
     28 H9         -1.0126   -0.3008   -4.5616 H         1 <0>         0.1148
     29 H10        -1.1910    0.9603   -2.4756 H         1 <0>         0.1191
     30 H11        -0.3134   -3.7968   -4.8624 H         1 <0>         0.1452
     31 H12         2.0050    0.5681   -7.0918 H         1 <0>         0.3979
@<TRIPOS>BOND
     1    1    2 1
     2    1   20 1
     3    1   21 1
     4    1   22 1
     5    2    3 1
     6    2    4 1
     7    3   23 1
     8    3   24 1
     9    3   25 1
    10    4    9 ar
    11    4    5 ar
    12    5    6 ar
    13    5   26 1
    14    6    7 ar
    15    6   27 1
    16    7    8 ar
    17    7   10 1
    18    8    9 ar
    19    8   28 1
    20    9   29 1
    21   10   11 2
    22   10   30 1
    23   11   18 1
    24   11   12 1
    25   12   13 1
    26   12   14 2
    27   14   15 1
    28   15   16 2
    29   15   17 am
    30   17   18 am
    31   17   31 1
    32   18   19 2
@<TRIPOS>MOLECULE
ZINC08969139
   31    32     0     0     0
SMALL
USER_CHARGES

@<TRIPOS>ATOM
      1 C1          0.1832    1.2272    0.0571 C.3       1 <0>         0.0973
      2 N1          0.0738   -0.1615   -0.3964 N.pl3     1 <0>        -0.6359
      3 C2          1.2416   -0.8416   -0.9619 C.3       1 <0>         0.0922
      4 C3         -1.1362   -0.8327   -0.2903 C.ar      1 <0>         0.2302
      5 C4         -1.2360   -2.1562   -0.7174 C.ar      1 <0>        -0.2097
      6 C5         -2.4232   -2.8208   -0.6154 C.ar      1 <0>         0.0356
      7 C6         -3.5456   -2.1696   -0.0786 C.ar      1 <0>        -0.1447
      8 C7         -3.4392   -0.8366    0.3504 C.ar      1 <0>        -0.0405
      9 C8         -2.2460   -0.1830    0.2483 C.ar      1 <0>        -0.2165
     10 C9         -4.8198   -2.8762    0.0326 C.2       1 <0>         0.0664
     11 C10        -4.8548   -4.1637    0.5366 C.2       1 <0>        -0.2904
     12 C11        -3.6723   -4.7751    1.1806 C.2       1 <0>         0.5382
     13 N2         -3.7784   -6.0297    1.6474 N.2       1 <0>        -0.6748
     14 C12        -4.8892   -6.7161    1.5476 C.2       1 <0>         0.6354
     15 N3         -6.0228   -6.2375    0.9728 N.am      1 <0>        -0.6791
     16 C13        -6.0750   -4.9886    0.4624 C.2       1 <0>         0.5673
     17 O1         -7.0936   -4.5598   -0.0471 O.2       1 <0>        -0.5420
     18 O2         -4.9084   -7.9687    2.0429 O.3       1 <0>        -0.6655
     19 O3         -2.6272   -4.1557    1.2847 O.2       1 <0>        -0.5284
     20 H1          1.2007    1.5832   -0.1048 H         1 <0>         0.0692
     21 H2         -0.5131    1.8491   -0.5054 H         1 <0>         0.0526
     22 H3         -0.0564    1.2826    1.1190 H         1 <0>         0.0535
     23 H4          1.7949   -1.3374   -0.1643 H         1 <0>         0.0483
     24 H5          0.9130   -1.5823   -1.6909 H         1 <0>         0.0706
     25 H6          1.8858   -0.1111   -1.4513 H         1 <0>         0.0626
     26 H7         -0.3722   -2.6560   -1.1301 H         1 <0>         0.1196
     27 H8         -2.4996   -3.8458   -0.9472 H         1 <0>         0.1177
     28 H9         -4.2995   -0.3310    0.7636 H         1 <0>         0.1192
     29 H10        -2.1620    0.8408    0.5817 H         1 <0>         0.1170
     30 H11        -5.7341   -2.3931   -0.2787 H         1 <0>         0.1332
     31 H12        -6.8109   -6.8016    0.9325 H         1 <0>         0.4015
@<TRIPOS>BOND
     1    1    2 1
     2    1   20 1
     3    1   21 1
     4    1   22 1
     5    2    3 1
     6    2    4 1
     7    3   23 1
     8    3   24 1
     9    3   25 1
    10    4    9 ar
    11    4    5 ar
    12    5    6 ar
    13    5   26 1
    14    6    7 ar
    15    6   27 1
    16    7    8 ar
    17    7   10 1
    18    8    9 ar
    19    8   28 1
    20    9   29 1
    21   10   11 2
    22   10   30 1
    23   11   16 1
    24   11   12 1
    25   12   13 1
    26   12   19 2
    27   13   14 2
    28   14   15 1
    29   14   18 1
    30   15   16 am
    31   15   31 1
    32   16   17 2
@<TRIPOS>MOLECULE
ZINC08969139
   32    33     0     0     0
SMALL
USER_CHARGES

@<TRIPOS>ATOM
      1 C1          0.1839    1.2264    0.0567 C.3       1 <0>         0.0889
      2 N1          0.0740   -0.1619   -0.3979 N.pl3     1 <0>        -0.6257
      3 C2          1.2414   -0.8417   -0.9648 C.3       1 <0>         0.0855
      4 C3         -1.1360   -0.8332   -0.2915 C.ar      1 <0>         0.2538
      5 C4         -1.2363   -2.1562   -0.7196 C.ar      1 <0>        -0.2129
      6 C5         -2.4236   -2.8207   -0.6177 C.ar      1 <0>         0.0285
      7 C6         -3.5456   -2.1698   -0.0800 C.ar      1 <0>        -0.1940
      8 C7         -3.4388   -0.8374    0.3501 C.ar      1 <0>        -0.0169
      9 C8         -2.2454   -0.1839    0.2485 C.ar      1 <0>        -0.2154
     10 C9         -4.8201   -2.8764    0.0312 C.2       1 <0>         0.1564
     11 C10        -4.8553   -4.1635    0.5350 C.2       1 <0>        -0.3100
     12 C11        -3.6743   -4.7722    1.1778 C.2       1 <0>         0.5651
     13 N2         -3.7828   -6.0326    1.6461 N.am      1 <0>        -0.6638
     14 C12        -4.9251   -6.7250    1.5371 C.2       1 <0>         0.7163
     15 N3         -6.0354   -6.2370    0.9664 N.am      1 <0>        -0.6636
     16 C13        -6.0773   -4.9877    0.4593 C.2       1 <0>         0.5728
     17 O1         -7.0929   -4.5541   -0.0510 O.2       1 <0>        -0.4875
     18 O2         -4.9558   -7.8567    1.9791 O.2       1 <0>        -0.5298
     19 O3         -2.6316   -4.1543    1.2821 O.2       1 <0>        -0.4690
     20 H1          1.2012    1.5824   -0.1057 H         1 <0>         0.0767
     21 H2         -0.5128    1.8488   -0.5048 H         1 <0>         0.0594
     22 H3         -0.0550    1.2809    1.1188 H         1 <0>         0.0592
     23 H4          1.7952   -1.3381   -0.1680 H         1 <0>         0.0541
     24 H5          0.9122   -1.5818   -1.6942 H         1 <0>         0.0727
     25 H6          1.8853   -0.1108   -1.4541 H         1 <0>         0.0709
     26 H7         -0.3727   -2.6559   -1.1331 H         1 <0>         0.1265
     27 H8         -2.5004   -3.8454   -0.9503 H         1 <0>         0.1175
     28 H9         -4.2987   -0.3320    0.7645 H         1 <0>         0.1283
     29 H10        -2.1609    0.8395    0.5830 H         1 <0>         0.1267
     30 H11        -5.7344   -2.3932   -0.2801 H         1 <0>         0.1567
     31 H12        -3.0161   -6.4476    2.0714 H         1 <0>         0.4358
     32 H13        -6.8284   -6.7937    0.9208 H         1 <0>         0.4368
@<TRIPOS>BOND
     1    1    2 1
     2    1   20 1
     3    1   21 1
     4    1   22 1
     5    2    3 1
     6    2    4 1
     7    3   23 1
     8    3   24 1
     9    3   25 1
    10    4    9 ar
    11    4    5 ar
    12    5    6 ar
    13    5   26 1
    14    6    7 ar
    15    6   27 1
    16    7    8 ar
    17    7   10 1
    18    8    9 ar
    19    8   28 1
    20    9   29 1
    21   10   11 2
    22   10   30 1
    23   11   16 1
    24   11   12 1
    25   12   13 am
    26   12   19 2
    27   13   14 am
    28   13   31 1
    29   14   15 am
    30   14   18 2
    31   15   16 am
    32   15   32 1
    33   16   17 2
@<TRIPOS>MOLECULE
ZINC08969139
   31    32     0     0     0
SMALL
USER_CHARGES

@<TRIPOS>ATOM
      1 C1         -0.0712    1.2263    0.2040 C.3       1 <0>         0.0932
      2 N1          0.3934   -0.1566    0.0698 N.pl3     1 <0>        -0.6355
      3 C2          0.9622   -0.8537    1.2260 C.3       1 <0>         0.0924
      4 C3          0.2946   -0.8062   -1.1524 C.ar      1 <0>         0.2287
      5 C4          0.7322   -2.1243   -1.2759 C.ar      1 <0>        -0.2087
      6 C5          0.6374   -2.7678   -2.4752 C.ar      1 <0>         0.0220
      7 C6          0.0978   -2.1000   -3.5866 C.ar      1 <0>        -0.1479
      8 C7         -0.3415   -0.7725   -3.4566 C.ar      1 <0>        -0.0402
      9 C8         -0.2472   -0.1404   -2.2511 C.ar      1 <0>        -0.2159
     10 C9         -0.0058   -2.7839   -4.8737 C.2       1 <0>         0.0631
     11 C10        -0.4998   -4.0744   -4.9333 C.2       1 <0>        -0.2840
     12 C11        -1.1372   -4.7115   -3.7660 C.2       1 <0>         0.5614
     13 O1         -1.2491   -4.1183   -2.7093 O.2       1 <0>        -0.5226
     14 N2         -1.5929   -5.9743   -3.9084 N.am      1 <0>        -0.6793
     15 C12        -1.4692   -6.6385   -5.0866 C.2       1 <0>         0.6362
     16 O2         -1.9459   -7.8964   -5.1596 O.3       1 <0>        -0.6651
     17 N3         -0.9135   -6.1259   -6.1559 N.2       1 <0>        -0.6755
     18 C13        -0.4189   -4.8775   -6.1724 C.2       1 <0>         0.5422
     19 O3          0.0892   -4.4197   -7.1818 O.2       1 <0>        -0.5477
     20 H1          0.7493    1.9084   -0.0187 H         1 <0>         0.0469
     21 H2         -0.8903    1.4036   -0.4929 H         1 <0>         0.0699
     22 H3         -0.4181    1.3957    1.2233 H         1 <0>         0.0636
     23 H4          0.1676   -1.3657    1.7686 H         1 <0>         0.0479
     24 H5          1.6975   -1.5826    0.8851 H         1 <0>         0.0705
     25 H6          1.4448   -0.1314    1.8844 H         1 <0>         0.0636
     26 H7          1.1474   -2.6367   -0.4206 H         1 <0>         0.1193
     27 H8          0.9771   -3.7886   -2.5698 H         1 <0>         0.1149
     28 H9         -0.7572   -0.2543   -4.3081 H         1 <0>         0.1219
     29 H10        -0.5891    0.8789   -2.1488 H         1 <0>         0.1198
     30 H11         0.3034   -2.2817   -5.7785 H         1 <0>         0.1440
     31 H12        -2.0162   -6.4155   -3.1554 H         1 <0>         0.4008
@<TRIPOS>BOND
     1    1    2 1
     2    1   20 1
     3    1   21 1
     4    1   22 1
     5    2    3 1
     6    2    4 1
     7    3   23 1
     8    3   24 1
     9    3   25 1
    10    4    9 ar
    11    4    5 ar
    12    5    6 ar
    13    5   26 1
    14    6    7 ar
    15    6   27 1
    16    7    8 ar
    17    7   10 1
    18    8    9 ar
    19    8   28 1
    20    9   29 1
    21   10   11 2
    22   10   30 1
    23   11   18 1
    24   11   12 1
    25   12   13 2
    26   12   14 am
    27   14   15 1
    28   14   31 1
    29   15   16 1
    30   15   17 2
    31   17   18 1
    32   18   19 2
@<TRIPOS>MOLECULE
ZINC09045952
   27    28     0     0     0
SMALL
USER_CHARGES

@<TRIPOS>ATOM
      1 C1          0.0143    1.3097   -1.0014 C.ar      1 <0>        -0.1222
      2 C2          1.1631    2.0429   -0.7569 C.ar      1 <0>        -0.1280
      3 C3          2.3593    1.3997   -0.5230 C.ar      1 <0>        -0.1101
      4 C4          2.4107   -0.0002   -0.5331 C.ar      1 <0>        -0.0577
      5 C5          1.2435   -0.7340   -0.7814 C.ar      1 <0>        -0.0994
      6 C6          0.0560   -0.0743   -1.0134 C.ar      1 <0>        -0.1208
      7 C7          3.6800   -0.6940   -0.2856 C.2       1 <0>        -0.0896
      8 C8          3.7255   -2.0542   -0.2963 C.2       1 <0>        -0.1527
      9 C9          4.9354   -2.7155   -0.0604 C.2       1 <0>         0.0424
     10 C10         4.9623   -4.1058    0.0372 C.2       1 <0>        -0.2482
     11 C11         6.2331   -4.8461    0.1396 C.2       1 <0>         0.5653
     12 N1          6.1725   -6.1919    0.2310 N.am      1 <0>        -0.6952
     13 C12         4.9948   -6.8334    0.2287 C.2       1 <0>         0.6687
     14 N2          3.8205   -6.2146    0.1386 N.2       1 <0>        -0.6650
     15 C13         3.7258   -4.8981    0.0488 C.2       1 <0>         0.4996
     16 O1          2.5200   -4.2969   -0.0354 O.3       1 <0>        -0.6312
     17 O2          5.0005   -8.0489    0.3132 O.2       1 <0>        -0.5768
     18 O3          7.3017   -4.2634    0.1413 O.2       1 <0>        -0.5361
     19 H1         -0.9206    1.8202   -1.1795 H         1 <0>         0.1183
     20 H2          1.1217    3.1221   -0.7498 H         1 <0>         0.1194
     21 H3          3.2545    1.9732   -0.3328 H         1 <0>         0.1220
     22 H4          1.2742   -1.8135   -0.7914 H         1 <0>         0.1414
     23 H5         -0.8449   -0.6384   -1.2050 H         1 <0>         0.1235
     24 H6          4.5781   -0.1252   -0.0948 H         1 <0>         0.1171
     25 H7          2.8275   -2.6230   -0.4870 H         1 <0>         0.1888
     26 H8          5.8486   -2.1489    0.0462 H         1 <0>         0.1260
     27 H9          6.9941   -6.7031    0.2991 H         1 <0>         0.4006
@<TRIPOS>BOND
     1    1    6 ar
     2    1    2 ar
     3    1   19 1
     4    2    3 ar
     5    2   20 1
     6    3    4 ar
     7    3   21 1
     8    4    5 ar
     9    4    7 1
    10    5    6 ar
    11    5   22 1
    12    6   23 1
    13    7    8 2
    14    7   24 1
    15    8    9 1
    16    8   25 1
    17    9   10 2
    18    9   26 1
    19   10   15 1
    20   10   11 1
    21   11   12 am
    22   11   18 2
    23   12   13 am
    24   12   27 1
    25   13   14 1
    26   13   17 2
    27   14   15 2
    28   15   16 1
@<TRIPOS>MOLECULE
ZINC09045952
   27    28     0     0     0
SMALL
USER_CHARGES

@<TRIPOS>ATOM
      1 C1         -0.0046    1.3899    0.1544 C.ar      1 <0>        -0.1197
      2 C2          1.1524    2.0841   -0.1561 C.ar      1 <0>        -0.1254
      3 C3          2.3540    1.4172   -0.2607 C.ar      1 <0>        -0.1062
      4 C4          2.4025    0.0331   -0.0515 C.ar      1 <0>        -0.0608
      5 C5          1.2273   -0.6611    0.2626 C.ar      1 <0>        -0.1028
      6 C6          0.0343    0.0217    0.3628 C.ar      1 <0>        -0.1210
      7 C7          3.6777   -0.6858   -0.1613 C.2       1 <0>        -0.0804
      8 C8          3.7204   -2.0296    0.0426 C.2       1 <0>        -0.1514
      9 C9          4.9370   -2.7155   -0.0621 C.2       1 <0>         0.0329
     10 C10         4.9639   -4.1023    0.0351 C.2       1 <0>        -0.2671
     11 C11         6.2364   -4.8450    0.1371 C.2       1 <0>         0.5393
     12 N1          6.1877   -6.1843    0.2280 N.2       1 <0>        -0.6723
     13 C12         5.0536   -6.8388    0.2283 C.2       1 <0>         0.6353
     14 N2          3.8380   -6.2400    0.1386 N.am      1 <0>        -0.6764
     15 C13         3.7246   -4.8977    0.0473 C.2       1 <0>         0.5657
     16 O1          2.6337   -4.3628   -0.0278 O.2       1 <0>        -0.5362
     17 O2          5.0950   -8.1822    0.3226 O.3       1 <0>        -0.6610
     18 O3          7.3049   -4.2570    0.1384 O.2       1 <0>        -0.5444
     19 H1         -0.9421    1.9194    0.2389 H         1 <0>         0.1200
     20 H2          1.1131    3.1513   -0.3171 H         1 <0>         0.1216
     21 H3          3.2554    1.9601   -0.5036 H         1 <0>         0.1246
     22 H4          1.2558   -1.7285    0.4252 H         1 <0>         0.1343
     23 H5         -0.8729   -0.5121    0.6046 H         1 <0>         0.1233
     24 H6          4.5820   -0.1475   -0.4040 H         1 <0>         0.1240
     25 H7          2.8161   -2.5679    0.2853 H         1 <0>         0.1619
     26 H8          5.8543   -2.1673   -0.2184 H         1 <0>         0.1394
     27 H9          3.0364   -6.7862    0.1446 H         1 <0>         0.4029
@<TRIPOS>BOND
     1    1    6 ar
     2    1    2 ar
     3    1   19 1
     4    2    3 ar
     5    2   20 1
     6    3    4 ar
     7    3   21 1
     8    4    5 ar
     9    4    7 1
    10    5    6 ar
    11    5   22 1
    12    6   23 1
    13    7    8 2
    14    7   24 1
    15    8    9 1
    16    8   25 1
    17    9   10 2
    18    9   26 1
    19   10   15 1
    20   10   11 1
    21   11   12 1
    22   11   18 2
    23   12   13 2
    24   13   14 1
    25   13   17 1
    26   14   15 am
    27   14   27 1
    28   15   16 2
@<TRIPOS>MOLECULE
ZINC09045952
   27    28     0     0     0
SMALL
USER_CHARGES

@<TRIPOS>ATOM
      1 C1         -0.0082    1.3872    0.1192 C.ar      1 <0>        -0.1203
      2 C2          1.1502    2.0817   -0.1852 C.ar      1 <0>        -0.1269
      3 C3          2.3528    1.4154   -0.2817 C.ar      1 <0>        -0.1080
      4 C4          2.4008    0.0316   -0.0703 C.ar      1 <0>        -0.0602
      5 C5          1.2242   -0.6629    0.2377 C.ar      1 <0>        -0.1007
      6 C6          0.0301    0.0193    0.3296 C.ar      1 <0>        -0.1203
      7 C7          3.6771   -0.6867   -0.1713 C.2       1 <0>        -0.0839
      8 C8          3.7194   -2.0302    0.0347 C.2       1 <0>        -0.1448
      9 C9          4.9370   -2.7155   -0.0618 C.2       1 <0>         0.0344
     10 C10         4.9639   -4.1023    0.0355 C.2       1 <0>        -0.2705
     11 C11         3.7213   -4.9005    0.0415 C.2       1 <0>         0.5416
     12 N1          3.8218   -6.2364    0.1377 N.2       1 <0>        -0.6716
     13 C12         4.9803   -6.8405    0.2253 C.2       1 <0>         0.6363
     14 O1          4.9910   -8.1845    0.3180 O.3       1 <0>        -0.6601
     15 N2          6.1716   -6.1886    0.2274 N.am      1 <0>        -0.6777
     16 C13         6.2329   -4.8433    0.1312 C.2       1 <0>         0.5648
     17 O2          7.3022   -4.2615    0.1280 O.2       1 <0>        -0.5384
     18 O3          2.6309   -4.3599   -0.0386 O.2       1 <0>        -0.5418
     19 H1         -0.9465    1.9162    0.1973 H         1 <0>         0.1193
     20 H2          1.1113    3.1487   -0.3479 H         1 <0>         0.1205
     21 H3          3.2553    1.9585   -0.5199 H         1 <0>         0.1231
     22 H4          1.2523   -1.7300    0.4022 H         1 <0>         0.1380
     23 H5         -0.8782   -0.5147    0.5669 H         1 <0>         0.1241
     24 H6          4.5825   -0.1482   -0.4093 H         1 <0>         0.1208
     25 H7          2.8140   -2.5687    0.2726 H         1 <0>         0.1707
     26 H8          5.8551   -2.1668   -0.2117 H         1 <0>         0.1284
     27 H9          6.9936   -6.6990    0.2955 H         1 <0>         0.4031
@<TRIPOS>BOND
     1    1    6 ar
     2    1    2 ar
     3    1   19 1
     4    2    3 ar
     5    2   20 1
     6    3    4 ar
     7    3   21 1
     8    4    5 ar
     9    4    7 1
    10    5    6 ar
    11    5   22 1
    12    6   23 1
    13    7    8 2
    14    7   24 1
    15    8    9 1
    16    8   25 1
    17    9   10 2
    18    9   26 1
    19   10   16 1
    20   10   11 1
    21   11   12 1
    22   11   18 2
    23   12   13 2
    24   13   14 1
    25   13   15 1
    26   15   16 am
    27   15   27 1
    28   16   17 2
@<TRIPOS>MOLECULE
ZINC03896836
   27    28     0     0     0
SMALL
USER_CHARGES

@<TRIPOS>ATOM
      1 C1          0.8492    1.4756   -0.3634 C.3       1 <0>         0.0273
      2 O1          0.3824    0.1480   -0.1152 O.3       1 <0>        -0.3188
      3 C2          0.9124   -0.5019    0.9506 C.ar      1 <0>         0.1381
      4 C3          1.8622    0.1323    1.7466 C.ar      1 <0>        -0.2175
      5 C4          2.4000   -0.5164    2.8206 C.ar      1 <0>         0.0108
      6 C5          1.9928   -1.8261    3.1220 C.ar      1 <0>        -0.1234
      7 C6          1.0340   -2.4598    2.3152 C.ar      1 <0>        -0.0514
      8 C7          0.5002   -1.7979    1.2471 C.ar      1 <0>        -0.1668
      9 C8          2.5646   -2.5266    4.2697 C.2       1 <0>         0.0596
     10 C9          2.6796   -1.8793    5.4896 C.2       1 <0>        -0.2480
     11 C10         3.4471   -2.4633    6.6008 C.2       1 <0>         0.4978
     12 O2          4.0654   -3.6547    6.4615 O.3       1 <0>        -0.6386
     13 N1          3.5172   -1.7939    7.7384 N.2       1 <0>        -0.6680
     14 C11         2.9181   -0.6170    7.9044 C.2       1 <0>         0.6683
     15 O3          3.0297   -0.0614    8.9827 O.2       1 <0>        -0.5788
     16 N2          2.1988   -0.0089    6.9499 N.am      1 <0>        -0.6955
     17 C12         2.0427   -0.5692    5.7311 C.2       1 <0>         0.5613
     18 O4          1.3949   -0.0152    4.8628 O.2       1 <0>        -0.5212
     19 H1          1.9250    1.4557   -0.5379 H         1 <0>         0.0551
     20 H2          0.3460    1.8793   -1.2420 H         1 <0>         0.0971
     21 H3          0.6327    2.1043    0.5003 H         1 <0>         0.0562
     22 H4          2.1745    1.1395    1.5137 H         1 <0>         0.1254
     23 H5          3.1373   -0.0236    3.4370 H         1 <0>         0.1191
     24 H6          0.7165   -3.4669    2.5415 H         1 <0>         0.1320
     25 H7         -0.2406   -2.2825    0.6283 H         1 <0>         0.1290
     26 H8          2.8976   -3.5488    4.1674 H         1 <0>         0.1518
     27 H9          1.7877    0.8496    7.1365 H         1 <0>         0.3993
@<TRIPOS>BOND
     1    1    2 1
     2    1   19 1
     3    1   20 1
     4    1   21 1
     5    2    3 1
     6    3    8 ar
     7    3    4 ar
     8    4    5 ar
     9    4   22 1
    10    5    6 ar
    11    5   23 1
    12    6    7 ar
    13    6    9 1
    14    7    8 ar
    15    7   24 1
    16    8   25 1
    17    9   10 2
    18    9   26 1
    19   10   17 1
    20   10   11 1
    21   11   12 1
    22   11   13 2
    23   13   14 1
    24   14   15 2
    25   14   16 am
    26   16   17 am
    27   16   27 1
    28   17   18 2
@<TRIPOS>MOLECULE
ZINC03896836
   27    28     0     0     0
SMALL
USER_CHARGES

@<TRIPOS>ATOM
      1 C1          0.4170    0.7318    0.8391 C.3       1 <0>         0.0281
      2 O1          0.1871   -0.6564    1.0885 O.3       1 <0>        -0.3178
      3 C2         -1.0578   -1.1300    0.8326 C.ar      1 <0>         0.1412
      4 C3         -2.0387   -0.2721    0.3440 C.ar      1 <0>        -0.2275
      5 C4         -3.2939   -0.7427    0.0843 C.ar      1 <0>        -0.0514
      6 C5         -3.5939   -2.0950    0.3112 C.ar      1 <0>        -0.1192
      7 C6         -2.6002   -2.9550    0.8040 C.ar      1 <0>         0.0238
      8 C7         -1.3473   -2.4732    1.0543 C.ar      1 <0>        -0.1627
      9 C8         -4.9363   -2.6056    0.0357 C.2       1 <0>         0.0554
     10 C9         -5.0960   -3.7943   -0.6510 C.2       1 <0>        -0.2791
     11 C10        -6.4122   -4.4515   -0.7611 C.2       1 <0>         0.5673
     12 O2         -7.4026   -3.9650   -0.2481 O.2       1 <0>        -0.5388
     13 N1         -6.4815   -5.6105   -1.4501 N.am      1 <0>        -0.6783
     14 C11        -5.3776   -6.1553   -2.0240 C.2       1 <0>         0.6355
     15 O3         -5.5181   -7.3137   -2.6970 O.3       1 <0>        -0.6617
     16 N2         -4.1846   -5.6190   -1.9608 N.2       1 <0>        -0.6723
     17 C12        -3.9565   -4.4638   -1.3153 C.2       1 <0>         0.5370
     18 O4         -2.8377   -3.9810   -1.2743 O.2       1 <0>        -0.5287
     19 H1          1.4498    0.9789    1.0847 H         1 <0>         0.0963
     20 H2          0.2322    0.9473   -0.2133 H         1 <0>         0.0550
     21 H3         -0.2557    1.3280    1.4556 H         1 <0>         0.0537
     22 H4         -1.8067    0.7683    0.1702 H         1 <0>         0.1248
     23 H5         -4.0543   -0.0758   -0.2945 H         1 <0>         0.1238
     24 H6         -2.8248   -3.9964    0.9810 H         1 <0>         0.1267
     25 H7         -0.5805   -3.1348    1.4294 H         1 <0>         0.1290
     26 H8         -5.8028   -2.0537    0.3688 H         1 <0>         0.1373
     27 H9         -7.3353   -6.0626   -1.5367 H         1 <0>         0.4027
@<TRIPOS>BOND
     1    1    2 1
     2    1   19 1
     3    1   20 1
     4    1   21 1
     5    2    3 1
     6    3    8 ar
     7    3    4 ar
     8    4    5 ar
     9    4   22 1
    10    5    6 ar
    11    5   23 1
    12    6    7 ar
    13    6    9 1
    14    7    8 ar
    15    7   24 1
    16    8   25 1
    17    9   10 2
    18    9   26 1
    19   10   17 1
    20   10   11 1
    21   11   12 2
    22   11   13 am
    23   13   14 1
    24   13   27 1
    25   14   15 1
    26   14   16 2
    27   16   17 1
    28   17   18 2
@<TRIPOS>MOLECULE
ZINC03896836
   28    29     0     0     0
SMALL
USER_CHARGES

@<TRIPOS>ATOM
      1 C1         -0.7759    1.4556   -0.5567 C.3       1 <0>         0.0237
      2 O1         -0.2946    0.1407   -0.2711 O.3       1 <0>        -0.3116
      3 C2          0.3800   -0.4964   -1.2604 C.ar      1 <0>         0.1668
      4 C3          0.5793    0.1379   -2.4830 C.ar      1 <0>        -0.2213
      5 C4          1.2580   -0.4980   -3.4827 C.ar      1 <0>         0.0174
      6 C5          1.7551   -1.7939   -3.2752 C.ar      1 <0>        -0.1677
      7 C6          1.5508   -2.4280   -2.0401 C.ar      1 <0>        -0.0298
      8 C7          0.8750   -1.7793   -1.0465 C.ar      1 <0>        -0.1680
      9 C8          2.4826   -2.4810   -4.3421 C.2       1 <0>         0.1478
     10 C9          3.4624   -1.8131   -5.0512 C.2       1 <0>        -0.2983
     11 C10         3.9603   -0.4915   -4.6208 C.2       1 <0>         0.5653
     12 O2          3.5188    0.0485   -3.6243 O.2       1 <0>        -0.4694
     13 N1          4.9188    0.1004   -5.3630 N.am      1 <0>        -0.6629
     14 C11         5.4141   -0.4832   -6.4631 C.2       1 <0>         0.7161
     15 O3          6.2760    0.1043   -7.0869 O.2       1 <0>        -0.5263
     16 N2          5.0108   -1.6798   -6.9125 N.am      1 <0>        -0.6628
     17 C12         4.0626   -2.3920   -6.2696 C.2       1 <0>         0.5727
     18 O4          3.7083   -3.4790   -6.6849 O.2       1 <0>        -0.4832
     19 H1          0.0644    2.1046   -0.8031 H         1 <0>         0.0599
     20 H2         -1.4637    1.4153   -1.4013 H         1 <0>         0.0593
     21 H3         -1.2956    1.8499    0.3166 H         1 <0>         0.1042
     22 H4          0.1959    1.1350   -2.6415 H         1 <0>         0.1333
     23 H5          1.4117   -0.0049   -4.4312 H         1 <0>         0.1221
     24 H6          1.9306   -3.4254   -1.8744 H         1 <0>         0.1379
     25 H7          0.7210   -2.2645   -0.0940 H         1 <0>         0.1379
     26 H8          2.2539   -3.5104   -4.5755 H         1 <0>         0.1619
     27 H9          5.4127   -2.0437   -7.7168 H         1 <0>         0.4381
     28 H10         5.2571    0.9689   -5.0944 H         1 <0>         0.4370
@<TRIPOS>BOND
     1    1    2 1
     2    1   19 1
     3    1   20 1
     4    1   21 1
     5    2    3 1
     6    3    8 ar
     7    3    4 ar
     8    4    5 ar
     9    4   22 1
    10    5    6 ar
    11    5   23 1
    12    6    7 ar
    13    6    9 1
    14    7    8 ar
    15    7   24 1
    16    8   25 1
    17    9   10 2
    18    9   26 1
    19   10   17 1
    20   10   11 1
    21   11   12 2
    22   11   13 am
    23   13   14 am
    24   13   28 1
    25   14   15 2
    26   14   16 am
    27   16   17 am
    28   16   27 1
    29   17   18 2
@<TRIPOS>MOLECULE
ZINC03896836
   27    28     0     0     0
SMALL
USER_CHARGES

@<TRIPOS>ATOM
      1 C1         -0.1275    1.4559    0.9417 C.3       1 <0>         0.0272
      2 O1         -0.0884    0.1382    0.3901 O.3       1 <0>        -0.3188
      3 C2         -1.2664   -0.5284    0.3039 C.ar      1 <0>         0.1386
      4 C3         -2.4403    0.0800    0.7384 C.ar      1 <0>        -0.2173
      5 C4         -3.6294   -0.5858    0.6543 C.ar      1 <0>         0.0111
      6 C5         -3.6662   -1.8866    0.1282 C.ar      1 <0>        -0.1229
      7 C6         -2.4788   -2.4945   -0.3082 C.ar      1 <0>        -0.0520
      8 C7         -1.2969   -1.8159   -0.2240 C.ar      1 <0>        -0.1669
      9 C8         -4.9363   -2.6056    0.0357 C.2       1 <0>         0.0534
     10 C9         -6.0572   -1.9673   -0.4608 C.2       1 <0>        -0.2740
     11 C10        -5.9686   -0.6465   -1.1119 C.2       1 <0>         0.5611
     12 O2         -4.9009   -0.0755   -1.2326 O.2       1 <0>        -0.5235
     13 N1         -7.1115   -0.0925   -1.5699 N.am      1 <0>        -0.6781
     14 C11        -8.3044   -0.7280   -1.4368 C.2       1 <0>         0.6359
     15 O3         -9.4057   -0.1181   -1.9164 O.3       1 <0>        -0.6620
     16 N2         -8.4455   -1.8998   -0.8694 N.2       1 <0>        -0.6734
     17 C12        -7.4006   -2.5793   -0.3696 C.2       1 <0>         0.5417
     18 O4         -7.5560   -3.6714    0.1499 O.2       1 <0>        -0.5446
     19 H1          0.8786    1.8750    0.9531 H         1 <0>         0.0973
     20 H2         -0.7764    2.0855    0.3329 H         1 <0>         0.0565
     21 H3         -0.5145    1.4123    1.9597 H         1 <0>         0.0551
     22 H4         -2.4105    1.0808    1.1433 H         1 <0>         0.1257
     23 H5         -4.5396   -0.1127    0.9921 H         1 <0>         0.1192
     24 H6         -2.5005   -3.4953   -0.7137 H         1 <0>         0.1313
     25 H7         -0.3832   -2.2808   -0.5635 H         1 <0>         0.1290
     26 H8         -4.9984   -3.6353    0.3553 H         1 <0>         0.1486
     27 H9         -7.0801    0.7755   -2.0017 H         1 <0>         0.4019
@<TRIPOS>BOND
     1    1    2 1
     2    1   19 1
     3    1   20 1
     4    1   21 1
     5    2    3 1
     6    3    8 ar
     7    3    4 ar
     8    4    5 ar
     9    4   22 1
    10    5    6 ar
    11    5   23 1
    12    6    7 ar
    13    6    9 1
    14    7    8 ar
    15    7   24 1
    16    8   25 1
    17    9   10 2
    18    9   26 1
    19   10   17 1
    20   10   11 1
    21   11   12 2
    22   11   13 am
    23   13   14 1
    24   13   27 1
    25   14   15 1
    26   14   16 2
    27   16   17 1
    28   17   18 2
@<TRIPOS>MOLECULE
ZINC01575001
   23    24     0     0     0
SMALL
USER_CHARGES
(5E)-5-[(4-fluorophenyl)methylene]-6-hydroxy-2-sulfanyl-pyrimidin-4-one
@<TRIPOS>ATOM
      1 C1         -1.3273    1.9496   -0.4070 C.ar      1 <0>         0.0177
      2 C2         -2.6031    1.4471   -0.2914 C.ar      1 <0>        -0.1684
      3 C3         -3.6403    2.2666    0.1331 C.ar      1 <0>         0.1156
      4 C4         -3.3992    3.5967    0.4498 C.ar      1 <0>        -0.1735
      5 C5         -2.1281    4.1134    0.3452 C.ar      1 <0>        -0.0577
      6 C6         -1.0739    3.2917   -0.0832 C.ar      1 <0>        -0.1049
      7 C7          0.2799    3.8323   -0.1972 C.2       1 <0>         0.0811
      8 C8          1.3558    3.1206    0.3113 C.2       1 <0>        -0.2689
      9 C9          1.1645    1.9431    1.1693 C.2       1 <0>         0.5162
     10 N1          2.2400    1.3199    1.6202 N.am      1 <0>        -0.6157
     11 C10         3.4677    1.7231    1.3107 C.2       1 <0>         0.5609
     12 N2          3.7311    2.7689    0.5478 N.2       1 <0>        -0.6153
     13 C11         2.7524    3.5099    0.0168 C.2       1 <0>         0.5355
     14 O1          3.0032    4.4749   -0.6877 O.3       1 <0>        -0.5106
     15 S1          4.8271    0.8109    1.9624 S.2       1 <0>        -0.7311
     16 O2         -0.0745    1.5131    1.4927 O.2       1 <0>        -0.5778
     17 F1         -4.8912    1.7672    0.2380 F         1 <0>        -0.1426
     18 H1         -0.5224    1.3121   -0.7420 H         1 <0>         0.1264
     19 H2         -2.7990    0.4135   -0.5359 H         1 <0>         0.1337
     20 H3         -4.2116    4.2277    0.7789 H         1 <0>         0.1343
     21 H4         -1.9421    5.1481    0.5923 H         1 <0>         0.1347
     22 H5          0.4448    4.8036   -0.6864 H         1 <0>         0.1595
     23 H6          2.1332    0.4401    2.2718 H         1 <0>         0.4509
@<TRIPOS>BOND
     1    1    6 ar
     2    1    2 ar
     3    1   18 1
     4    2    3 ar
     5    2   19 1
     6    3    4 ar
     7    3   17 1
     8    4    5 ar
     9    4   20 1
    10    5    6 ar
    11    5   21 1
    12    6    7 1
    13    7    8 2
    14    7   22 1
    15    8   13 1
    16    8    9 1
    17    9   10 am
    18    9   16 2
    19   10   11 1
    20   10   23 1
    21   11   12 1
    22   11   15 2
    23   12   13 2
    24   13   14 1
@<TRIPOS>MOLECULE
ZINC02819839
   24    25     0     0     0
SMALL
USER_CHARGES
5-[(4-fluorophenyl)methylene]hexahydropyrimidine-2,4,6-trione
@<TRIPOS>ATOM
      1 C1         -2.4514    5.4493   -0.6725 C.ar      1 <0>         0.0005
      2 C2         -3.6476    6.1261   -0.7519 C.ar      1 <0>        -0.1645
      3 C3         -3.7564    7.4125   -0.2423 C.ar      1 <0>         0.1340
      4 C4         -2.6640    8.0242    0.3567 C.ar      1 <0>        -0.1679
      5 C5         -1.4628    7.3582    0.4493 C.ar      1 <0>        -0.0439
      6 C6         -1.3447    6.0583   -0.0635 C.ar      1 <0>        -0.1340
      7 C7         -0.0704    5.3428    0.0310 C.2       1 <0>         0.1371
      8 C8         -0.0465    4.0285    0.4519 C.2       1 <0>        -0.2856
      9 C9          1.1785    3.2093    0.3542 C.2       1 <0>         0.5725
     10 O1          2.2061    3.6734   -0.1019 O.2       1 <0>        -0.4797
     11 N1          1.1263    1.9320    0.7852 N.am      1 <0>        -0.6622
     12 C10         0.0009    1.4079    1.2903 C.2       1 <0>         0.7157
     13 O2          0.0219    0.2505    1.6606 O.2       1 <0>        -0.5235
     14 N2         -1.1477    2.0889    1.4043 N.am      1 <0>        -0.6619
     15 C11        -1.2450    3.3783    1.0198 C.2       1 <0>         0.5648
     16 O3         -2.2917    3.9871    1.1333 O.2       1 <0>        -0.4683
     17 F1         -4.9319    8.0725   -0.3295 F         1 <0>        -0.1328
     18 H1         -2.3668    4.4504   -1.0741 H         1 <0>         0.1303
     19 H2         -4.5022    5.6566   -1.2163 H         1 <0>         0.1413
     20 H3         -2.7567    9.0251    0.7515 H         1 <0>         0.1429
     21 H4         -0.6138    7.8353    0.9160 H         1 <0>         0.1415
     22 H5          0.8506    5.8436   -0.2287 H         1 <0>         0.1662
     23 H6          1.9219    1.3801    0.7285 H         1 <0>         0.4392
     24 H7         -1.9264    1.6454    1.7756 H         1 <0>         0.4384
@<TRIPOS>BOND
     1    1    6 ar
     2    1    2 ar
     3    1   18 1
     4    2    3 ar
     5    2   19 1
     6    3    4 ar
     7    3   17 1
     8    4    5 ar
     9    4   20 1
    10    5    6 ar
    11    5   21 1
    12    6    7 1
    13    7    8 2
    14    7   22 1
    15    8   15 1
    16    8    9 1
    17    9   10 2
    18    9   11 am
    19   11   12 am
    20   11   23 1
    21   12   13 2
    22   12   14 am
    23   14   15 am
    24   14   24 1
    25   15   16 2
@<TRIPOS>MOLECULE
ZINC08995178
   24    25     0     0     0
SMALL
USER_CHARGES

@<TRIPOS>ATOM
      1 C1          0.8956   -0.2806   -1.1441 C.ar      1 <0>        -0.0154
      2 C2          2.0544    0.4332   -1.2500 C.ar      1 <0>        -0.1551
      3 C3          2.3404    1.4418   -0.3343 C.ar      1 <0>         0.1133
      4 C4          1.4483    1.7295    0.6948 C.ar      1 <0>        -0.1594
      5 C5          0.2857    1.0235    0.8117 C.ar      1 <0>        -0.0763
      6 C6         -0.0089    0.0048   -0.1087 C.ar      1 <0>        -0.0905
      7 C7         -1.2514   -0.7550    0.0104 C.2       1 <0>         0.0494
      8 C8         -1.2325   -2.1360   -0.1018 C.2       1 <0>        -0.2392
      9 C9         -2.4754   -2.9156   -0.2123 C.2       1 <0>         0.4970
     10 O1         -3.6776   -2.3026   -0.2075 O.3       1 <0>        -0.6372
     11 N1         -2.3872   -4.2304   -0.3169 N.2       1 <0>        -0.6667
     12 C10        -1.2157   -4.8621   -0.3249 C.2       1 <0>         0.6683
     13 O2         -1.2171   -6.0762   -0.4246 O.2       1 <0>        -0.5770
     14 N2         -0.0339   -4.2357   -0.2297 N.am      1 <0>        -0.6949
     15 C11         0.0361   -2.8914   -0.1220 C.2       1 <0>         0.5600
     16 O3          1.1083   -2.3220   -0.0405 O.2       1 <0>        -0.5189
     17 O4          3.4936    2.1469   -0.4448 O.3       1 <0>        -0.5006
     18 H1          0.6730   -1.0601   -1.8577 H         1 <0>         0.1210
     19 H2          2.7510    0.2147   -2.0459 H         1 <0>         0.1258
     20 H3          1.6764    2.5128    1.4024 H         1 <0>         0.1265
     21 H4         -0.4057    1.2477    1.6106 H         1 <0>         0.1292
     22 H5         -2.1844   -0.2402    0.1859 H         1 <0>         0.1539
     23 H6          0.7844   -4.7565   -0.2417 H         1 <0>         0.4003
     24 H7          3.4194    2.9383   -0.9956 H         1 <0>         0.3867
@<TRIPOS>BOND
     1    1    6 ar
     2    1    2 ar
     3    1   18 1
     4    2    3 ar
     5    2   19 1
     6    3    4 ar
     7    3   17 1
     8    4    5 ar
     9    4   20 1
    10    5    6 ar
    11    5   21 1
    12    6    7 1
    13    7    8 2
    14    7   22 1
    15    8   15 1
    16    8    9 1
    17    9   10 1
    18    9   11 2
    19   11   12 1
    20   12   13 2
    21   12   14 am
    22   14   15 am
    23   14   23 1
    24   15   16 2
    25   17   24 1
@<TRIPOS>MOLECULE
ZINC08995178
   25    26     0     0     0
SMALL
USER_CHARGES

@<TRIPOS>ATOM
      1 C1          0.8946   -0.2808   -1.1445 C.ar      1 <0>        -0.0095
      2 C2          2.0537    0.4331   -1.2512 C.ar      1 <0>        -0.1578
      3 C3          2.3399    1.4419   -0.3363 C.ar      1 <0>         0.1446
      4 C4          1.4480    1.7300    0.6925 C.ar      1 <0>        -0.1612
      5 C5          0.2857    1.0231    0.8103 C.ar      1 <0>        -0.0543
      6 C6         -0.0090    0.0048   -0.1094 C.ar      1 <0>        -0.1350
      7 C7         -1.2527   -0.7556    0.0104 C.2       1 <0>         0.1390
      8 C8         -1.2340   -2.1326   -0.1014 C.2       1 <0>        -0.2893
      9 C9          0.0344   -2.8879   -0.1155 C.2       1 <0>         0.5639
     10 O1          1.1039   -2.3151   -0.0280 O.2       1 <0>        -0.4669
     11 N1         -0.0254   -4.2309   -0.2275 N.am      1 <0>        -0.6623
     12 C10        -1.1968   -4.8749   -0.3247 C.2       1 <0>         0.7159
     13 O2         -1.1803   -6.0861   -0.4236 O.2       1 <0>        -0.5247
     14 N2         -2.3853   -4.2556   -0.3184 N.am      1 <0>        -0.6624
     15 C11        -2.4818   -2.9147   -0.2061 C.2       1 <0>         0.5727
     16 O3         -3.5668   -2.3648   -0.1966 O.2       1 <0>        -0.4814
     17 O4          3.4932    2.1471   -0.4474 O.3       1 <0>        -0.4979
     18 H1          0.6715   -1.0604   -1.8578 H         1 <0>         0.1240
     19 H2          2.7501    0.2140   -2.0471 H         1 <0>         0.1340
     20 H3          1.6758    2.5141    1.3993 H         1 <0>         0.1357
     21 H4         -0.4053    1.2472    1.6095 H         1 <0>         0.1351
     22 H5         -2.1857   -0.2407    0.1864 H         1 <0>         0.1642
     23 H6         -3.1953   -4.7842   -0.3925 H         1 <0>         0.4387
     24 H7          3.4190    2.9381   -0.9986 H         1 <0>         0.3970
     25 H8          0.7987   -4.7425   -0.2384 H         1 <0>         0.4379
@<TRIPOS>BOND
     1    1    6 ar
     2    1    2 ar
     3    1   18 1
     4    2    3 ar
     5    2   19 1
     6    3    4 ar
     7    3   17 1
     8    4    5 ar
     9    4   20 1
    10    5    6 ar
    11    5   21 1
    12    6    7 1
    13    7    8 2
    14    7   22 1
    15    8   15 1
    16    8    9 1
    17    9   10 2
    18    9   11 am
    19   11   12 am
    20   11   25 1
    21   12   13 2
    22   12   14 am
    23   14   15 am
    24   14   23 1
    25   15   16 2
    26   17   24 1
@<TRIPOS>MOLECULE
ZINC08995178
   24    25     0     0     0
SMALL
USER_CHARGES

@<TRIPOS>ATOM
      1 C1          0.8944   -0.2796   -1.1446 C.ar      1 <0>        -0.0146
      2 C2          2.0536    0.4342   -1.2506 C.ar      1 <0>        -0.1551
      3 C3          2.3402    1.4418   -0.3343 C.ar      1 <0>         0.1140
      4 C4          1.4488    1.7284    0.6954 C.ar      1 <0>        -0.1597
      5 C5          0.2865    1.0216    0.8126 C.ar      1 <0>        -0.0768
      6 C6         -0.0089    0.0048   -0.1087 C.ar      1 <0>        -0.0904
      7 C7         -1.2525   -0.7555    0.0104 C.2       1 <0>         0.0434
      8 C8         -1.2338   -2.1329   -0.1015 C.2       1 <0>        -0.2652
      9 C9         -2.4827   -2.9176   -0.2126 C.2       1 <0>         0.5413
     10 N1         -2.3887   -4.2530   -0.3182 N.2       1 <0>        -0.6725
     11 C10        -1.2334   -4.8695   -0.3251 C.2       1 <0>         0.6360
     12 N2         -0.0376   -4.2329   -0.2280 N.am      1 <0>        -0.6774
     13 C11         0.0329   -2.8887   -0.1218 C.2       1 <0>         0.5595
     14 O1          1.1057   -2.3200   -0.0407 O.2       1 <0>        -0.5214
     15 O2         -1.2308   -6.2122   -0.4342 O.3       1 <0>        -0.6601
     16 O3         -3.5700   -2.3660   -0.2080 O.2       1 <0>        -0.5431
     17 O4          3.4933    2.1472   -0.4451 O.3       1 <0>        -0.5005
     18 H1          0.6711   -1.0582   -1.8589 H         1 <0>         0.1211
     19 H2          2.7497    0.2162   -2.0470 H         1 <0>         0.1261
     20 H3          1.6772    2.5113    1.4035 H         1 <0>         0.1266
     21 H4         -0.4041    1.2444    1.6126 H         1 <0>         0.1285
     22 H5         -2.1855   -0.2406    0.1859 H         1 <0>         0.1507
     23 H6          3.4187    2.9391   -0.9951 H         1 <0>         0.3868
     24 H7          0.7810   -4.7531   -0.2394 H         1 <0>         0.4028
@<TRIPOS>BOND
     1    1    6 ar
     2    1    2 ar
     3    1   18 1
     4    2    3 ar
     5    2   19 1
     6    3    4 ar
     7    3   17 1
     8    4    5 ar
     9    4   20 1
    10    5    6 ar
    11    5   21 1
    12    6    7 1
    13    7    8 2
    14    7   22 1
    15    8   13 1
    16    8    9 1
    17    9   10 1
    18    9   16 2
    19   10   11 2
    20   11   12 1
    21   11   15 1
    22   12   13 am
    23   12   24 1
    24   13   14 2
    25   17   23 1
@<TRIPOS>MOLECULE
ZINC08995178
   24    25     0     0     0
SMALL
USER_CHARGES

@<TRIPOS>ATOM
      1 C1          0.8928   -0.2791   -1.1480 C.ar      1 <0>         0.0005
      2 C2          2.0519    0.4345   -1.2553 C.ar      1 <0>        -0.1573
      3 C3          2.3401    1.4414   -0.3387 C.ar      1 <0>         0.1166
      4 C4          1.4499    1.7280    0.6921 C.ar      1 <0>        -0.1641
      5 C5          0.2872    1.0219    0.8100 C.ar      1 <0>        -0.0763
      6 C6         -0.0092    0.0049   -0.1108 C.ar      1 <0>        -0.0885
      7 C7         -1.2525   -0.7555    0.0100 C.2       1 <0>         0.0468
      8 C8         -1.2337   -2.1329   -0.1019 C.2       1 <0>        -0.2716
      9 C9         -2.4793   -2.9155   -0.2133 C.2       1 <0>         0.5671
     10 O1         -3.5669   -2.3698   -0.2104 O.2       1 <0>        -0.5369
     11 N1         -2.3724   -4.2573   -0.3189 N.am      1 <0>        -0.6778
     12 C10        -1.1597   -4.8687   -0.3227 C.2       1 <0>         0.6355
     13 O2         -1.1258   -6.2110   -0.4311 O.3       1 <0>        -0.6602
     14 N2         -0.0214   -4.2282   -0.2275 N.2       1 <0>        -0.6713
     15 C11         0.0364   -2.8908   -0.1219 C.2       1 <0>         0.5357
     16 O3          1.1085   -2.3160   -0.0399 O.2       1 <0>        -0.5279
     17 O4          3.4936    2.1461   -0.4501 O.3       1 <0>        -0.5002
     18 H1          0.6684   -1.0575   -1.8623 H         1 <0>         0.1238
     19 H2          2.7468    0.2169   -2.0529 H         1 <0>         0.1265
     20 H3          1.6795    2.5103    1.4004 H         1 <0>         0.1252
     21 H4         -0.4026    1.2450    1.6105 H         1 <0>         0.1258
     22 H5         -2.1854   -0.2407    0.1866 H         1 <0>         0.1399
     23 H6          3.4190    2.9383   -0.9996 H         1 <0>         0.3855
     24 H7         -3.1767   -4.7945   -0.3930 H         1 <0>         0.4033
@<TRIPOS>BOND
     1    1    6 ar
     2    1    2 ar
     3    1   18 1
     4    2    3 ar
     5    2   19 1
     6    3    4 ar
     7    3   17 1
     8    4    5 ar
     9    4   20 1
    10    5    6 ar
    11    5   21 1
    12    6    7 1
    13    7    8 2
    14    7   22 1
    15    8   15 1
    16    8    9 1
    17    9   10 2
    18    9   11 am
    19   11   12 1
    20   11   24 1
    21   12   13 1
    22   12   14 2
    23   14   15 1
    24   15   16 2
    25   17   23 1
@<TRIPOS>MOLECULE
ZINC09329507
   25    26     0     0     0
SMALL
USER_CHARGES

@<TRIPOS>ATOM
      1 C1         -0.0574    1.3281    0.6384 C.ar      1 <0>        -0.0384
      2 C2          1.1046    2.0635    0.7239 C.ar      1 <0>        -0.0640
      3 C3          2.3030    1.5262    0.2847 C.ar      1 <0>        -0.0459
      4 C4          2.3459    0.2470   -0.2438 C.ar      1 <0>        -0.0641
      5 C5          1.1942   -0.5034   -0.3373 C.ar      1 <0>        -0.0981
      6 C6         -0.0238    0.0319    0.1052 C.ar      1 <0>        -0.0169
      7 C7         -1.2537   -0.7581    0.0104 C.2       1 <0>         0.0222
      8 C8         -2.4103   -0.1808   -0.4812 C.2       1 <0>        -0.2114
      9 C9         -3.7121   -0.8624   -0.3848 C.2       1 <0>         0.4941
     10 O1         -3.8138   -2.0786    0.1908 O.3       1 <0>        -0.6294
     11 N1         -4.7784   -0.2551   -0.8747 N.2       1 <0>        -0.6605
     12 C10        -4.7087    0.9447   -1.4476 C.2       1 <0>         0.6674
     13 O2         -5.7367    1.4386   -1.8752 O.2       1 <0>        -0.5687
     14 N2         -3.5696    1.6399   -1.5796 N.am      1 <0>        -0.6916
     15 C11        -2.3971    1.1510   -1.1217 C.2       1 <0>         0.5593
     16 O3         -1.3642    1.7835   -1.2364 O.2       1 <0>        -0.5213
     17 N3          3.5458    2.3245    0.3804 N.pl3     1 <0>         0.0380
     18 O4          3.5126    3.4419    0.8409 O.2       1 <0>        -0.1658
     19 O5          4.5941    1.8592   -0.0019 O.3       1 <0>        -0.1678
     20 H1         -0.9905    1.7472    0.9852 H         1 <0>         0.1409
     21 H2          1.0807    3.0622    1.1344 H         1 <0>         0.1511
     22 H3          3.2851   -0.1636   -0.5842 H         1 <0>         0.1522
     23 H4          1.2294   -1.5008   -0.7502 H         1 <0>         0.1504
     24 H5         -1.2573   -1.7914    0.3245 H         1 <0>         0.1651
     25 H6         -3.5889    2.5101   -2.0078 H         1 <0>         0.4033
@<TRIPOS>BOND
     1    1    6 ar
     2    1    2 ar
     3    1   20 1
     4    2    3 ar
     5    2   21 1
     6    3    4 ar
     7    3   17 1
     8    4    5 ar
     9    4   22 1
    10    5    6 ar
    11    5   23 1
    12    6    7 1
    13    7    8 2
    14    7   24 1
    15    8   15 1
    16    8    9 1
    17    9   10 1
    18    9   11 2
    19   11   12 1
    20   12   13 2
    21   12   14 am
    22   14   15 am
    23   14   25 1
    24   15   16 2
    25   17   18 2
    26   17   19 1
@<TRIPOS>MOLECULE
ZINC09329507
   26    27     0     0     0
SMALL
USER_CHARGES
5-[(4-nitrophenyl)methylene]hexahydropyrimidine-2,4,6-trione
@<TRIPOS>ATOM
      1 C1         -2.5538    5.2546   -0.0422 C.ar      1 <0>        -0.0339
      2 C2         -3.7739    5.8910   -0.1148 C.ar      1 <0>        -0.0632
      3 C3         -3.8352    7.2713   -0.2066 C.ar      1 <0>        -0.0196
      4 C4         -2.6737    8.0248   -0.2209 C.ar      1 <0>        -0.0642
      5 C5         -1.4448    7.4059   -0.1442 C.ar      1 <0>        -0.0792
      6 C6         -1.3731    6.0094   -0.0511 C.ar      1 <0>        -0.0584
      7 C7         -0.0704    5.3418    0.0304 C.2       1 <0>         0.1052
      8 C8          0.1365    4.3451    0.9607 C.2       1 <0>        -0.2623
      9 C9          1.3504    3.5031    0.9329 C.2       1 <0>         0.5739
     10 O1          2.2059    3.6675    0.0842 O.2       1 <0>        -0.4791
     11 N1          1.4836    2.5472    1.8754 N.am      1 <0>        -0.6780
     12 C10         0.5493    2.3556    2.8170 C.2       1 <0>         0.7167
     13 O2          0.7315    1.4769    3.6365 O.2       1 <0>        -0.5250
     14 N2         -0.5775    3.0763    2.9009 N.am      1 <0>        -0.6773
     15 C11        -0.8460    4.0708    2.0297 C.2       1 <0>         0.5645
     16 O3         -1.8700    4.7207    2.1193 O.2       1 <0>        -0.4755
     17 N3         -5.1504    7.9453   -0.2903 N.pl3     1 <0>         0.0228
     18 O4         -5.2085    9.1592   -0.3716 O.2       1 <0>        -0.1531
     19 O5         -6.1744    7.2860   -0.2780 O.3       1 <0>        -0.1525
     20 H1         -2.5077    4.1777    0.0252 H         1 <0>         0.1433
     21 H2         -4.6851    5.3112   -0.1039 H         1 <0>         0.1583
     22 H3         -2.7309    9.1009   -0.2927 H         1 <0>         0.1602
     23 H4         -0.5399    7.9952   -0.1555 H         1 <0>         0.1554
     24 H5          0.7420    5.6359   -0.6505 H         1 <0>         0.1788
     25 H6         -1.3093    2.8626    3.6939 H         1 <0>         0.4705
     26 H7          2.3750    1.9027    1.8830 H         1 <0>         0.4715
@<TRIPOS>BOND
     1    1    6 ar
     2    1    2 ar
     3    1   20 1
     4    2    3 ar
     5    2   21 1
     6    3    4 ar
     7    3   17 1
     8    4    5 ar
     9    4   22 1
    10    5    6 ar
    11    5   23 1
    12    6    7 1
    13    7    8 2
    14    7   24 1
    15    8   15 1
    16    8    9 1
    17    9   10 2
    18    9   11 am
    19   11   12 am
    20   11   26 1
    21   12   13 2
    22   12   14 am
    23   14   15 am
    24   14   25 1
    25   15   16 2
    26   17   18 2
    27   17   19 1
@<TRIPOS>MOLECULE
ZINC09329507
   25    26     0     0     0
SMALL
USER_CHARGES

@<TRIPOS>ATOM
      1 C1         -0.0567    1.3271    0.6389 C.ar      1 <0>        -0.0374
      2 C2          1.1055    2.0625    0.7240 C.ar      1 <0>        -0.0640
      3 C3          2.3034    1.5254    0.2838 C.ar      1 <0>        -0.0451
      4 C4          2.3456    0.2465   -0.2454 C.ar      1 <0>        -0.0644
      5 C5          1.1934   -0.5036   -0.3383 C.ar      1 <0>        -0.0985
      6 C6         -0.0237    0.0317    0.1047 C.ar      1 <0>        -0.0171
      7 C7         -1.2547   -0.7586    0.0104 C.2       1 <0>         0.0169
      8 C8         -2.4082   -0.1826   -0.4799 C.2       1 <0>        -0.2385
      9 C9         -3.7174   -0.8666   -0.3835 C.2       1 <0>         0.5398
     10 N1         -4.7983   -0.2457   -0.8822 N.2       1 <0>        -0.6674
     11 C10        -4.7239    0.9348   -1.4443 C.2       1 <0>         0.6352
     12 N2         -3.5687    1.6365   -1.5777 N.am      1 <0>        -0.6739
     13 C11        -2.3961    1.1479   -1.1200 C.2       1 <0>         0.5587
     14 O1         -1.3634    1.7806   -1.2355 O.2       1 <0>        -0.5240
     15 O2         -5.8586    1.4847   -1.9180 O.3       1 <0>        -0.6519
     16 O3         -3.8116   -1.9659    0.1350 O.2       1 <0>        -0.5356
     17 N3          3.5464    2.3234    0.3790 N.pl3     1 <0>         0.0377
     18 O4          3.5137    3.4405    0.8400 O.2       1 <0>        -0.1648
     19 O5          4.5944    1.8580   -0.0043 O.3       1 <0>        -0.1677
     20 H1         -0.9895    1.7459    0.9869 H         1 <0>         0.1410
     21 H2          1.0819    3.0609    1.1350 H         1 <0>         0.1513
     22 H3          3.2844   -0.1643   -0.5866 H         1 <0>         0.1522
     23 H4          1.2281   -1.5008   -0.7517 H         1 <0>         0.1497
     24 H5         -1.2585   -1.7918    0.3249 H         1 <0>         0.1620
     25 H6         -3.5870    2.5068   -2.0057 H         1 <0>         0.4058
@<TRIPOS>BOND
     1    1    6 ar
     2    1    2 ar
     3    1   20 1
     4    2    3 ar
     5    2   21 1
     6    3    4 ar
     7    3   17 1
     8    4    5 ar
     9    4   22 1
    10    5    6 ar
    11    5   23 1
    12    6    7 1
    13    7    8 2
    14    7   24 1
    15    8   13 1
    16    8    9 1
    17    9   10 1
    18    9   16 2
    19   10   11 2
    20   11   12 1
    21   11   15 1
    22   12   13 am
    23   12   25 1
    24   13   14 2
    25   17   18 2
    26   17   19 1
@<TRIPOS>MOLECULE
ZINC09329507
   25    26     0     0     0
SMALL
USER_CHARGES

@<TRIPOS>ATOM
      1 C1          0.2854    1.1921    0.0668 C.ar      1 <0>        -0.0982
      2 C2          1.5251    1.7332    0.3295 C.ar      1 <0>        -0.0686
      3 C3          2.5474    0.9318    0.8092 C.ar      1 <0>        -0.0423
      4 C4          2.3348   -0.4187    1.0293 C.ar      1 <0>        -0.0661
      5 C5          1.1017   -0.9773    0.7717 C.ar      1 <0>        -0.0223
      6 C6          0.0609   -0.1738    0.2865 C.ar      1 <0>        -0.0148
      7 C7         -1.2547   -0.7586    0.0104 C.2       1 <0>         0.0195
      8 C8         -1.3492   -1.9488   -0.6802 C.2       1 <0>        -0.2443
      9 C9         -2.6278   -2.6788   -0.7910 C.2       1 <0>         0.5661
     10 O1         -3.6429   -2.2509   -0.2745 O.2       1 <0>        -0.5285
     11 N1         -2.6331   -3.8369   -1.4852 N.am      1 <0>        -0.6761
     12 C10        -1.5014   -4.3164   -2.0631 C.2       1 <0>         0.6360
     13 O2         -1.5783   -5.4777   -2.7414 O.3       1 <0>        -0.6510
     14 N2         -0.3398   -3.7150   -1.9995 N.2       1 <0>        -0.6660
     15 C11        -0.1748   -2.5513   -1.3504 C.2       1 <0>         0.5340
     16 O3          0.9154   -2.0074   -1.3095 O.2       1 <0>        -0.5317
     17 N3          3.8758    1.5222    1.0879 N.pl3     1 <0>         0.0382
     18 O4          4.0656    2.7008    0.8968 O.2       1 <0>        -0.1702
     19 O5          4.7710    0.8259    1.5068 O.3       1 <0>        -0.1646
     20 H1         -0.5121    1.8195   -0.3030 H         1 <0>         0.1470
     21 H2          1.7001    2.7854    0.1605 H         1 <0>         0.1508
     22 H3          3.1379   -1.0362    1.4035 H         1 <0>         0.1516
     23 H4          0.9378   -2.0309    0.9433 H         1 <0>         0.1439
     24 H5         -2.1499   -0.2574    0.3478 H         1 <0>         0.1512
     25 H6         -3.4604   -4.3358   -1.5725 H         1 <0>         0.4063
@<TRIPOS>BOND
     1    1    6 ar
     2    1    2 ar
     3    1   20 1
     4    2    3 ar
     5    2   21 1
     6    3    4 ar
     7    3   17 1
     8    4    5 ar
     9    4   22 1
    10    5    6 ar
    11    5   23 1
    12    6    7 1
    13    7    8 2
    14    7   24 1
    15    8   15 1
    16    8    9 1
    17    9   10 2
    18    9   11 am
    19   11   12 1
    20   11   25 1
    21   12   13 1
    22   12   14 2
    23   14   15 1
    24   15   16 2
    25   17   18 2
    26   17   19 1
@<TRIPOS>MOLECULE
ZINC00777985
   21    22     0     0     0
SMALL
USER_CHARGES

@<TRIPOS>ATOM
      1 C1         -0.0167    1.3815    0.0096 C.ar      1 <0>        -0.0782
      2 C2          1.1926    2.0594    0.0017 C.ar      1 <0>        -0.1426
      3 C3          2.3755    1.3381   -0.0134 C.ar      1 <0>         0.1016
      4 N1          2.3648    0.0229   -0.0204 N.ar      1 <0>        -0.4631
      5 C4          1.2291   -0.6642   -0.0132 C.ar      1 <0>         0.0754
      6 C5          0.0021   -0.0041    0.0020 C.ar      1 <0>        -0.1043
      7 C6          1.2665   -2.1448   -0.0220 C.2       1 <0>         0.5711
      8 O1          0.2297   -2.7788   -0.0156 O.2       1 <0>        -0.4593
      9 N2          2.4502   -2.7889   -0.0373 N.am      1 <0>        -0.6064
     10 C7          2.4853   -4.1772   -0.0455 C.2       1 <0>         0.2695
     11 N3          1.4754   -5.0205   -0.0463 N.2       1 <0>        -0.5241
     12 C8          1.6761   -6.3252   -0.0552 C.2       1 <0>         0.0627
     13 C9          2.9635   -6.7506   -0.0634 C.2       1 <0>        -0.2445
     14 S1          3.8298   -5.1894   -0.0644 S.3       1 <0>         0.1158
     15 H1         -0.9521    1.9211    0.0259 H         1 <0>         0.1472
     16 H2          1.2124    3.1392    0.0070 H         1 <0>         0.1455
     17 H3          3.3193    1.8630   -0.0200 H         1 <0>         0.1680
     18 H4         -0.9212   -0.5644    0.0082 H         1 <0>         0.1516
     19 H5          3.2777   -2.2828   -0.0424 H         1 <0>         0.4361
     20 H6          0.8516   -7.0227   -0.0555 H         1 <0>         0.1773
     21 H7          3.3565   -7.7565   -0.0713 H         1 <0>         0.2005
@<TRIPOS>BOND
     1    1    6 ar
     2    1    2 ar
     3    1   15 1
     4    2    3 ar
     5    2   16 1
     6    3    4 ar
     7    3   17 1
     8    4    5 ar
     9    5    6 ar
    10    5    7 1
    11    6   18 1
    12    7    8 2
    13    7    9 am
    14    9   10 1
    15    9   19 1
    16   10   14 1
    17   10   11 2
    18   11   12 1
    19   12   13 2
    20   12   20 1
    21   13   14 1
    22   13   21 1
