@<TRIPOS>MOLECULE
ZINC00403014
   24    23     0     0     0
SMALL
USER_CHARGES
2-amino-4-methyl-pentane-1-thiol
@<TRIPOS>ATOM
      1 C1          4.9305    5.5719   -0.4792 C.3       1 <0>        -0.1556
      2 C2          3.4532    5.1975   -0.3446 C.3       1 <0>        -0.1033
      3 C3          2.7090    5.5905   -1.6223 C.3       1 <0>        -0.1654
      4 C4          3.3275    3.6886   -0.1248 C.3       1 <0>        -0.1385
      5 C5          1.8658    3.3340    0.1553 C.3       1 <0>         0.0538
      6 H1          1.2432    3.6814   -0.6692 H         1 <0>         0.1548
      7 C6          1.7268    1.8167    0.2951 C.3       1 <0>        -0.1134
      8 S1         -0.0252    1.3845    0.4798 S.3       1 <0>        -0.2514
      9 H2          5.3845    4.9799   -1.2738 H         1 <0>         0.0656
     10 H3          5.0163    6.6313   -0.7211 H         1 <0>         0.0687
     11 H4          5.4433    5.3715    0.4615 H         1 <0>         0.0614
     12 H5          3.0204    5.7257    0.5050 H         1 <0>         0.0656
     13 H6          1.6565    5.3237   -1.5264 H         1 <0>         0.0542
     14 H7          2.7985    6.6655   -1.7789 H         1 <0>         0.0711
     15 H8          3.1418    5.0623   -2.4719 H         1 <0>         0.0696
     16 H9          3.9425    3.3927    0.7251 H         1 <0>         0.0942
     17 H10         3.6644    3.1620   -1.0178 H         1 <0>         0.1167
     18 H11         2.2784    1.4807    1.1732 H         1 <0>         0.1107
     19 H12         2.1290    1.3315   -0.5942 H         1 <0>         0.1318
     20 H13        -0.0196    0.0442    0.5924 H         1 <0>         0.1375
     21 H14         2.0563    3.7521    2.1621 H         1 <0>         0.4357
     22 H15         1.3626    4.9815    1.2827 H         1 <0>         0.4394
     23 N1          1.4121    3.9713    1.4041 N.4       1 <0>        -0.6464
     24 H16         0.4790    3.6166    1.6443 H         1 <0>         0.4433
@<TRIPOS>BOND
     1    1    2 1
     2    1    9 1
     3    1   10 1
     4    1   11 1
     5    2    3 1
     6    2    4 1
     7    2   12 1
     8    3   13 1
     9    3   14 1
    10    3   15 1
    11    4    5 1
    12    4   16 1
    13    4   17 1
    14    5    6 1
    15    5    7 1
    16    5   23 1
    17    7    8 1
    18    7   18 1
    19    7   19 1
    20    8   20 1
    21   21   23 1
    22   22   23 1
    23   23   24 1
@<TRIPOS>MOLECULE
ZINC00403015
   24    23     0     0     0
SMALL
USER_CHARGES
2-amino-4-methyl-pentane-1-thiol
@<TRIPOS>ATOM
      1 C1         -2.1182    0.7317    3.7681 C.3       1 <0>        -0.1655
      2 C2         -0.7725    1.4597    3.7620 C.3       1 <0>        -0.1031
      3 C3          0.0273    1.0635    5.0048 C.3       1 <0>        -0.1554
      4 C4          0.0111    1.0724    2.5063 C.3       1 <0>        -0.1388
      5 C5         -0.7288    1.5792    1.2668 C.3       1 <0>         0.0538
      6 H1         -1.7514    1.2020    1.2746 H         1 <0>         0.1544
      7 C6         -0.0127    1.0858    0.0080 C.3       1 <0>        -0.1122
      8 S1         -0.8901    1.6867   -1.4616 S.3       1 <0>        -0.2562
      9 H2         -2.6765    1.0076    4.6627 H         1 <0>         0.0712
     10 H3         -2.6880    1.0139    2.8828 H         1 <0>         0.0542
     11 H4         -1.9488   -0.3451    3.7632 H         1 <0>         0.0696
     12 H5         -0.9419    2.5364    3.7670 H         1 <0>         0.0660
     13 H6          0.9860    1.5821    5.0004 H         1 <0>         0.0615
     14 H7         -0.5310    1.3394    5.8993 H         1 <0>         0.0685
     15 H8          0.1966   -0.0132    4.9998 H         1 <0>         0.0657
     16 H9          0.1037   -0.0125    2.4560 H         1 <0>         0.1166
     17 H10         1.0041    1.5203    2.5452 H         1 <0>         0.0941
     18 H11         0.0021   -0.0041    0.0020 H         1 <0>         0.1317
     19 H12         1.0099    1.4631    0.0003 H         1 <0>         0.1114
     20 H13        -0.1764    1.1953   -2.4903 H         1 <0>         0.1403
     21 H14        -1.2723    3.3983    2.0632 H         1 <0>         0.4384
     22 H15         0.1882    3.4225    1.2680 H         1 <0>         0.4360
     23 N1         -0.7608    3.0524    1.2530 N.4       1 <0>        -0.6458
     24 H16        -1.2315    3.3718    0.3982 H         1 <0>         0.4436
@<TRIPOS>BOND
     1    1    2 1
     2    1    9 1
     3    1   10 1
     4    1   11 1
     5    2    3 1
     6    2    4 1
     7    2   12 1
     8    3   13 1
     9    3   14 1
    10    3   15 1
    11    4    5 1
    12    4   16 1
    13    4   17 1
    14    5    6 1
    15    5    7 1
    16    5   23 1
    17    7    8 1
    18    7   18 1
    19    7   19 1
    20    8   20 1
    21   21   23 1
    22   22   23 1
    23   23   24 1
@<TRIPOS>MOLECULE
ZINC00057001
   28    28     0     0     0
SMALL
USER_CHARGES

@<TRIPOS>ATOM
      1 C1         -0.0187    1.5258    0.0104 C.3       1 <0>        -0.1499
      2 C2          0.0021   -0.0041    0.0020 C.3       1 <0>        -0.0861
      3 H1         -1.0205   -0.3814    0.0098 H         1 <0>         0.0991
      4 C3          0.7421   -0.5109    1.2415 C.3       1 <0>        -0.0413
      5 S1         -0.1871   -0.0517    2.7303 S.3       1 <0>        -0.2560
      6 C4          0.7074   -0.4901   -1.2379 C.2       1 <0>         0.5406
      7 O1          1.7039   -1.1744   -1.1398 O.2       1 <0>        -0.5341
      8 N1          0.2309   -0.1642   -2.4557 N.am      1 <0>        -0.5870
      9 C5         -0.9612    0.6622   -2.7190 C.3       1 <0>         0.1001
     10 C6         -1.4323    0.2395   -4.1329 C.3       1 <0>        -0.1344
     11 C7         -0.0792    0.0101   -4.8565 C.3       1 <0>        -0.1069
     12 C8          0.8176   -0.5687   -3.7417 C.3       1 <0>         0.0652
     13 H2          0.8397   -1.6561   -3.8134 H         1 <0>         0.0661
     14 C9          2.2140   -0.0156   -3.8646 C.2       1 <0>         0.4962
     15 O2          2.9386   -0.3858   -4.7726 O.co2     1 <0>        -0.7023
     16 O3          2.6192    0.8020   -3.0561 O.co2     1 <0>        -0.6788
     17 H3          1.0039    1.9031    0.0027 H         1 <0>         0.0664
     18 H4         -0.5459    1.8868   -0.8726 H         1 <0>         0.0680
     19 H5         -0.5289    1.8773    0.9072 H         1 <0>         0.0715
     20 H6          0.8346   -1.5958    1.1912 H         1 <0>         0.0908
     21 H7          1.7350   -0.0630    1.2804 H         1 <0>         0.0927
     22 H8          0.5521   -0.5447    3.7401 H         1 <0>         0.0864
     23 H9         -1.7373    0.4540   -1.9825 H         1 <0>         0.0699
     24 H10        -0.6995    1.7202   -2.7069 H         1 <0>         0.0682
     25 H11        -2.0144   -0.6812   -4.0917 H         1 <0>         0.0709
     26 H12        -2.0003    1.0379   -4.6104 H         1 <0>         0.0779
     27 H13        -0.1941   -0.7041   -5.6719 H         1 <0>         0.0749
     28 H14         0.3271    0.9530   -5.2227 H         1 <0>         0.0719
@<TRIPOS>BOND
     1    1    2 1
     2    1   17 1
     3    1   18 1
     4    1   19 1
     5    2    3 1
     6    2    4 1
     7    2    6 1
     8    4    5 1
     9    4   20 1
    10    4   21 1
    11    5   22 1
    12    6    7 2
    13    6    8 am
    14    8   12 1
    15    8    9 1
    16    9   10 1
    17    9   23 1
    18    9   24 1
    19   10   11 1
    20   10   25 1
    21   10   26 1
    22   11   12 1
    23   11   27 1
    24   11   28 1
    25   12   13 1
    26   12   14 1
    27   14   15 2
    28   14   16 1
@<TRIPOS>MOLECULE
ZINC13528267
   20    19     0     0     0
SMALL
USER_CHARGES
(4S)-4-amino-5-sulfanyl-pentanoic acid
@<TRIPOS>ATOM
      1 C1          0.0786    1.1786    2.5031 C.3       1 <0>        -0.1199
      2 C2         -0.5703    1.7779    3.7523 C.3       1 <0>        -0.1735
      3 C3          0.2250    1.3833    4.9700 C.2       1 <0>         0.4550
      4 O1          1.2098    0.6935    4.8509 O.co2     1 <0>        -0.6324
      5 C4         -0.7288    1.5792    1.2668 C.3       1 <0>         0.0548
      6 H1         -0.8222    2.6646    1.2299 H         1 <0>         0.1498
      7 C5         -0.0127    1.0858    0.0080 C.3       1 <0>        -0.1048
      8 S1         -0.8901    1.6867   -1.4616 S.3       1 <0>        -0.2619
      9 H2          0.0967    0.0921    2.5888 H         1 <0>         0.0914
     10 H3          1.0980    1.5526    2.4082 H         1 <0>         0.1144
     11 H4         -0.5884    2.8644    3.6666 H         1 <0>         0.0810
     12 H5         -1.5897    1.4039    3.8473 H         1 <0>         0.0611
     13 H6          0.0021   -0.0041    0.0020 H         1 <0>         0.1099
     14 H7          1.0099    1.4631    0.0003 H         1 <0>         0.1314
     15 H8         -0.1764    1.1953   -2.4903 H         1 <0>         0.1301
     16 H9         -2.0063   -0.0317    1.3735 H         1 <0>         0.4341
     17 H10        -2.5835    1.3343    2.1262 H         1 <0>         0.4413
     18 O2         -0.1606    1.7982    6.1869 O.co2     1 <0>        -0.7538
     19 N1         -2.0755    0.9830    1.3162 N.4       1 <0>        -0.6440
     20 H11        -2.5882    1.2362    0.4634 H         1 <0>         0.4360
@<TRIPOS>BOND
     1    1    2 1
     2    1    5 1
     3    1    9 1
     4    1   10 1
     5    2    3 1
     6    2   11 1
     7    2   12 1
     8    3    4 2
     9    3   18 1
    10    5    6 1
    11    5    7 1
    12    5   19 1
    13    7    8 1
    14    7   13 1
    15    7   14 1
    16    8   15 1
    17   16   19 1
    18   17   19 1
    19   19   20 1
@<TRIPOS>MOLECULE
ZINC03872462
   70    69     0     0     0
SMALL
USER_CHARGES
2-[2-[2-(3-amino-2-hydroxy-5-methyl-hexanoyl)amino-3-methyl-butanoyl]amino-3-methyl-butanoyl]aminobutanedioic acid
@<TRIPOS>ATOM
      1 C1          2.6284   -2.3298   -2.5474 C.3       1 <0>        -0.1667
      2 C2          1.1170   -2.5192   -2.6918 C.3       1 <0>        -0.1047
      3 C3          0.8041   -4.0063   -2.8694 C.3       1 <0>        -0.1525
      4 C4          0.4153   -1.9968   -1.4366 C.3       1 <0>        -0.1348
      5 C5          0.6067   -0.4820   -1.3384 C.3       1 <0>        -0.0054
      6 H1          1.6705   -0.2471   -1.3733 H         1 <0>         0.1610
      7 C6          0.0159    0.0224   -0.0203 C.3       1 <0>         0.0823
      8 H2          0.5805   -0.3942    0.8139 H         1 <0>         0.1685
      9 C7          0.0937    1.5268    0.0220 C.2       1 <0>         0.4540
     10 O1         -0.9239    2.1866    0.0289 O.2       1 <0>        -0.5036
     11 N1          1.2940    2.1391    0.0466 N.am      1 <0>        -0.6909
     12 C8          1.3696    3.6016    0.0878 C.3       1 <0>         0.1285
     13 H3          0.5514    4.0242   -0.4953 H         1 <0>         0.1188
     14 C9          1.2613    4.0772    1.5379 C.3       1 <0>        -0.1082
     15 C10        -0.0744    3.6188    2.1266 C.3       1 <0>        -0.1348
     16 C11         2.4098    3.4840    2.3564 C.3       1 <0>        -0.1503
     17 C12         2.6853    4.0531   -0.4921 C.2       1 <0>         0.5122
     18 O2          3.4814    3.2339   -0.8996 O.2       1 <0>        -0.5479
     19 N2          2.9772    5.3672   -0.5578 N.am      1 <0>        -0.6797
     20 C13         4.2562    5.8061   -1.1215 C.3       1 <0>         0.1324
     21 H4          5.0326    5.0851   -0.8657 H         1 <0>         0.1118
     22 C14         4.1351    5.9067   -2.6434 C.3       1 <0>        -0.1001
     23 C15         3.7680    4.5369   -3.2175 C.3       1 <0>        -0.1278
     24 C16         3.0453    6.9188   -3.0025 C.3       1 <0>        -0.1529
     25 C17         4.6177    7.1554   -0.5561 C.2       1 <0>         0.5177
     26 O3          3.8797    7.6971    0.2394 O.2       1 <0>        -0.5589
     27 N3          5.7612    7.7602   -0.9344 N.am      1 <0>        -0.6580
     28 C18         6.1127    9.0719   -0.3847 C.3       1 <0>         0.1244
     29 H5          5.7774    9.1337    0.6506 H         1 <0>         0.0884
     30 C19         7.6302    9.2587   -0.4414 C.3       1 <0>        -0.1520
     31 C20         8.2940    8.2552    0.4661 C.2       1 <0>         0.4632
     32 O4          7.6223    7.4712    1.0938 O.co2     1 <0>        -0.6385
     33 C21         5.4430   10.1519   -1.1948 C.2       1 <0>         0.4642
     34 O5          4.7440    9.8562   -2.1349 O.co2     1 <0>        -0.6422
     35 O6         -1.3497   -0.3870    0.0772 O.3       1 <0>        -0.5084
     36 H6          2.9823   -2.8821   -1.6768 H         1 <0>         0.0705
     37 H7          3.1283   -2.7020   -3.4416 H         1 <0>         0.0704
     38 H8          2.8513   -1.2704   -2.4208 H         1 <0>         0.0575
     39 H9          0.7632   -1.9670   -3.5623 H         1 <0>         0.0626
     40 H10        -0.2722   -4.1407   -2.9776 H         1 <0>         0.0602
     41 H11         1.3083   -4.3798   -3.7607 H         1 <0>         0.0665
     42 H12         1.1532   -4.5579   -1.9965 H         1 <0>         0.0659
     43 H13         0.8433   -2.4749   -0.5554 H         1 <0>         0.1186
     44 H14        -0.6488   -2.2257   -1.4933 H         1 <0>         0.0986
     45 H15         2.1079    1.6114    0.0371 H         1 <0>         0.4138
     46 H16         1.3175    5.1654    1.5685 H         1 <0>         0.0978
     47 H17        -0.8926    4.0415    1.5435 H         1 <0>         0.0638
     48 H18        -0.1307    2.5307    2.0960 H         1 <0>         0.0468
     49 H19        -0.1516    3.9577    3.1597 H         1 <0>         0.0580
     50 H20         3.3614    3.8106    1.9370 H         1 <0>         0.0643
     51 H21         2.3326    3.8229    3.3895 H         1 <0>         0.0663
     52 H22         2.3536    2.3959    2.3258 H         1 <0>         0.0498
     53 H23         2.3404    6.0224   -0.2319 H         1 <0>         0.4127
     54 H24         5.0867    6.2333   -3.0628 H         1 <0>         0.0888
     55 H25         3.6818    4.6085   -4.3017 H         1 <0>         0.0453
     56 H26         4.5444    3.8158   -2.9616 H         1 <0>         0.0609
     57 H27         2.8164    4.2103   -2.7981 H         1 <0>         0.0415
     58 H28         3.3068    7.8948   -2.5935 H         1 <0>         0.0911
     59 H29         2.9590    6.9905   -4.0867 H         1 <0>         0.0510
     60 H30         2.0937    6.5923   -2.5831 H         1 <0>         0.0409
     61 H31         6.3515    7.3270   -1.5707 H         1 <0>         0.3879
     62 H32         7.9767    9.1089   -1.4639 H         1 <0>         0.0602
     63 H33         7.8845   10.2673   -0.1156 H         1 <0>         0.0884
     64 H34        -1.9125   -0.0521   -0.6343 H         1 <0>         0.3777
     65 H35        -1.0646   -0.0309   -2.4528 H         1 <0>         0.4322
     66 H36         0.0890    1.1670   -2.4570 H         1 <0>         0.4405
     67 O7          9.6315    8.2325    0.5771 O.co2     1 <0>        -0.7861
     68 O8          5.6232   11.4423   -0.8721 O.co2     1 <0>        -0.7700
     69 N4         -0.0645    0.1603   -2.4823 N.4       1 <0>        -0.6478
     70 H37         0.3229   -0.2158   -3.3556 H         1 <0>         0.4442
@<TRIPOS>BOND
     1    1    2 1
     2    1   36 1
     3    1   37 1
     4    1   38 1
     5    2    3 1
     6    2    4 1
     7    2   39 1
     8    3   40 1
     9    3   41 1
    10    3   42 1
    11    4    5 1
    12    4   43 1
    13    4   44 1
    14    5    6 1
    15    5    7 1
    16    5   69 1
    17    7    8 1
    18    7    9 1
    19    7   35 1
    20    9   10 2
    21    9   11 am
    22   11   12 1
    23   11   45 1
    24   12   13 1
    25   12   14 1
    26   12   17 1
    27   14   15 1
    28   14   16 1
    29   14   46 1
    30   15   47 1
    31   15   48 1
    32   15   49 1
    33   16   50 1
    34   16   51 1
    35   16   52 1
    36   17   18 2
    37   17   19 am
    38   19   20 1
    39   19   53 1
    40   20   21 1
    41   20   22 1
    42   20   25 1
    43   22   23 1
    44   22   24 1
    45   22   54 1
    46   23   55 1
    47   23   56 1
    48   23   57 1
    49   24   58 1
    50   24   59 1
    51   24   60 1
    52   25   26 2
    53   25   27 am
    54   27   28 1
    55   27   61 1
    56   28   29 1
    57   28   30 1
    58   28   33 1
    59   30   31 1
    60   30   62 1
    61   30   63 1
    62   31   32 2
    63   31   67 1
    64   33   34 2
    65   33   68 1
    66   35   64 1
    67   65   69 1
    68   66   69 1
    69   69   70 1
@<TRIPOS>MOLECULE
ZINC01542895
   46    46     0     0     0
SMALL
USER_CHARGES

@<TRIPOS>ATOM
      1 C1         -1.4921   -0.2802   -0.1168 C.3       1 <0>        -0.1480
      2 C2          0.0168   -0.0902    0.0502 C.3       1 <0>        -0.0946
      3 C3          0.4965   -0.8703    1.2758 C.3       1 <0>        -0.1503
      4 C4          0.7370   -0.6066   -1.1970 C.3       1 <0>        -0.1084
      5 C5          2.2304   -0.2918   -1.0907 C.3       1 <0>         0.0678
      6 H1          2.6270   -0.7186   -0.1695 H         1 <0>         0.0947
      7 C6          2.9543   -0.8853   -2.2717 C.2       1 <0>         0.4976
      8 O1          3.4188   -0.1561   -3.1314 O.co2     1 <0>        -0.7136
      9 O2          3.0754   -2.0947   -2.3676 O.co2     1 <0>        -0.6706
     10 N1          2.4237    1.1604   -1.0789 N.am      1 <0>        -0.6768
     11 C7          3.5233    1.6892   -0.5064 C.2       1 <0>         0.4501
     12 O3          4.3528    0.9629   -0.0011 O.2       1 <0>        -0.5167
     13 C8          3.7222    3.1829   -0.4943 C.3       1 <0>         0.0771
     14 H2          2.8536    3.6614   -0.0419 H         1 <0>         0.1637
     15 C9          3.8924    3.6865   -1.9290 C.3       1 <0>         0.0050
     16 H3          2.9682    3.5231   -2.4834 H         1 <0>         0.1563
     17 C10         4.2180    5.1813   -1.9096 C.3       1 <0>        -0.0899
     18 C11         4.2645    5.7037   -3.3224 C.ar      1 <0>        -0.1239
     19 C12         5.4532    5.6842   -4.0277 C.ar      1 <0>        -0.1395
     20 C13         5.4959    6.1633   -5.3236 C.ar      1 <0>        -0.1080
     21 C14         4.3497    6.6615   -5.9144 C.ar      1 <0>        -0.1065
     22 C15         3.1608    6.6802   -5.2094 C.ar      1 <0>        -0.1069
     23 C16         3.1172    6.1971   -3.9150 C.ar      1 <0>        -0.1039
     24 N2          4.9886    2.9549   -2.5779 N.4       1 <0>        -0.6381
     25 O4          4.8906    3.5018    0.2642 O.3       1 <0>        -0.5140
     26 H4         -1.8485    0.3439   -0.9363 H         1 <0>         0.0522
     27 H5         -1.7043   -1.3262   -0.3379 H         1 <0>         0.0571
     28 H6         -1.9986    0.0063    0.8049 H         1 <0>         0.0532
     29 H7          0.2370    0.9689    0.1845 H         1 <0>         0.0619
     30 H8          0.2764   -1.9293    1.1415 H         1 <0>         0.0580
     31 H9          1.5715   -0.7349    1.3948 H         1 <0>         0.0554
     32 H10        -0.0165   -0.5023    2.1644 H         1 <0>         0.0512
     33 H11         0.5977   -1.6848   -1.2767 H         1 <0>         0.0865
     34 H12         0.3253   -0.1207   -2.0817 H         1 <0>         0.0633
     35 H13         1.7603    1.7412   -1.4830 H         1 <0>         0.3944
     36 H14         3.4484    5.7136   -1.3505 H         1 <0>         0.1229
     37 H15         5.1859    5.3362   -1.4329 H         1 <0>         0.1051
     38 H16         6.3487    5.2949   -3.5661 H         1 <0>         0.1226
     39 H17         6.4247    6.1488   -5.8744 H         1 <0>         0.1304
     40 H18         4.3832    7.0365   -6.9267 H         1 <0>         0.1298
     41 H19         2.2654    7.0697   -5.6709 H         1 <0>         0.1308
     42 H20         2.1875    6.2082   -3.3654 H         1 <0>         0.1303
     43 H21         4.7738    1.9691   -2.5907 H         1 <0>         0.4538
     44 H22         5.1008    3.2870   -3.5240 H         1 <0>         0.4364
     45 H23         5.7035    3.1085   -0.0817 H         1 <0>         0.3783
     46 H24         5.8440    3.1062   -2.0647 H         1 <0>         0.4236
@<TRIPOS>BOND
     1    1    2 1
     2    1   26 1
     3    1   27 1
     4    1   28 1
     5    2    3 1
     6    2    4 1
     7    2   29 1
     8    3   30 1
     9    3   31 1
    10    3   32 1
    11    4    5 1
    12    4   33 1
    13    4   34 1
    14    5    6 1
    15    5    7 1
    16    5   10 1
    17    7    8 2
    18    7    9 1
    19   10   11 am
    20   10   35 1
    21   11   12 2
    22   11   13 1
    23   13   14 1
    24   13   15 1
    25   13   25 1
    26   15   16 1
    27   15   17 1
    28   15   24 1
    29   17   18 1
    30   17   36 1
    31   17   37 1
    32   18   23 ar
    33   18   19 ar
    34   19   20 ar
    35   19   38 1
    36   20   21 ar
    37   20   39 1
    38   21   22 ar
    39   21   40 1
    40   22   23 ar
    41   22   41 1
    42   23   42 1
    43   24   43 1
    44   24   44 1
    45   24   46 1
    46   25   45 1
@<TRIPOS>MOLECULE
ZINC01542895
   45    45     0     0     0
SMALL
USER_CHARGES

@<TRIPOS>ATOM
      1 C1          0.6528   -0.2592    1.3564 C.3       1 <0>        -0.1445
      2 C2          0.0386   -0.0894   -0.0345 C.3       1 <0>        -0.0966
      3 C3          0.8796   -0.8522   -1.0600 C.3       1 <0>        -0.1471
      4 C4         -1.3882   -0.6419   -0.0329 C.3       1 <0>        -0.1047
      5 C5         -2.0504   -0.3483   -1.3805 C.3       1 <0>         0.0724
      6 H1         -1.4402   -0.7627   -2.1831 H         1 <0>         0.0844
      7 C6         -3.4197   -0.9765   -1.4149 C.2       1 <0>         0.4903
      8 O1         -4.4145   -0.2719   -1.3899 O.co2     1 <0>        -0.6843
      9 O2         -3.5329   -2.1893   -1.4677 O.co2     1 <0>        -0.6968
     10 N1         -2.1732    1.1006   -1.5589 N.am      1 <0>        -0.6848
     11 C7         -2.2403    1.6236   -2.7993 C.2       1 <0>         0.4808
     12 O3         -2.1991    0.8947   -3.7678 O.2       1 <0>        -0.5425
     13 C8         -2.3666    3.1140   -2.9828 C.3       1 <0>         0.0531
     14 H2         -1.5529    3.6150   -2.4584 H         1 <0>         0.1189
     15 C9         -3.7065    3.5861   -2.4146 C.3       1 <0>         0.0778
     16 H3         -3.7206    3.4261   -1.3365 H         1 <0>         0.0933
     17 C10        -3.8900    5.0758   -2.7116 C.3       1 <0>        -0.0675
     18 C11        -5.1496    5.5690   -2.0473 C.ar      1 <0>        -0.0627
     19 C12        -6.3538    5.5169   -2.7241 C.ar      1 <0>        -0.0897
     20 C13        -7.5092    5.9693   -2.1148 C.ar      1 <0>        -0.1228
     21 C14        -7.4604    6.4734   -0.8286 C.ar      1 <0>        -0.1293
     22 C15        -6.2564    6.5247   -0.1515 C.ar      1 <0>        -0.1239
     23 C16        -5.1017    6.0683   -0.7592 C.ar      1 <0>        -0.1216
     24 N2         -4.7978    2.8247   -3.0370 N.3       1 <0>        -0.8349
     25 O4         -2.3018    3.4298   -4.3750 O.3       1 <0>        -0.5371
     26 H4          1.6967    0.0535    1.3333 H         1 <0>         0.0492
     27 H5          0.1057    0.3539    2.0726 H         1 <0>         0.0514
     28 H6          0.5937   -1.3060    1.6544 H         1 <0>         0.0539
     29 H7          0.0183    0.9685   -0.2960 H         1 <0>         0.0646
     30 H8          0.8999   -1.9102   -0.7985 H         1 <0>         0.0544
     31 H9          0.4420   -0.7313   -2.0510 H         1 <0>         0.0576
     32 H10         1.8961   -0.4587   -1.0612 H         1 <0>         0.0469
     33 H11        -1.3606   -1.7191    0.1314 H         1 <0>         0.0795
     34 H12        -1.9606   -0.1674    0.7642 H         1 <0>         0.0604
     35 H13        -2.2061    1.6836   -0.7844 H         1 <0>         0.3898
     36 H14        -3.0347    5.6310   -2.3264 H         1 <0>         0.0744
     37 H15        -3.9648    5.2250   -3.7887 H         1 <0>         0.0776
     38 H16        -6.3919    5.1230   -3.7290 H         1 <0>         0.1198
     39 H17        -8.4499    5.9293   -2.6438 H         1 <0>         0.1166
     40 H18        -8.3630    6.8275   -0.3528 H         1 <0>         0.1149
     41 H19        -6.2182    6.9188    0.8533 H         1 <0>         0.1159
     42 H20        -4.1616    6.1049   -0.2288 H         1 <0>         0.1168
     43 H21        -4.8061    2.9566   -4.0373 H         1 <0>         0.3280
     44 H22        -2.9976    3.0171   -4.9047 H         1 <0>         0.3769
     45 H23        -4.7354    1.8455   -2.8019 H         1 <0>         0.3711
@<TRIPOS>BOND
     1    1    2 1
     2    1   26 1
     3    1   27 1
     4    1   28 1
     5    2    3 1
     6    2    4 1
     7    2   29 1
     8    3   30 1
     9    3   31 1
    10    3   32 1
    11    4    5 1
    12    4   33 1
    13    4   34 1
    14    5    6 1
    15    5    7 1
    16    5   10 1
    17    7    8 2
    18    7    9 1
    19   10   11 am
    20   10   35 1
    21   11   12 2
    22   11   13 1
    23   13   14 1
    24   13   15 1
    25   13   25 1
    26   15   16 1
    27   15   17 1
    28   15   24 1
    29   17   18 1
    30   17   36 1
    31   17   37 1
    32   18   23 ar
    33   18   19 ar
    34   19   20 ar
    35   19   38 1
    36   20   21 ar
    37   20   39 1
    38   21   22 ar
    39   21   40 1
    40   22   23 ar
    41   22   41 1
    42   23   42 1
    43   24   43 1
    44   24   45 1
    45   25   44 1
@<TRIPOS>MOLECULE
ZINC06020153
   38    38     0     0     0
SMALL
USER_CHARGES
(2S)-2-[[(2R)-2-benzyl-4-(hydroxyamino)-4-oxo-butanoyl]amino]propanoic acid
@<TRIPOS>ATOM
      1 C1         -5.6720    7.8357   -1.6245 C.3       1 <0>        -0.1338
      2 C2         -6.0443    6.4031   -2.0117 C.3       1 <0>         0.1040
      3 H1         -6.6185    5.9140   -1.2110 H         1 <0>         0.0838
      4 C3         -6.8536    6.4205   -3.2828 C.2       1 <0>         0.4649
      5 O1         -6.4519    5.8391   -4.2628 O.co2     1 <0>        -0.6384
      6 O2         -8.0209    7.0818   -3.3262 O.co2     1 <0>        -0.7584
      7 N1         -4.8234    5.6209   -2.2209 N.am      1 <0>        -0.7175
      8 C4         -4.2073    5.0399   -1.1723 C.2       1 <0>         0.5189
      9 O3         -4.6637    5.1647   -0.0556 O.2       1 <0>        -0.5385
     10 C5         -2.9515    4.2353   -1.3874 C.3       1 <0>        -0.0834
     11 H2         -3.1797    3.4024   -2.0688 H         1 <0>         0.1062
     12 C6         -2.4592    3.6897   -0.0454 C.3       1 <0>        -0.0736
     13 C7         -1.2751    2.7861   -0.2745 C.ar      1 <0>        -0.0718
     14 C8         -1.4698    1.4379   -0.5101 C.ar      1 <0>        -0.1160
     15 C9         -0.3833    0.6082   -0.7153 C.ar      1 <0>        -0.1173
     16 C10         0.8972    1.1284   -0.6954 C.ar      1 <0>        -0.1296
     17 C11         1.0916    2.4775   -0.4650 C.ar      1 <0>        -0.1195
     18 C12         0.0055    3.3063   -0.2546 C.ar      1 <0>        -0.1204
     19 C13        -1.8721    5.1290   -2.0015 C.3       1 <0>        -0.1256
     20 C14        -1.6481    6.3272   -1.1155 C.2       1 <0>         0.5145
     21 O4         -2.3492    6.5004   -0.1411 O.2       1 <0>        -0.4901
     22 N2         -0.6687    7.2064   -1.4059 N.am      1 <0>        -0.6046
     23 O5         -0.4583    8.3323   -0.5734 O.3       1 <0>        -0.3500
     24 H3         -5.0813    7.8230   -0.6967 H         1 <0>         0.0511
     25 H4         -6.5887    8.4231   -1.4675 H         1 <0>         0.0667
     26 H5         -5.0784    8.2910   -2.4309 H         1 <0>         0.0425
     27 H6         -4.4095    5.5077   -3.2338 H         1 <0>         0.4158
     28 H7         -2.1618    4.5265    0.6037 H         1 <0>         0.0970
     29 H8         -3.2670    3.1203    0.4375 H         1 <0>         0.0838
     30 H9         -2.4705    1.0322   -0.5301 H         1 <0>         0.1234
     31 H10        -0.5353   -0.4458   -0.8956 H         1 <0>         0.1200
     32 H11         1.7457    0.4810   -0.8602 H         1 <0>         0.1179
     33 H12         2.0921    2.8841   -0.4498 H         1 <0>         0.1183
     34 H13         0.1573    4.3604   -0.0749 H         1 <0>         0.1169
     35 H14        -0.9347    4.5610   -2.0940 H         1 <0>         0.1064
     36 H15        -2.1970    5.4649   -2.9973 H         1 <0>         0.1059
     37 H16        -0.0328    7.0493   -2.2896 H         1 <0>         0.4198
     38 H17         0.3410    9.0499   -0.8104 H         1 <0>         0.4107
@<TRIPOS>BOND
     1    1    2 1
     2    1   24 1
     3    1   25 1
     4    1   26 1
     5    2    3 1
     6    2    4 1
     7    2    7 1
     8    4    5 2
     9    4    6 1
    10    7    8 am
    11    7   27 1
    12    8    9 2
    13    8   10 1
    14   10   11 1
    15   10   12 1
    16   10   19 1
    17   12   13 1
    18   12   28 1
    19   12   29 1
    20   13   18 ar
    21   13   14 ar
    22   14   15 ar
    23   14   30 1
    24   15   16 ar
    25   15   31 1
    26   16   17 ar
    27   16   32 1
    28   17   18 ar
    29   17   33 1
    30   18   34 1
    31   19   20 1
    32   19   35 1
    33   19   36 1
    34   20   21 2
    35   20   22 am
    36   22   23 1
    37   22   37 1
    38   23   38 1
