@<TRIPOS>MOLECULE
ZINC06020153
   38    38     0     0     0
SMALL
USER_CHARGES
(2S)-2-[[(2R)-2-benzyl-4-(hydroxyamino)-4-oxo-butanoyl]amino]propanoic acid
@<TRIPOS>ATOM
      1 C1         -5.6720    7.8357   -1.6245 C.3       1 <0>        -0.1338
      2 C2         -6.0443    6.4031   -2.0117 C.3       1 <0>         0.1040
      3 H1         -6.6185    5.9140   -1.2110 H         1 <0>         0.0838
      4 C3         -6.8536    6.4205   -3.2828 C.2       1 <0>         0.4649
      5 O1         -6.4519    5.8391   -4.2628 O.co2     1 <0>        -0.6384
      6 O2         -8.0209    7.0818   -3.3262 O.co2     1 <0>        -0.7584
      7 N1         -4.8234    5.6209   -2.2209 N.am      1 <0>        -0.7175
      8 C4         -4.2073    5.0399   -1.1723 C.2       1 <0>         0.5189
      9 O3         -4.6637    5.1647   -0.0556 O.2       1 <0>        -0.5385
     10 C5         -2.9515    4.2353   -1.3874 C.3       1 <0>        -0.0834
     11 H2         -3.1797    3.4024   -2.0688 H         1 <0>         0.1062
     12 C6         -2.4592    3.6897   -0.0454 C.3       1 <0>        -0.0736
     13 C7         -1.2751    2.7861   -0.2745 C.ar      1 <0>        -0.0718
     14 C8         -1.4698    1.4379   -0.5101 C.ar      1 <0>        -0.1160
     15 C9         -0.3833    0.6082   -0.7153 C.ar      1 <0>        -0.1173
     16 C10         0.8972    1.1284   -0.6954 C.ar      1 <0>        -0.1296
     17 C11         1.0916    2.4775   -0.4650 C.ar      1 <0>        -0.1195
     18 C12         0.0055    3.3063   -0.2546 C.ar      1 <0>        -0.1204
     19 C13        -1.8721    5.1290   -2.0015 C.3       1 <0>        -0.1256
     20 C14        -1.6481    6.3272   -1.1155 C.2       1 <0>         0.5145
     21 O4         -2.3492    6.5004   -0.1411 O.2       1 <0>        -0.4901
     22 N2         -0.6687    7.2064   -1.4059 N.am      1 <0>        -0.6046
     23 O5         -0.4583    8.3323   -0.5734 O.3       1 <0>        -0.3500
     24 H3         -5.0813    7.8230   -0.6967 H         1 <0>         0.0511
     25 H4         -6.5887    8.4231   -1.4675 H         1 <0>         0.0667
     26 H5         -5.0784    8.2910   -2.4309 H         1 <0>         0.0425
     27 H6         -4.4095    5.5077   -3.2338 H         1 <0>         0.4158
     28 H7         -2.1618    4.5265    0.6037 H         1 <0>         0.0970
     29 H8         -3.2670    3.1203    0.4375 H         1 <0>         0.0838
     30 H9         -2.4705    1.0322   -0.5301 H         1 <0>         0.1234
     31 H10        -0.5353   -0.4458   -0.8956 H         1 <0>         0.1200
     32 H11         1.7457    0.4810   -0.8602 H         1 <0>         0.1179
     33 H12         2.0921    2.8841   -0.4498 H         1 <0>         0.1183
     34 H13         0.1573    4.3604   -0.0749 H         1 <0>         0.1169
     35 H14        -0.9347    4.5610   -2.0940 H         1 <0>         0.1064
     36 H15        -2.1970    5.4649   -2.9973 H         1 <0>         0.1059
     37 H16        -0.0328    7.0493   -2.2896 H         1 <0>         0.4198
     38 H17         0.3410    9.0499   -0.8104 H         1 <0>         0.4107
@<TRIPOS>BOND
     1    1    2 1
     2    1   24 1
     3    1   25 1
     4    1   26 1
     5    2    3 1
     6    2    4 1
     7    2    7 1
     8    4    5 2
     9    4    6 1
    10    7    8 am
    11    7   27 1
    12    8    9 2
    13    8   10 1
    14   10   11 1
    15   10   12 1
    16   10   19 1
    17   12   13 1
    18   12   28 1
    19   12   29 1
    20   13   18 ar
    21   13   14 ar
    22   14   15 ar
    23   14   30 1
    24   15   16 ar
    25   15   31 1
    26   16   17 ar
    27   16   32 1
    28   17   18 ar
    29   17   33 1
    30   18   34 1
    31   19   20 1
    32   19   35 1
    33   19   36 1
    34   20   21 2
    35   20   22 am
    36   22   23 1
    37   22   37 1
    38   23   38 1
@<TRIPOS>MOLECULE
ZINC01542895
   46    46     0     0     0
SMALL
USER_CHARGES

@<TRIPOS>ATOM
      1 C1         -1.4921   -0.2802   -0.1168 C.3       1 <0>        -0.1480
      2 C2          0.0168   -0.0902    0.0502 C.3       1 <0>        -0.0946
      3 C3          0.4965   -0.8703    1.2758 C.3       1 <0>        -0.1503
      4 C4          0.7370   -0.6066   -1.1970 C.3       1 <0>        -0.1084
      5 C5          2.2304   -0.2918   -1.0907 C.3       1 <0>         0.0678
      6 H1          2.6270   -0.7186   -0.1695 H         1 <0>         0.0947
      7 C6          2.9543   -0.8853   -2.2717 C.2       1 <0>         0.4976
      8 O1          3.4188   -0.1561   -3.1314 O.co2     1 <0>        -0.7136
      9 O2          3.0754   -2.0947   -2.3676 O.co2     1 <0>        -0.6706
     10 N1          2.4237    1.1604   -1.0789 N.am      1 <0>        -0.6768
     11 C7          3.5233    1.6892   -0.5064 C.2       1 <0>         0.4501
     12 O3          4.3528    0.9629   -0.0011 O.2       1 <0>        -0.5167
     13 C8          3.7222    3.1829   -0.4943 C.3       1 <0>         0.0771
     14 H2          2.8536    3.6614   -0.0419 H         1 <0>         0.1637
     15 C9          3.8924    3.6865   -1.9290 C.3       1 <0>         0.0050
     16 H3          2.9682    3.5231   -2.4834 H         1 <0>         0.1563
     17 C10         4.2180    5.1813   -1.9096 C.3       1 <0>        -0.0899
     18 C11         4.2645    5.7037   -3.3224 C.ar      1 <0>        -0.1239
     19 C12         5.4532    5.6842   -4.0277 C.ar      1 <0>        -0.1395
     20 C13         5.4959    6.1633   -5.3236 C.ar      1 <0>        -0.1080
     21 C14         4.3497    6.6615   -5.9144 C.ar      1 <0>        -0.1065
     22 C15         3.1608    6.6802   -5.2094 C.ar      1 <0>        -0.1069
     23 C16         3.1172    6.1971   -3.9150 C.ar      1 <0>        -0.1039
     24 N2          4.9886    2.9549   -2.5779 N.4       1 <0>        -0.6381
     25 O4          4.8906    3.5018    0.2642 O.3       1 <0>        -0.5140
     26 H4         -1.8485    0.3439   -0.9363 H         1 <0>         0.0522
     27 H5         -1.7043   -1.3262   -0.3379 H         1 <0>         0.0571
     28 H6         -1.9986    0.0063    0.8049 H         1 <0>         0.0532
     29 H7          0.2370    0.9689    0.1845 H         1 <0>         0.0619
     30 H8          0.2764   -1.9293    1.1415 H         1 <0>         0.0580
     31 H9          1.5715   -0.7349    1.3948 H         1 <0>         0.0554
     32 H10        -0.0165   -0.5023    2.1644 H         1 <0>         0.0512
     33 H11         0.5977   -1.6848   -1.2767 H         1 <0>         0.0865
     34 H12         0.3253   -0.1207   -2.0817 H         1 <0>         0.0633
     35 H13         1.7603    1.7412   -1.4830 H         1 <0>         0.3944
     36 H14         3.4484    5.7136   -1.3505 H         1 <0>         0.1229
     37 H15         5.1859    5.3362   -1.4329 H         1 <0>         0.1051
     38 H16         6.3487    5.2949   -3.5661 H         1 <0>         0.1226
     39 H17         6.4247    6.1488   -5.8744 H         1 <0>         0.1304
     40 H18         4.3832    7.0365   -6.9267 H         1 <0>         0.1298
     41 H19         2.2654    7.0697   -5.6709 H         1 <0>         0.1308
     42 H20         2.1875    6.2082   -3.3654 H         1 <0>         0.1303
     43 H21         4.7738    1.9691   -2.5907 H         1 <0>         0.4538
     44 H22         5.1008    3.2870   -3.5240 H         1 <0>         0.4364
     45 H23         5.7035    3.1085   -0.0817 H         1 <0>         0.3783
     46 H24         5.8440    3.1062   -2.0647 H         1 <0>         0.4236
@<TRIPOS>BOND
     1    1    2 1
     2    1   26 1
     3    1   27 1
     4    1   28 1
     5    2    3 1
     6    2    4 1
     7    2   29 1
     8    3   30 1
     9    3   31 1
    10    3   32 1
    11    4    5 1
    12    4   33 1
    13    4   34 1
    14    5    6 1
    15    5    7 1
    16    5   10 1
    17    7    8 2
    18    7    9 1
    19   10   11 am
    20   10   35 1
    21   11   12 2
    22   11   13 1
    23   13   14 1
    24   13   15 1
    25   13   25 1
    26   15   16 1
    27   15   17 1
    28   15   24 1
    29   17   18 1
    30   17   36 1
    31   17   37 1
    32   18   23 ar
    33   18   19 ar
    34   19   20 ar
    35   19   38 1
    36   20   21 ar
    37   20   39 1
    38   21   22 ar
    39   21   40 1
    40   22   23 ar
    41   22   41 1
    42   23   42 1
    43   24   43 1
    44   24   44 1
    45   24   46 1
    46   25   45 1
@<TRIPOS>MOLECULE
ZINC01542895
   45    45     0     0     0
SMALL
USER_CHARGES

@<TRIPOS>ATOM
      1 C1          0.6528   -0.2592    1.3564 C.3       1 <0>        -0.1445
      2 C2          0.0386   -0.0894   -0.0345 C.3       1 <0>        -0.0966
      3 C3          0.8796   -0.8522   -1.0600 C.3       1 <0>        -0.1471
      4 C4         -1.3882   -0.6419   -0.0329 C.3       1 <0>        -0.1047
      5 C5         -2.0504   -0.3483   -1.3805 C.3       1 <0>         0.0724
      6 H1         -1.4402   -0.7627   -2.1831 H         1 <0>         0.0844
      7 C6         -3.4197   -0.9765   -1.4149 C.2       1 <0>         0.4903
      8 O1         -4.4145   -0.2719   -1.3899 O.co2     1 <0>        -0.6843
      9 O2         -3.5329   -2.1893   -1.4677 O.co2     1 <0>        -0.6968
     10 N1         -2.1732    1.1006   -1.5589 N.am      1 <0>        -0.6848
     11 C7         -2.2403    1.6236   -2.7993 C.2       1 <0>         0.4808
     12 O3         -2.1991    0.8947   -3.7678 O.2       1 <0>        -0.5425
     13 C8         -2.3666    3.1140   -2.9828 C.3       1 <0>         0.0531
     14 H2         -1.5529    3.6150   -2.4584 H         1 <0>         0.1189
     15 C9         -3.7065    3.5861   -2.4146 C.3       1 <0>         0.0778
     16 H3         -3.7206    3.4261   -1.3365 H         1 <0>         0.0933
     17 C10        -3.8900    5.0758   -2.7116 C.3       1 <0>        -0.0675
     18 C11        -5.1496    5.5690   -2.0473 C.ar      1 <0>        -0.0627
     19 C12        -6.3538    5.5169   -2.7241 C.ar      1 <0>        -0.0897
     20 C13        -7.5092    5.9693   -2.1148 C.ar      1 <0>        -0.1228
     21 C14        -7.4604    6.4734   -0.8286 C.ar      1 <0>        -0.1293
     22 C15        -6.2564    6.5247   -0.1515 C.ar      1 <0>        -0.1239
     23 C16        -5.1017    6.0683   -0.7592 C.ar      1 <0>        -0.1216
     24 N2         -4.7978    2.8247   -3.0370 N.3       1 <0>        -0.8349
     25 O4         -2.3018    3.4298   -4.3750 O.3       1 <0>        -0.5371
     26 H4          1.6967    0.0535    1.3333 H         1 <0>         0.0492
     27 H5          0.1057    0.3539    2.0726 H         1 <0>         0.0514
     28 H6          0.5937   -1.3060    1.6544 H         1 <0>         0.0539
     29 H7          0.0183    0.9685   -0.2960 H         1 <0>         0.0646
     30 H8          0.8999   -1.9102   -0.7985 H         1 <0>         0.0544
     31 H9          0.4420   -0.7313   -2.0510 H         1 <0>         0.0576
     32 H10         1.8961   -0.4587   -1.0612 H         1 <0>         0.0469
     33 H11        -1.3606   -1.7191    0.1314 H         1 <0>         0.0795
     34 H12        -1.9606   -0.1674    0.7642 H         1 <0>         0.0604
     35 H13        -2.2061    1.6836   -0.7844 H         1 <0>         0.3898
     36 H14        -3.0347    5.6310   -2.3264 H         1 <0>         0.0744
     37 H15        -3.9648    5.2250   -3.7887 H         1 <0>         0.0776
     38 H16        -6.3919    5.1230   -3.7290 H         1 <0>         0.1198
     39 H17        -8.4499    5.9293   -2.6438 H         1 <0>         0.1166
     40 H18        -8.3630    6.8275   -0.3528 H         1 <0>         0.1149
     41 H19        -6.2182    6.9188    0.8533 H         1 <0>         0.1159
     42 H20        -4.1616    6.1049   -0.2288 H         1 <0>         0.1168
     43 H21        -4.8061    2.9566   -4.0373 H         1 <0>         0.3280
     44 H22        -2.9976    3.0171   -4.9047 H         1 <0>         0.3769
     45 H23        -4.7354    1.8455   -2.8019 H         1 <0>         0.3711
@<TRIPOS>BOND
     1    1    2 1
     2    1   26 1
     3    1   27 1
     4    1   28 1
     5    2    3 1
     6    2    4 1
     7    2   29 1
     8    3   30 1
     9    3   31 1
    10    3   32 1
    11    4    5 1
    12    4   33 1
    13    4   34 1
    14    5    6 1
    15    5    7 1
    16    5   10 1
    17    7    8 2
    18    7    9 1
    19   10   11 am
    20   10   35 1
    21   11   12 2
    22   11   13 1
    23   13   14 1
    24   13   15 1
    25   13   25 1
    26   15   16 1
    27   15   17 1
    28   15   24 1
    29   17   18 1
    30   17   36 1
    31   17   37 1
    32   18   23 ar
    33   18   19 ar
    34   19   20 ar
    35   19   38 1
    36   20   21 ar
    37   20   39 1
    38   21   22 ar
    39   21   40 1
    40   22   23 ar
    41   22   41 1
    42   23   42 1
    43   24   43 1
    44   24   45 1
    45   25   44 1
@<TRIPOS>MOLECULE
ZINC05138737
   15    14     0     0     0
SMALL
USER_CHARGES
2-aminopropane-1-thiol
@<TRIPOS>ATOM
      1 C1          0.0786    1.1786    2.5031 C.3       1 <0>        -0.1803
      2 C2         -0.7288    1.5792    1.2668 C.3       1 <0>         0.0562
      3 H1         -0.8222    2.6646    1.2299 H         1 <0>         0.1522
      4 C3         -0.0127    1.0858    0.0080 C.3       1 <0>        -0.1146
      5 S1         -0.8901    1.6867   -1.4616 S.3       1 <0>        -0.2533
      6 H2          1.0707    1.6270    2.4501 H         1 <0>         0.1099
      7 H3         -0.4316    1.5301    3.3999 H         1 <0>         0.0916
      8 H4          0.1720    0.0932    2.5400 H         1 <0>         0.0848
      9 H5          0.0021   -0.0041    0.0020 H         1 <0>         0.1101
     10 H6          1.0099    1.4631    0.0003 H         1 <0>         0.1314
     11 H7         -0.1764    1.1953   -2.4903 H         1 <0>         0.1371
     12 H8         -2.0096   -0.0321    1.3086 H         1 <0>         0.4358
     13 H9         -2.5595    1.2854    2.1616 H         1 <0>         0.4413
     14 N1         -2.0761    0.9843    1.3170 N.4       1 <0>        -0.6461
     15 H10        -2.6116    1.2919    0.4968 H         1 <0>         0.4441
@<TRIPOS>BOND
     1    1    2 1
     2    1    6 1
     3    1    7 1
     4    1    8 1
     5    2    3 1
     6    2    4 1
     7    2   14 1
     8    4    5 1
     9    4    9 1
    10    4   10 1
    11    5   11 1
    12   12   14 1
    13   13   14 1
    14   14   15 1
@<TRIPOS>MOLECULE
ZINC13551840
   14    13     0     0     0
SMALL
USER_CHARGES
[(1R)-1-aminoethyl]phosphinic acid
@<TRIPOS>ATOM
      1 C1         -2.1836    1.2116   -1.6600 C.3       1 <0>        -0.1865
      2 C2         -0.8989    2.0197   -1.4671 C.3       1 <0>        -0.5699
      3 H1         -1.2054    3.0739   -1.5361 H         1 <0>         0.1469
      4 N1         -0.0398    1.8631   -2.6484 N.4       1 <0>        -0.6690
      5 P1         -0.0172    1.4158    0.0098 P.3       1 <0>         2.3469
      6 H2          0.1462    0.3333    0.1176 H         1 <0>        -0.4915
      7 O1          1.3713    1.9281   -0.0007 O.2       1 <0>        -1.0842
      8 O2         -0.7708    1.9350    1.3344 O.3       1 <0>        -1.0914
      9 H3         -2.8268    1.3289   -0.7754 H         1 <0>         0.1143
     10 H4         -1.9320    0.1489   -1.7921 H         1 <0>         0.0706
     11 H5         -2.7156    1.5760   -2.5512 H         1 <0>         0.0737
     12 H6          0.8839    2.4441   -2.5096 H         1 <0>         0.4694
     13 H7         -0.5718    2.2275   -3.5396 H         1 <0>         0.4359
     14 H8          0.2118    0.8004   -2.7805 H         1 <0>         0.4348
@<TRIPOS>BOND
     1    1    2 1
     2    1    9 1
     3    1   10 1
     4    1   11 1
     5    2    3 1
     6    2    4 1
     7    2    5 1
     8    4   12 1
     9    4   13 1
    10    4   14 1
    11    5    6 1
    12    5    7 2
    13    5    8 1
@<TRIPOS>MOLECULE
ZINC29312777
   14    13     0     0     0
SMALL
USER_CHARGES
[(1S)-1-aminoethyl]phosphinic acid
@<TRIPOS>ATOM
      1 C1         -2.3292   -0.4538   -1.3715 C.3       1 <0>        -0.1650
      2 C2         -1.7082   -0.6351    0.0150 C.3       1 <0>        -0.5678
      3 H1         -2.4450   -0.2223    0.7198 H         1 <0>         0.1296
      4 N1         -1.7012   -2.0616    0.3657 N.4       1 <0>        -0.6774
      5 P1          0.0021   -0.0041    0.0020 P.3       1 <0>         2.3326
      6 H2          0.6901   -0.3361    0.7935 H         1 <0>        -0.4932
      7 O1          0.6948   -0.4814   -1.2157 O.2       1 <0>        -1.0732
      8 O2         -0.0198    1.6058    0.0109 O.3       1 <0>        -1.0889
      9 H3         -2.3344    0.6144   -1.6341 H         1 <0>         0.1119
     10 H4         -3.3612   -0.8345   -1.3637 H         1 <0>         0.0625
     11 H5         -1.7384   -1.0109   -2.1135 H         1 <0>         0.0928
     12 H6         -1.2547   -2.1919    1.3625 H         1 <0>         0.4440
     13 H7         -1.1104   -2.6187   -0.3764 H         1 <0>         0.4531
     14 H8         -2.7332   -2.4423    0.3735 H         1 <0>         0.4389
@<TRIPOS>BOND
     1    1    2 1
     2    1    9 1
     3    1   10 1
     4    1   11 1
     5    2    3 1
     6    2    4 1
     7    2    5 1
     8    4   12 1
     9    4   13 1
    10    4   14 1
    11    5    6 1
    12    5    7 2
    13    5    8 1
@<TRIPOS>MOLECULE
ZINC29313822
   24    24     0     0     0
SMALL
USER_CHARGES
[(1R)-1-amino-2-phenyl-ethyl]phosphinic acid
@<TRIPOS>ATOM
      1 C1          0.0387   -2.7685   -0.0132 C.ar      1 <0>        -0.1042
      2 C2          0.0412   -2.0838    1.1877 C.ar      1 <0>        -0.1182
      3 C3          0.0229   -0.7016    1.1953 C.ar      1 <0>        -0.1059
      4 C4          0.0021   -0.0041    0.0020 C.ar      1 <0>        -0.1309
      5 C5         -0.0057   -0.6888   -1.1988 C.ar      1 <0>        -0.1170
      6 C6          0.0179   -2.0709   -1.2065 C.ar      1 <0>        -0.1078
      7 C7         -0.0184    1.5028    0.0103 C.3       1 <0>        -0.0965
      8 C8          1.4170    2.0324   -0.0006 C.3       1 <0>        -0.5711
      9 H1          1.8216    1.7964    0.9947 H         1 <0>         0.1344
     10 N1          1.3971    3.5012    0.0075 N.4       1 <0>        -0.6572
     11 P1          2.2703    1.4444   -1.5004 P.3       1 <0>         2.3644
     12 H2          2.1017    0.4079   -1.8279 H         1 <0>        -0.4876
     13 O1          1.7912    2.2103   -2.6728 O.2       1 <0>        -1.0881
     14 O2          3.8575    1.6566   -1.3329 O.3       1 <0>        -1.1074
     15 H3          0.0527   -3.8484   -0.0191 H         1 <0>         0.1313
     16 H4          0.0571   -2.6288    2.1200 H         1 <0>         0.1295
     17 H5          0.0244   -0.1667    2.1335 H         1 <0>         0.1220
     18 H6         -0.0264   -0.1439   -2.1310 H         1 <0>         0.1333
     19 H7          0.0156   -2.6059   -2.1447 H         1 <0>         0.1346
     20 H8         -0.5505    1.8672   -0.8809 H         1 <0>         0.1002
     21 H9         -0.5333    1.8575    0.9153 H         1 <0>         0.0864
     22 H10         2.4291    3.8819   -0.0003 H         1 <0>         0.4643
     23 H11         0.8823    3.8559    0.9125 H         1 <0>         0.4348
     24 H12         0.8651    3.8656   -0.8836 H         1 <0>         0.4567
@<TRIPOS>BOND
     1    1    6 ar
     2    1    2 ar
     3    1   15 1
     4    2    3 ar
     5    2   16 1
     6    3    4 ar
     7    3   17 1
     8    4    5 ar
     9    4    7 1
    10    5    6 ar
    11    5   18 1
    12    6   19 1
    13    7    8 1
    14    7   20 1
    15    7   21 1
    16    8    9 1
    17    8   10 1
    18    8   11 1
    19   10   22 1
    20   10   23 1
    21   10   24 1
    22   11   12 1
    23   11   13 2
    24   11   14 1
@<TRIPOS>MOLECULE
ZINC29313830
   24    24     0     0     0
SMALL
USER_CHARGES
[(1S)-1-amino-2-phenyl-ethyl]phosphinic acid
@<TRIPOS>ATOM
      1 C1          1.3661    0.2502    4.7837 C.ar      1 <0>        -0.1144
      2 C2          1.4374    1.5581    4.3419 C.ar      1 <0>        -0.1046
      3 C3          0.7003    1.9575    3.2427 C.ar      1 <0>        -0.1058
      4 C4         -0.1080    1.0490    2.5854 C.ar      1 <0>        -0.1065
      5 C5         -0.1833   -0.2577    3.0303 C.ar      1 <0>        -0.1498
      6 C6          0.5578   -0.6583    4.1263 C.ar      1 <0>        -0.1102
      7 C7         -0.9119    1.4845    1.3874 C.3       1 <0>        -0.1039
      8 C8         -0.1238    1.1892    0.1097 C.3       1 <0>        -0.5517
      9 H1          0.9049    1.5168    0.3205 H         1 <0>         0.1497
     10 N1          0.0330   -0.2633   -0.0443 N.4       1 <0>        -0.6784
     11 P1         -1.0232    1.8590   -1.3276 P.3       1 <0>         2.3284
     12 H2         -1.9644    1.3762   -1.6294 H         1 <0>        -0.4897
     13 O1         -1.4761    3.2358   -1.0282 O.2       1 <0>        -1.0660
     14 O2         -0.0478    1.8814   -2.6083 O.3       1 <0>        -1.0922
     15 H3          1.9417   -0.0618    5.6426 H         1 <0>         0.1291
     16 H4          2.0686    2.2680    4.8556 H         1 <0>         0.1313
     17 H5          0.7557    2.9794    2.8978 H         1 <0>         0.1333
     18 H6         -0.8182   -0.9664    2.5194 H         1 <0>         0.1175
     19 H7          0.5019   -1.6801    4.4717 H         1 <0>         0.1282
     20 H8         -1.8646    0.9351    1.3658 H         1 <0>         0.0864
     21 H9         -1.1126    2.5640    1.4532 H         1 <0>         0.1367
     22 H10         0.5996   -0.4756   -0.9629 H         1 <0>         0.4636
     23 H11        -0.9589   -0.7344   -0.1082 H         1 <0>         0.4333
     24 H12         0.5757   -0.6675    0.8229 H         1 <0>         0.4357
@<TRIPOS>BOND
     1    1    6 ar
     2    1    2 ar
     3    1   15 1
     4    2    3 ar
     5    2   16 1
     6    3    4 ar
     7    3   17 1
     8    4    5 ar
     9    4    7 1
    10    5    6 ar
    11    5   18 1
    12    6   19 1
    13    7    8 1
    14    7   20 1
    15    7   21 1
    16    8    9 1
    17    8   10 1
    18    8   11 1
    19   10   22 1
    20   10   23 1
    21   10   24 1
    22   11   12 1
    23   11   13 2
    24   11   14 1
@<TRIPOS>MOLECULE
ZINC29326769
   21    21     0     0     0
SMALL
USER_CHARGES
[(S)-amino(phenyl)methyl]phosphinic acid
@<TRIPOS>ATOM
      1 C1          5.0339    5.2245    1.0245 C.ar      1 <0>        -0.1032
      2 C2          4.0877    4.9983    2.0067 C.ar      1 <0>        -0.1025
      3 C3          2.8737    4.4248    1.6778 C.ar      1 <0>        -0.0707
      4 C4          2.6056    4.0780    0.3668 C.ar      1 <0>        -0.1231
      5 C5          3.5538    4.2994   -0.6144 C.ar      1 <0>        -0.1451
      6 C6          4.7662    4.8768   -0.2863 C.ar      1 <0>        -0.1059
      7 C7          1.2821    3.4528    0.0084 C.3       1 <0>        -0.5039
      8 H1          0.5556    3.9441    0.6724 H         1 <0>         0.1551
      9 N1          0.8672    3.9144   -1.3231 N.4       1 <0>        -0.6759
     10 P1          1.4507    1.6376   -0.0030 P.3       1 <0>         2.3213
     11 H2          2.0321    1.1695   -0.8109 H         1 <0>        -0.4887
     12 O1          2.2025    1.2045    1.1960 O.2       1 <0>        -1.0579
     13 O2         -0.0110    0.9628    0.0073 O.3       1 <0>        -1.0891
     14 H3          5.9821    5.6733    1.2813 H         1 <0>         0.1328
     15 H4          4.2969    5.2700    3.0308 H         1 <0>         0.1358
     16 H5          2.1345    4.2481    2.4451 H         1 <0>         0.1355
     17 H6          3.3461    4.0243   -1.6379 H         1 <0>         0.1118
     18 H7          5.5052    5.0539   -1.0537 H         1 <0>         0.1318
     19 H8         -0.0989    3.4581   -1.5848 H         1 <0>         0.4654
     20 H9          1.6243    3.6211   -2.0652 H         1 <0>         0.4338
     21 H10         0.7655    5.0097   -1.3162 H         1 <0>         0.4429
@<TRIPOS>BOND
     1    1    6 ar
     2    1    2 ar
     3    1   14 1
     4    2    3 ar
     5    2   15 1
     6    3    4 ar
     7    3   16 1
     8    4    5 ar
     9    4    7 1
    10    5    6 ar
    11    5   17 1
    12    6   18 1
    13    7    8 1
    14    7    9 1
    15    7   10 1
    16    9   19 1
    17    9   20 1
    18    9   21 1
    19   10   11 1
    20   10   12 2
    21   10   13 1
@<TRIPOS>MOLECULE
ZINC29326774
   21    21     0     0     0
SMALL
USER_CHARGES
[(R)-amino(phenyl)methyl]phosphinic acid
@<TRIPOS>ATOM
      1 C1          1.2084   -0.6789   -0.0136 C.ar      1 <0>        -0.1031
      2 C2          0.0021   -0.0041    0.0020 C.ar      1 <0>        -0.1067
      3 C3         -0.0167    1.3781    0.0096 C.ar      1 <0>        -0.1089
      4 C4          1.1709    2.0855    0.0021 C.ar      1 <0>        -0.1403
      5 C5          2.3773    1.4107   -0.0136 C.ar      1 <0>        -0.1162
      6 C6          2.3961    0.0285   -0.0212 C.ar      1 <0>        -0.1031
      7 C7          1.1505    3.5924    0.0099 C.3       1 <0>        -0.5160
      8 H1          0.2749    3.8601   -0.5997 H         1 <0>         0.1423
      9 N1          2.2708    4.1015   -0.7924 N.4       1 <0>        -0.6564
     10 P1          1.3081    4.1933    1.7238 P.3       1 <0>         2.3574
     11 H2          0.7573    3.6670    2.5173 H         1 <0>        -0.4887
     12 O1          2.7084    4.0339    2.1757 O.2       1 <0>        -1.0812
     13 O2          0.8976    5.7488    1.7869 O.3       1 <0>        -1.1002
     14 H3          1.2231   -1.7588   -0.0196 H         1 <0>         0.1340
     15 H4         -0.9258   -0.5567    0.0079 H         1 <0>         0.1348
     16 H5         -0.9592    1.9054    0.0170 H         1 <0>         0.1296
     17 H6          3.3052    1.9634   -0.0192 H         1 <0>         0.1289
     18 H7          3.3386   -0.4987   -0.0327 H         1 <0>         0.1360
     19 H8          2.2558    5.2014   -0.7867 H         1 <0>         0.4656
     20 H9          2.1757    3.7389   -1.8266 H         1 <0>         0.4380
     21 H10         3.2196    3.7454   -0.3647 H         1 <0>         0.4542
@<TRIPOS>BOND
     1    1    6 ar
     2    1    2 ar
     3    1   14 1
     4    2    3 ar
     5    2   15 1
     6    3    4 ar
     7    3   16 1
     8    4    5 ar
     9    4    7 1
    10    5    6 ar
    11    5   17 1
    12    6   18 1
    13    7    8 1
    14    7    9 1
    15    7   10 1
    16    9   19 1
    17    9   20 1
    18    9   21 1
    19   10   11 1
    20   10   12 2
    21   10   13 1
@<TRIPOS>MOLECULE
ZINC02569900
   26    25     0     0     0
SMALL
USER_CHARGES
[(1S)-1-aminohexyl]phosphonic acid
@<TRIPOS>ATOM
      1 C1         -0.0604    1.1126   -4.9886 C.3       1 <0>        -0.1495
      2 C2         -0.7766    1.6061   -3.7298 C.3       1 <0>        -0.1265
      3 C3         -0.0366    1.0992   -2.4903 C.3       1 <0>        -0.1102
      4 C4         -0.7527    1.5927   -1.2315 C.3       1 <0>        -0.1520
      5 C5         -0.0127    1.0858    0.0080 C.3       1 <0>        -0.1015
      6 C6         -0.7288    1.5792    1.2668 C.3       1 <0>        -0.5621
      7 H1         -1.7514    1.2020    1.2746 H         1 <0>         0.1152
      8 P1         -0.7536    3.4020    1.2768 P.3       1 <0>         2.1210
      9 O1          0.6284    3.9149    1.1448 O.2       1 <0>        -1.1087
     10 H2         -0.0456    0.0228   -4.9946 H         1 <0>         0.0460
     11 H3         -0.5876    1.4737   -5.8717 H         1 <0>         0.0507
     12 H4          0.9622    1.4899   -4.9964 H         1 <0>         0.0522
     13 H5         -1.7991    1.2288   -3.7221 H         1 <0>         0.0581
     14 H6         -0.7913    2.6960   -3.7239 H         1 <0>         0.0729
     15 H7          0.9860    1.4765   -2.4981 H         1 <0>         0.0596
     16 H8         -0.0218    0.0093   -2.4963 H         1 <0>         0.0431
     17 H9         -1.7753    1.2154   -1.2238 H         1 <0>         0.0546
     18 H10        -0.7675    2.6825   -1.2255 H         1 <0>         0.1408
     19 H11         0.0021   -0.0041    0.0020 H         1 <0>         0.0392
     20 H12         1.0099    1.4631    0.0003 H         1 <0>         0.0792
     21 H13        -0.0466    0.0853    2.5082 H         1 <0>         0.3932
     22 H14         0.9328    1.4290    2.4730 H         1 <0>         0.4280
     23 N1         -0.0324    1.1033    2.4750 N.4       1 <0>        -0.6077
     24 H15        -0.5087    1.4723    3.3065 H         1 <0>         0.4364
     25 O2         -1.6432    3.9335    0.0447 O.3       1 <0>        -1.1221
     26 O3         -1.3891    3.9225    2.6615 O.3       1 <0>        -1.1502
@<TRIPOS>BOND
     1    1    2 1
     2    1   10 1
     3    1   11 1
     4    1   12 1
     5    2    3 1
     6    2   13 1
     7    2   14 1
     8    3    4 1
     9    3   15 1
    10    3   16 1
    11    4    5 1
    12    4   17 1
    13    4   18 1
    14    5    6 1
    15    5   19 1
    16    5   20 1
    17    6    7 1
    18    6    8 1
    19    6   23 1
    20    8    9 2
    21    8   25 1
    22    8   26 1
    23   21   23 1
    24   22   23 1
    25   23   24 1
@<TRIPOS>MOLECULE
ZINC02569901
   26    25     0     0     0
SMALL
USER_CHARGES
[(1R)-1-aminohexyl]phosphonic acid
@<TRIPOS>ATOM
      1 C1          0.0111    1.0724    2.5063 C.3       1 <0>        -0.1495
      2 C2         -0.7288    1.5792    1.2668 C.3       1 <0>        -0.1265
      3 C3         -0.0127    1.0858    0.0080 C.3       1 <0>        -0.1102
      4 C4         -0.7527    1.5927   -1.2315 C.3       1 <0>        -0.1520
      5 C5         -0.0366    1.0992   -2.4903 C.3       1 <0>        -0.1015
      6 C6         -0.7766    1.6061   -3.7298 C.3       1 <0>        -0.5620
      7 H1         -1.7991    1.2288   -3.7221 H         1 <0>         0.1152
      8 P1         -0.8013    3.4289   -3.7198 P.3       1 <0>         2.1210
      9 O1          0.5831    3.9404   -3.6087 O.2       1 <0>        -1.1087
     10 H2          0.0259   -0.0175    2.5003 H         1 <0>         0.0460
     11 H3          1.0337    1.4497    2.4986 H         1 <0>         0.0522
     12 H4         -0.4990    1.4239    3.4031 H         1 <0>         0.0507
     13 H5         -0.7436    2.6691    1.2728 H         1 <0>         0.0729
     14 H6         -1.7514    1.2020    1.2746 H         1 <0>         0.0581
     15 H7          0.0021   -0.0041    0.0020 H         1 <0>         0.0431
     16 H8          1.0099    1.4631    0.0003 H         1 <0>         0.0596
     17 H9         -1.7753    1.2154   -1.2238 H         1 <0>         0.0546
     18 H10        -0.7675    2.6825   -1.2255 H         1 <0>         0.1408
     19 H11         0.9860    1.4765   -2.4981 H         1 <0>         0.0792
     20 H12        -0.0218    0.0093   -2.4963 H         1 <0>         0.0393
     21 H13         0.8617    1.4689   -4.9690 H         1 <0>         0.4280
     22 H14        -0.1183    0.1256   -5.0000 H         1 <0>         0.3932
     23 N1         -0.1034    1.1432   -4.9562 N.4       1 <0>        -0.6077
     24 H15        -0.5954    1.5210   -5.7744 H         1 <0>         0.4364
     25 O2         -1.4631    3.9641   -5.0864 O.3       1 <0>        -1.1502
     26 O3         -1.6672    3.9470   -2.4653 O.3       1 <0>        -1.1221
@<TRIPOS>BOND
     1    1    2 1
     2    1   10 1
     3    1   11 1
     4    1   12 1
     5    2    3 1
     6    2   13 1
     7    2   14 1
     8    3    4 1
     9    3   15 1
    10    3   16 1
    11    4    5 1
    12    4   17 1
    13    4   18 1
    14    5    6 1
    15    5   19 1
    16    5   20 1
    17    6    7 1
    18    6    8 1
    19    6   23 1
    20    8    9 2
    21    8   25 1
    22    8   26 1
    23   21   23 1
    24   22   23 1
    25   23   24 1
@<TRIPOS>MOLECULE
ZINC00403014
   24    23     0     0     0
SMALL
USER_CHARGES
2-amino-4-methyl-pentane-1-thiol
@<TRIPOS>ATOM
      1 C1          4.9305    5.5719   -0.4792 C.3       1 <0>        -0.1556
      2 C2          3.4532    5.1975   -0.3446 C.3       1 <0>        -0.1033
      3 C3          2.7090    5.5905   -1.6223 C.3       1 <0>        -0.1654
      4 C4          3.3275    3.6886   -0.1248 C.3       1 <0>        -0.1385
      5 C5          1.8658    3.3340    0.1553 C.3       1 <0>         0.0538
      6 H1          1.2432    3.6814   -0.6692 H         1 <0>         0.1548
      7 C6          1.7268    1.8167    0.2951 C.3       1 <0>        -0.1134
      8 S1         -0.0252    1.3845    0.4798 S.3       1 <0>        -0.2514
      9 H2          5.3845    4.9799   -1.2738 H         1 <0>         0.0656
     10 H3          5.0163    6.6313   -0.7211 H         1 <0>         0.0687
     11 H4          5.4433    5.3715    0.4615 H         1 <0>         0.0614
     12 H5          3.0204    5.7257    0.5050 H         1 <0>         0.0656
     13 H6          1.6565    5.3237   -1.5264 H         1 <0>         0.0542
     14 H7          2.7985    6.6655   -1.7789 H         1 <0>         0.0711
     15 H8          3.1418    5.0623   -2.4719 H         1 <0>         0.0696
     16 H9          3.9425    3.3927    0.7251 H         1 <0>         0.0942
     17 H10         3.6644    3.1620   -1.0178 H         1 <0>         0.1167
     18 H11         2.2784    1.4807    1.1732 H         1 <0>         0.1107
     19 H12         2.1290    1.3315   -0.5942 H         1 <0>         0.1318
     20 H13        -0.0196    0.0442    0.5924 H         1 <0>         0.1375
     21 H14         2.0563    3.7521    2.1621 H         1 <0>         0.4357
     22 H15         1.3626    4.9815    1.2827 H         1 <0>         0.4394
     23 N1          1.4121    3.9713    1.4041 N.4       1 <0>        -0.6464
     24 H16         0.4790    3.6166    1.6443 H         1 <0>         0.4433
@<TRIPOS>BOND
     1    1    2 1
     2    1    9 1
     3    1   10 1
     4    1   11 1
     5    2    3 1
     6    2    4 1
     7    2   12 1
     8    3   13 1
     9    3   14 1
    10    3   15 1
    11    4    5 1
    12    4   16 1
    13    4   17 1
    14    5    6 1
    15    5    7 1
    16    5   23 1
    17    7    8 1
    18    7   18 1
    19    7   19 1
    20    8   20 1
    21   21   23 1
    22   22   23 1
    23   23   24 1
