@<TRIPOS>MOLECULE
ZINC24987226
   25    24     0     0     0
SMALL
USER_CHARGES

@<TRIPOS>ATOM
      1 C1         -0.0187    1.5258    0.0104 C.3       1 <0>        -0.1560
      2 C2          0.0021   -0.0041    0.0020 C.3       1 <0>        -0.1025
      3 C3          0.7421   -0.5109    1.2415 C.3       1 <0>        -0.1672
      4 C4         -1.4333   -0.5336    0.0129 C.3       1 <0>        -0.1425
      5 C5         -1.4157   -2.0577   -0.1212 C.3       1 <0>         0.0209
      6 H1         -0.7891   -2.4841    0.6622 H         1 <0>         0.1702
      7 C6         -2.8192   -2.5900    0.0125 C.2       1 <0>         0.5132
      8 O1         -3.4526   -2.8857   -0.9785 O.2       1 <0>        -0.5019
      9 N1         -3.3704   -2.7375    1.2335 N.am      1 <0>        -0.5713
     10 O2         -4.6892   -3.2376    1.3592 O.3       1 <0>        -0.2950
     11 N2         -0.8750   -2.4273   -1.4361 N.4       1 <0>        -0.6200
     12 H2          1.0039    1.9031    0.0027 H         1 <0>         0.0715
     13 H3         -0.5459    1.8868   -0.8726 H         1 <0>         0.0640
     14 H4         -0.5289    1.8773    0.9072 H         1 <0>         0.0671
     15 H5          0.5123   -0.3556   -0.8948 H         1 <0>         0.0694
     16 H6          1.7647   -0.1336    1.2338 H         1 <0>         0.0755
     17 H7          0.2319   -0.1594    2.1383 H         1 <0>         0.0714
     18 H8          0.7568   -1.6008    1.2356 H         1 <0>         0.0530
     19 H9         -1.9156   -0.2570    0.9504 H         1 <0>         0.1195
     20 H10        -1.9862   -0.1019   -0.8214 H         1 <0>         0.1042
     21 H11        -2.8638   -2.5010    2.0262 H         1 <0>         0.4188
     22 H12        -4.9977   -3.3080    2.2730 H         1 <0>         0.4067
     23 H13        -0.8634   -3.4324   -1.5245 H         1 <0>         0.4430
     24 H14        -1.4550   -2.0326   -2.1613 H         1 <0>         0.4445
     25 H15         0.0647   -2.0709   -1.5257 H         1 <0>         0.4437
@<TRIPOS>BOND
     1    1    2 1
     2    1   12 1
     3    1   13 1
     4    1   14 1
     5    2    3 1
     6    2    4 1
     7    2   15 1
     8    3   16 1
     9    3   17 1
    10    3   18 1
    11    4    5 1
    12    4   19 1
    13    4   20 1
    14    5    6 1
    15    5    7 1
    16    5   11 1
    17    7    8 2
    18    7    9 am
    19    9   10 1
    20    9   21 1
    21   10   22 1
    22   11   23 1
    23   11   24 1
    24   11   25 1
@<TRIPOS>MOLECULE
ZINC00403009
   25    24     0     0     0
SMALL
USER_CHARGES
(2R)-2-amino-4-methyl-pentanehydroxamic acid
@<TRIPOS>ATOM
      1 C1          5.6368    3.1517   -0.7684 C.3       1 <0>        -0.1672
      2 C2          4.7090    4.1653   -1.4412 C.3       1 <0>        -0.1019
      3 C3          5.1582    4.3868   -2.8869 C.3       1 <0>        -0.1561
      4 C4          3.2754    3.6310   -1.4288 C.3       1 <0>        -0.1436
      5 C5          2.7746    3.5476    0.0145 C.3       1 <0>         0.0253
      6 H1          3.4622    2.9404    0.6031 H         1 <0>         0.1681
      7 C6          1.4051    2.9190    0.0356 C.2       1 <0>         0.5148
      8 O1          0.4185    3.6179    0.1302 O.2       1 <0>        -0.5016
      9 N1          1.2768    1.5802   -0.0508 N.am      1 <0>        -0.5719
     10 O2         -0.0099    0.9895   -0.0310 O.3       1 <0>        -0.2951
     11 H2          5.5965    2.2068   -1.3102 H         1 <0>         0.0716
     12 H3          6.6582    3.5324   -0.7772 H         1 <0>         0.0754
     13 H4          5.3168    2.9939    0.2615 H         1 <0>         0.0533
     14 H5          4.7493    5.1103   -0.8994 H         1 <0>         0.0685
     15 H6          5.1113    3.4433   -3.4306 H         1 <0>         0.0674
     16 H7          4.5015    5.1142   -3.3641 H         1 <0>         0.0641
     17 H8          6.1820    4.7608   -2.8960 H         1 <0>         0.0716
     18 H9          3.2536    2.6385   -1.8789 H         1 <0>         0.1192
     19 H10         2.6325    4.3024   -1.9982 H         1 <0>         0.1041
     20 H11         2.0660    1.0212   -0.1265 H         1 <0>         0.4185
     21 H12        -0.0010    0.0248   -0.0980 H         1 <0>         0.4066
     22 H13         2.0703    5.4817    0.0580 H         1 <0>         0.4466
     23 H14         2.4356    4.8659    1.5591 H         1 <0>         0.4449
     24 N2          2.7261    4.9060    0.5836 N.4       1 <0>        -0.6294
     25 H15         3.6605    5.3282    0.5294 H         1 <0>         0.4471
@<TRIPOS>BOND
     1    1    2 1
     2    1   11 1
     3    1   12 1
     4    1   13 1
     5    2    3 1
     6    2    4 1
     7    2   14 1
     8    3   15 1
     9    3   16 1
    10    3   17 1
    11    4    5 1
    12    4   18 1
    13    4   19 1
    14    5    6 1
    15    5    7 1
    16    5   24 1
    17    7    8 2
    18    7    9 am
    19    9   10 1
    20    9   20 1
    21   10   21 1
    22   22   24 1
    23   23   24 1
    24   24   25 1
