@<TRIPOS>MOLECULE
ZINC05842416
   31    33     0     0     0
SMALL
USER_CHARGES
5,6,7-trihydroxy-2-(4-hydroxyphenyl)chromen-4-one
@<TRIPOS>ATOM
      1 C1         -2.2905    8.4297    0.0646 C.ar      1 <0>        -0.0346
      2 C2         -2.2200    9.8052    0.0772 C.ar      1 <0>        -0.1658
      3 C3         -0.9837   10.4398    0.0688 C.ar      1 <0>         0.1866
      4 C4          0.1865    9.6902    0.0535 C.ar      1 <0>        -0.2203
      5 C5          0.1253    8.3143    0.0461 C.ar      1 <0>        -0.0347
      6 C6         -1.1160    7.6720    0.0545 C.ar      1 <0>        -0.1206
      7 C7         -1.1864    6.1986    0.0468 C.2       1 <0>         0.2142
      8 C8         -2.4091    5.6021    0.0553 C.2       1 <0>        -0.3193
      9 C9         -2.4966    4.1901    0.0485 C.2       1 <0>         0.4268
     10 O1         -3.5767    3.6218    0.0553 O.2       1 <0>        -0.4598
     11 C10        -1.2336    3.4326    0.0323 C.ar      1 <0>        -0.2710
     12 C11        -0.0229    4.1474    0.0245 C.ar      1 <0>         0.1963
     13 O2         -0.0417    5.4978    0.0324 O.3       1 <0>        -0.2162
     14 C12         1.1780    3.4555    0.0094 C.ar      1 <0>        -0.1982
     15 C13         1.1813    2.0695    0.0019 C.ar      1 <0>         0.2353
     16 C14        -0.0164    1.3573    0.0095 C.ar      1 <0>        -0.0670
     17 C15        -1.2263    2.0330    0.0189 C.ar      1 <0>         0.1963
     18 O3         -2.3960    1.3424    0.0203 O.3       1 <0>        -0.4562
     19 O4          0.0021   -0.0041    0.0020 O.3       1 <0>        -0.5041
     20 O5          2.3627    1.3994   -0.0134 O.3       1 <0>        -0.4914
     21 O6         -0.9189   11.7958    0.0751 O.3       1 <0>        -0.5038
     22 H1         -3.2517    7.9374    0.0666 H         1 <0>         0.1425
     23 H2         -3.1270   10.3914    0.0891 H         1 <0>         0.1400
     24 H3          1.1452   10.1874    0.0470 H         1 <0>         0.1361
     25 H4          1.0352    7.7326    0.0335 H         1 <0>         0.1378
     26 H5         -3.3068    6.2024    0.0668 H         1 <0>         0.1608
     27 H6          2.1124    3.9971    0.0037 H         1 <0>         0.1569
     28 H7         -2.3853    0.2425    0.0097 H         1 <0>         0.4174
     29 H8         -0.9429   -0.5670    0.0080 H         1 <0>         0.4250
     30 H9          2.3711    0.2994   -0.0194 H         1 <0>         0.4506
     31 H10         0.0589   12.2997    0.0685 H         1 <0>         0.4404
@<TRIPOS>BOND
     1    1    6 ar
     2    1    2 ar
     3    1   22 1
     4    2    3 ar
     5    2   23 1
     6    3    4 ar
     7    3   21 1
     8    4    5 ar
     9    4   24 1
    10    5    6 ar
    11    5   25 1
    12    6    7 1
    13    7   13 1
    14    7    8 2
    15    8    9 1
    16    8   26 1
    17    9   10 2
    18    9   11 1
    19   11   17 ar
    20   11   12 ar
    21   12   13 1
    22   12   14 ar
    23   14   15 ar
    24   14   27 1
    25   15   16 ar
    26   15   20 1
    27   16   17 ar
    28   16   19 1
    29   17   18 1
    30   18   28 1
    31   19   29 1
    32   20   30 1
    33   21   31 1
