@<TRIPOS>MOLECULE
ZINC02003680
   52    53     0     0     0
SMALL
USER_CHARGES

@<TRIPOS>ATOM
      1 C1         -2.8165    1.1642    1.4065 C.3       1 <0>        -0.1875
      2 C2         -2.7146   -0.3619    1.3665 C.3       1 <0>        -0.0188
      3 N1         -2.0186   -0.7743    0.1404 N.4       1 <0>        -0.3886
      4 C3         -0.6312   -0.2930    0.1794 C.3       1 <0>        -0.0160
      5 C4          0.0456   -0.5785   -1.1627 C.3       1 <0>        -0.1890
      6 C5         -2.0259   -2.2400    0.0425 C.3       1 <0>        -0.0058
      7 C6         -3.4631   -2.7318   -0.1398 C.3       1 <0>         0.0280
      8 O1         -3.9776   -2.2496   -1.3827 O.3       1 <0>        -0.3604
      9 C7         -5.2664   -2.5112   -1.6514 C.2       1 <0>         0.4820
     10 O2         -5.9601   -3.0473   -0.8200 O.2       1 <0>        -0.4701
     11 C8         -5.8482   -2.1362   -2.9900 C.3       1 <0>         0.0449
     12 C9         -5.1392   -2.9244   -4.0932 C.3       1 <0>        -0.1469
     13 C10        -7.3197   -2.4610   -3.0070 C.ar      1 <0>        -0.0913
     14 C11        -8.2400   -1.4815   -3.3303 C.ar      1 <0>        -0.1015
     15 C12        -9.5898   -1.7795   -3.3459 C.ar      1 <0>        -0.1207
     16 C13       -10.0192   -3.0570   -3.0386 C.ar      1 <0>        -0.1045
     17 C14        -9.0988   -4.0367   -2.7162 C.ar      1 <0>        -0.1195
     18 C15        -7.7487   -3.7398   -2.7048 C.ar      1 <0>        -0.0838
     19 C16        -5.6569   -0.6600   -3.2251 C.ar      1 <0>        -0.0827
     20 C17        -6.0947    0.2524   -2.2834 C.ar      1 <0>        -0.1162
     21 C18        -5.9192    1.6065   -2.4990 C.ar      1 <0>        -0.1175
     22 C19        -5.3056    2.0482   -3.6562 C.ar      1 <0>        -0.1106
     23 C20        -4.8669    1.1359   -4.5976 C.ar      1 <0>        -0.1125
     24 C21        -5.0386   -0.2184   -4.3799 C.ar      1 <0>        -0.1044
     25 H1         -3.3330    1.4702    2.3163 H         1 <0>         0.1073
     26 H2         -1.8156    1.5956    1.3942 H         1 <0>         0.0821
     27 H3         -3.3736    1.5140    0.5373 H         1 <0>         0.0808
     28 H4         -2.1575   -0.7117    2.2357 H         1 <0>         0.1327
     29 H5         -3.7155   -0.7933    1.3788 H         1 <0>         0.1272
     30 H6         -0.6242    0.7804    0.3688 H         1 <0>         0.1340
     31 H7         -0.0910   -0.8059    0.9751 H         1 <0>         0.1306
     32 H8         -0.0023   -1.6468   -1.3738 H         1 <0>         0.0799
     33 H9         -0.4668   -0.0288   -1.9522 H         1 <0>         0.0819
     34 H10         1.0881   -0.2633   -1.1183 H         1 <0>         0.1072
     35 H11        -1.4246   -2.5500   -0.8121 H         1 <0>         0.1454
     36 H12        -1.6086   -2.6671    0.9544 H         1 <0>         0.1511
     37 H13        -3.4770   -3.8217   -0.1392 H         1 <0>         0.1151
     38 H14        -4.0808   -2.3601    0.6778 H         1 <0>         0.0934
     39 H15        -5.2776   -3.9921   -3.9231 H         1 <0>         0.0716
     40 H16        -5.5600   -2.6531   -5.0614 H         1 <0>         0.0870
     41 H17        -4.0749   -2.6894   -4.0809 H         1 <0>         0.0764
     42 H18        -7.9046   -0.4834   -3.5704 H         1 <0>         0.1271
     43 H19       -10.3089   -1.0141   -3.5978 H         1 <0>         0.1267
     44 H20       -11.0738   -3.2896   -3.0501 H         1 <0>         0.1270
     45 H21        -9.4343   -5.0347   -2.4758 H         1 <0>         0.1268
     46 H22        -7.0294   -4.5062   -2.4565 H         1 <0>         0.1182
     47 H23        -6.5742   -0.0928   -1.3793 H         1 <0>         0.1182
     48 H24        -6.2619    2.3193   -1.7636 H         1 <0>         0.1264
     49 H25        -5.1691    3.1062   -3.8250 H         1 <0>         0.1276
     50 H26        -4.3878    1.4810   -5.5018 H         1 <0>         0.1297
     51 H27        -4.6926   -0.9314   -5.1137 H         1 <0>         0.1336
     52 H28        -2.4884   -0.3813   -0.6614 H         1 <0>         0.4285
@<TRIPOS>BOND
     1    1    2 1
     2    1   25 1
     3    1   26 1
     4    1   27 1
     5    2    3 1
     6    2   28 1
     7    2   29 1
     8    3    4 1
     9    3    6 1
    10    3   52 1
    11    4    5 1
    12    4   30 1
    13    4   31 1
    14    5   32 1
    15    5   33 1
    16    5   34 1
    17    6    7 1
    18    6   35 1
    19    6   36 1
    20    7    8 1
    21    7   37 1
    22    7   38 1
    23    8    9 1
    24    9   10 2
    25    9   11 1
    26   11   12 1
    27   11   13 1
    28   11   19 1
    29   12   39 1
    30   12   40 1
    31   12   41 1
    32   13   18 ar
    33   13   14 ar
    34   14   15 ar
    35   14   42 1
    36   15   16 ar
    37   15   43 1
    38   16   17 ar
    39   16   44 1
    40   17   18 ar
    41   17   45 1
    42   18   46 1
    43   19   24 ar
    44   19   20 ar
    45   20   21 ar
    46   20   47 1
    47   21   22 ar
    48   21   48 1
    49   22   23 ar
    50   22   49 1
    51   23   24 ar
    52   23   50 1
    53   24   51 1
