@<TRIPOS>MOLECULE
ZINC22446634
   59    62     0     0     0
SMALL
USER_CHARGES

@<TRIPOS>ATOM
      1 C1         -5.7904   -9.4624    0.1488 C.3       1 <0>        -0.2050
      2 C2         -4.6728   -8.5276    0.5338 C.2       1 <0>         0.4027
      3 O1         -3.8569   -8.8674    1.3652 O.2       1 <0>        -0.4667
      4 C3         -4.5712   -7.2073   -0.0964 C.ar      1 <0>        -0.1396
      5 C4         -5.5155   -6.8112   -1.0520 C.ar      1 <0>        -0.0779
      6 C5         -5.4162   -5.5704   -1.6372 C.ar      1 <0>        -0.0710
      7 C6         -4.3812   -4.7066   -1.2866 C.ar      1 <0>        -0.1171
      8 C7         -3.4312   -5.0924   -0.3379 C.ar      1 <0>         0.1719
      9 C8         -3.5329   -6.3371    0.2603 C.ar      1 <0>        -0.1064
     10 N1         -2.3765   -4.2583    0.0263 N.pl3     1 <0>        -0.5650
     11 C9         -2.3869   -2.8706   -0.0822 C.ar      1 <0>         0.1874
     12 C10        -1.5549   -2.1267    0.7484 C.ar      1 <0>        -0.1649
     13 C11        -1.5366   -0.7478    0.6637 C.ar      1 <0>        -0.0767
     14 C12        -2.3451   -0.0960   -0.2485 C.ar      1 <0>        -0.1289
     15 C13        -3.1773   -0.8250   -1.0776 C.ar      1 <0>        -0.0517
     16 C14        -3.2040   -2.2101   -0.9952 C.ar      1 <0>        -0.1561
     17 S1         -4.2823   -3.1208   -2.0482 S.3       1 <0>         0.0454
     18 C15        -1.1674   -4.8881    0.5625 C.3       1 <0>         0.1211
     19 C16        -1.2855   -5.0064    2.0833 C.3       1 <0>        -0.1855
     20 C17        -0.0226   -5.6641    2.6433 C.3       1 <0>        -0.0059
     21 N2         -0.1361   -5.7778    4.1035 N.4       1 <0>        -0.3858
     22 C18        -0.1728   -4.4348    4.6974 C.3       1 <0>        -0.0063
     23 C19        -0.3099   -4.5525    6.2170 C.3       1 <0>         0.0268
     24 N3          0.8291   -5.3123    6.7514 N.3       1 <0>        -0.5291
     25 C20         0.8934   -6.6505    6.1472 C.3       1 <0>         0.0206
     26 C21         1.0206   -6.5156    4.6282 C.3       1 <0>        -0.0003
     27 C22         0.7634   -5.3987    8.2163 C.3       1 <0>         0.0536
     28 C23         2.0768   -5.9715    8.7528 C.3       1 <0>         0.0764
     29 O2          3.1423   -5.0606    8.4752 O.3       1 <0>        -0.5626
     30 H1         -5.7020  -10.3881    0.7175 H         1 <0>         0.0893
     31 H2         -6.7491   -8.9919    0.3673 H         1 <0>         0.0990
     32 H3         -5.7285   -9.6833   -0.9167 H         1 <0>         0.0997
     33 H4         -6.3188   -7.4780   -1.3288 H         1 <0>         0.1468
     34 H5         -6.1449   -5.2641   -2.3731 H         1 <0>         0.1460
     35 H6         -2.8073   -6.6394    1.0009 H         1 <0>         0.1357
     36 H7         -0.9204   -2.6295    1.4632 H         1 <0>         0.1246
     37 H8         -0.8887   -0.1772    1.3126 H         1 <0>         0.1334
     38 H9         -2.3269    0.9819   -0.3134 H         1 <0>         0.1372
     39 H10        -3.8086   -0.3154   -1.7905 H         1 <0>         0.1387
     40 H11        -1.0521   -5.8813    0.1286 H         1 <0>         0.0957
     41 H12        -0.2988   -4.2790    0.3118 H         1 <0>         0.0981
     42 H13        -1.4008   -4.0132    2.5172 H         1 <0>         0.0973
     43 H14        -2.1540   -5.6155    2.3340 H         1 <0>         0.0960
     44 H15         0.0927   -6.6574    2.2094 H         1 <0>         0.1360
     45 H16         0.8459   -5.0551    2.3926 H         1 <0>         0.1355
     46 H17         0.7487   -3.9053    4.4557 H         1 <0>         0.1400
     47 H18        -1.0240   -3.8839    4.2974 H         1 <0>         0.1340
     48 H19        -0.3223   -3.5564    6.6593 H         1 <0>         0.1241
     49 H20        -1.2381   -5.0700    6.4594 H         1 <0>         0.0593
     50 H21         1.7590   -7.1850    6.5385 H         1 <0>         0.1241
     51 H22        -0.0150   -7.2026    6.3884 H         1 <0>         0.0601
     52 H23         1.0542   -7.5072    4.1769 H         1 <0>         0.1364
     53 H24         1.9360   -5.9754    4.3868 H         1 <0>         0.1393
     54 H25         0.6042   -4.4038    8.6322 H         1 <0>         0.0972
     55 H26        -0.0618   -6.0496    8.5053 H         1 <0>         0.0612
     56 H27         1.9959   -6.1187    9.8298 H         1 <0>         0.0597
     57 H28         2.2806   -6.9271    8.2698 H         1 <0>         0.0459
     58 H29         4.0070   -5.3598    8.7880 H         1 <0>         0.3847
     59 H30        -0.9842   -6.2718    4.3373 H         1 <0>         0.4214
@<TRIPOS>BOND
     1    1    2 1
     2    1   30 1
     3    1   31 1
     4    1   32 1
     5    2    3 2
     6    2    4 1
     7    4    9 ar
     8    4    5 ar
     9    5    6 ar
    10    5   33 1
    11    6    7 ar
    12    6   34 1
    13    7   17 1
    14    7    8 ar
    15    8    9 ar
    16    8   10 1
    17    9   35 1
    18   10   11 1
    19   10   18 1
    20   11   16 ar
    21   11   12 ar
    22   12   13 ar
    23   12   36 1
    24   13   14 ar
    25   13   37 1
    26   14   15 ar
    27   14   38 1
    28   15   16 ar
    29   15   39 1
    30   16   17 1
    31   18   19 1
    32   18   40 1
    33   18   41 1
    34   19   20 1
    35   19   42 1
    36   19   43 1
    37   20   21 1
    38   20   44 1
    39   20   45 1
    40   21   26 1
    41   21   22 1
    42   21   59 1
    43   22   23 1
    44   22   46 1
    45   22   47 1
    46   23   24 1
    47   23   48 1
    48   23   49 1
    49   24   25 1
    50   24   27 1
    51   25   26 1
    52   25   50 1
    53   25   51 1
    54   26   52 1
    55   26   53 1
    56   27   28 1
    57   27   54 1
    58   27   55 1
    59   28   29 1
    60   28   56 1
    61   28   57 1
    62   29   58 1
@<TRIPOS>MOLECULE
ZINC22446634
   58    61     0     0     0
SMALL
USER_CHARGES

@<TRIPOS>ATOM
      1 C1         -5.7903   -9.4624    0.1487 C.3       1 <0>        -0.2005
      2 C2         -4.6727   -8.5277    0.5337 C.2       1 <0>         0.3939
      3 O1         -3.8569   -8.8675    1.3650 O.2       1 <0>        -0.4517
      4 C3         -4.5712   -7.2073   -0.0965 C.ar      1 <0>        -0.1368
      5 C4         -5.5155   -6.8112   -1.0522 C.ar      1 <0>        -0.0886
      6 C5         -5.4162   -5.5703   -1.6373 C.ar      1 <0>        -0.0749
      7 C6         -4.3812   -4.7066   -1.2866 C.ar      1 <0>        -0.1230
      8 C7         -3.4312   -5.0924   -0.3379 C.ar      1 <0>         0.1813
      9 C8         -3.5328   -6.3371    0.2602 C.ar      1 <0>        -0.1014
     10 N1         -2.3765   -4.2583    0.0263 N.pl3     1 <0>        -0.5641
     11 C9         -2.3869   -2.8706   -0.0822 C.ar      1 <0>         0.1971
     12 C10        -1.5549   -2.1267    0.7484 C.ar      1 <0>        -0.1604
     13 C11        -1.5367   -0.7478    0.6638 C.ar      1 <0>        -0.0761
     14 C12        -2.3451   -0.0960   -0.2484 C.ar      1 <0>        -0.1383
     15 C13        -3.1773   -0.8250   -1.0775 C.ar      1 <0>        -0.0566
     16 C14        -3.2040   -2.2101   -0.9952 C.ar      1 <0>        -0.1600
     17 S1         -4.2823   -3.1208   -2.0482 S.3       1 <0>         0.0275
     18 C15        -1.1674   -4.8881    0.5625 C.3       1 <0>         0.1133
     19 C16        -1.2855   -5.0064    2.0833 C.3       1 <0>        -0.1450
     20 C17        -0.0226   -5.6641    2.6433 C.3       1 <0>         0.0589
     21 N2         -0.1361   -5.7778    4.1035 N.3       1 <0>        -0.5380
     22 C18        -0.1453   -4.4512    4.7358 C.3       1 <0>         0.0557
     23 C19        -0.3443   -4.6098    6.2450 C.3       1 <0>         0.0574
     24 N3          0.7339   -5.4441    6.7937 N.3       1 <0>        -0.5305
     25 C20         0.7432   -6.7706    6.1613 C.3       1 <0>         0.0540
     26 C21         0.9422   -6.6120    4.6521 C.3       1 <0>         0.0592
     27 C22         0.6205   -5.5577    8.2539 C.3       1 <0>         0.0540
     28 C23         1.8834   -6.2154    8.8138 C.3       1 <0>         0.0794
     29 O2          3.0060   -5.3608    8.5872 O.3       1 <0>        -0.5598
     30 H1         -5.7019  -10.3881    0.7173 H         1 <0>         0.0866
     31 H2         -6.7490   -8.9920    0.3671 H         1 <0>         0.0956
     32 H3         -5.7284   -9.6833   -0.9169 H         1 <0>         0.0957
     33 H4         -6.3187   -7.4780   -1.3290 H         1 <0>         0.1421
     34 H5         -6.1449   -5.2641   -2.3732 H         1 <0>         0.1408
     35 H6         -2.8073   -6.6395    1.0009 H         1 <0>         0.1463
     36 H7         -0.9205   -2.6296    1.4633 H         1 <0>         0.1328
     37 H8         -0.8888   -0.1773    1.3127 H         1 <0>         0.1312
     38 H9         -2.3269    0.9819   -0.3133 H         1 <0>         0.1324
     39 H10        -3.8086   -0.3153   -1.7904 H         1 <0>         0.1337
     40 H11        -1.0521   -5.8813    0.1286 H         1 <0>         0.0863
     41 H12        -0.2988   -4.2790    0.3118 H         1 <0>         0.0866
     42 H13        -1.4008   -4.0132    2.5172 H         1 <0>         0.0735
     43 H14        -2.1540   -5.6155    2.3340 H         1 <0>         0.0814
     44 H15         0.0927   -6.6574    2.2094 H         1 <0>         0.0785
     45 H16         0.8459   -5.0551    2.3926 H         1 <0>         0.0381
     46 H17         0.8039   -3.9507    4.5448 H         1 <0>         0.0440
     47 H18        -0.9599   -3.8568    4.3221 H         1 <0>         0.0796
     48 H19        -0.3225   -3.6289    6.7198 H         1 <0>         0.0796
     49 H20        -1.3059   -5.0858    6.4370 H         1 <0>         0.0416
     50 H21         1.5578   -7.3650    6.5751 H         1 <0>         0.0801
     51 H22        -0.2060   -7.2712    6.3524 H         1 <0>         0.0420
     52 H23         0.9204   -7.5930    4.1774 H         1 <0>         0.0800
     53 H24         1.9038   -6.1360    4.4601 H         1 <0>         0.0441
     54 H25         0.5052   -4.5645    8.6877 H         1 <0>         0.0829
     55 H26        -0.2480   -6.1668    8.5045 H         1 <0>         0.0491
     56 H27         1.7628   -6.3806    9.8845 H         1 <0>         0.0488
     57 H28         2.0473   -7.1706    8.3150 H         1 <0>         0.0456
     58 H29         3.8430   -5.7151    8.9173 H         1 <0>         0.3752
@<TRIPOS>BOND
     1    1    2 1
     2    1   30 1
     3    1   31 1
     4    1   32 1
     5    2    3 2
     6    2    4 1
     7    4    9 ar
     8    4    5 ar
     9    5    6 ar
    10    5   33 1
    11    6    7 ar
    12    6   34 1
    13    7   17 1
    14    7    8 ar
    15    8    9 ar
    16    8   10 1
    17    9   35 1
    18   10   11 1
    19   10   18 1
    20   11   16 ar
    21   11   12 ar
    22   12   13 ar
    23   12   36 1
    24   13   14 ar
    25   13   37 1
    26   14   15 ar
    27   14   38 1
    28   15   16 ar
    29   15   39 1
    30   16   17 1
    31   18   19 1
    32   18   40 1
    33   18   41 1
    34   19   20 1
    35   19   42 1
    36   19   43 1
    37   20   21 1
    38   20   44 1
    39   20   45 1
    40   21   26 1
    41   21   22 1
    42   22   23 1
    43   22   46 1
    44   22   47 1
    45   23   24 1
    46   23   48 1
    47   23   49 1
    48   24   25 1
    49   24   27 1
    50   25   26 1
    51   25   50 1
    52   25   51 1
    53   26   52 1
    54   26   53 1
    55   27   28 1
    56   27   54 1
    57   27   55 1
    58   28   29 1
    59   28   56 1
    60   28   57 1
    61   29   58 1
@<TRIPOS>MOLECULE
ZINC00897408
   43    44     0     0     0
SMALL
USER_CHARGES

@<TRIPOS>ATOM
      1 C1         -0.0295    1.5317    0.0187 C.3       1 <0>        -0.1782
      2 C2         -0.0000    0.0020    0.0023 C.3       1 <0>         0.1414
      3 C3          0.7447   -0.5070    1.2381 C.3       1 <0>        -0.6415
      4 S1          2.3930    0.2476    1.3042 S.o2      1 <0>         2.5138
      5 O1          3.1950   -0.2340    0.2346 O.2       1 <0>        -0.9142
      6 O2          2.2833    1.6417    1.5566 O.2       1 <0>        -0.9241
      7 C4          3.1366   -0.4153    2.7576 C.ar      1 <0>        -0.6816
      8 C5          2.9811    0.2315    3.9695 C.ar      1 <0>         0.0075
      9 C6          3.5634   -0.2877    5.1102 C.ar      1 <0>        -0.1737
     10 C7          4.3028   -1.4562    5.0389 C.ar      1 <0>         0.1596
     11 C8          4.4578   -2.1031    3.8246 C.ar      1 <0>        -0.1740
     12 C9          3.8702   -1.5848    2.6862 C.ar      1 <0>         0.0064
     13 F1          4.8729   -1.9645    6.1533 F         1 <0>        -0.1262
     14 C10        -1.4108   -0.5278    0.0124 C.2       1 <0>         0.5030
     15 O3         -1.9347   -0.8376    1.0614 O.2       1 <0>        -0.4978
     16 N1         -2.0902   -0.6573   -1.1443 N.am      1 <0>        -0.6615
     17 C11        -3.3595   -1.2371   -1.1468 C.ar      1 <0>         0.1705
     18 C12        -4.2221   -1.0235   -0.0763 C.ar      1 <0>        -0.0923
     19 C13        -5.4751   -1.5939   -0.0753 C.ar      1 <0>        -0.0476
     20 C14        -5.8803   -2.3886   -1.1517 C.ar      1 <0>         0.0129
     21 C15        -5.0111   -2.6010   -2.2252 C.ar      1 <0>        -0.1198
     22 C16        -3.7613   -2.0225   -2.2220 C.ar      1 <0>        -0.0951
     23 C17        -5.4433   -3.4568   -3.3879 C.3       1 <0>         0.5058
     24 F2         -4.4107   -3.5200   -4.3297 F         1 <0>        -0.1695
     25 F3         -5.7393   -4.7463   -2.9331 F         1 <0>        -0.1691
     26 F4         -6.5812   -2.8986   -3.9803 F         1 <0>        -0.1688
     27 C18        -7.1826   -2.9840   -1.1540 C.1       1 <0>         0.2297
     28 N2         -8.2158   -3.4563   -1.1558 N.1       1 <0>        -0.3735
     29 O4          0.6697   -0.4489   -1.1767 O.3       1 <0>        -0.5352
     30 H1          0.9909    1.9149    0.0114 H         1 <0>         0.0988
     31 H2         -0.5601    1.8943   -0.8617 H         1 <0>         0.0900
     32 H3         -0.5404    1.8756    0.9181 H         1 <0>         0.0980
     33 H4          0.1862   -0.2389    2.1350 H         1 <0>         0.1615
     34 H5          0.8434   -1.5910    1.1820 H         1 <0>         0.1460
     35 H6          2.4046    1.1431    4.0248 H         1 <0>         0.1548
     36 H7          3.4421    0.2179    6.0568 H         1 <0>         0.1498
     37 H8          5.0346   -3.0144    3.7678 H         1 <0>         0.1496
     38 H9          3.9873   -2.0916    1.7397 H         1 <0>         0.1540
     39 H10        -1.6970   -0.3474   -1.9751 H         1 <0>         0.4262
     40 H11        -3.9082   -0.4097    0.7550 H         1 <0>         0.1609
     41 H12        -6.1441   -1.4279    0.7561 H         1 <0>         0.1532
     42 H13        -3.0908   -2.1826   -3.0533 H         1 <0>         0.1566
     43 H14         0.7258   -1.4112   -1.2536 H         1 <0>         0.3937
@<TRIPOS>BOND
     1    1    2 1
     2    1   30 1
     3    1   31 1
     4    1   32 1
     5    2    3 1
     6    2   14 1
     7    2   29 1
     8    3    4 1
     9    3   33 1
    10    3   34 1
    11    4    5 2
    12    4    6 2
    13    4    7 1
    14    7   12 ar
    15    7    8 ar
    16    8    9 ar
    17    8   35 1
    18    9   10 ar
    19    9   36 1
    20   10   11 ar
    21   10   13 1
    22   11   12 ar
    23   11   37 1
    24   12   38 1
    25   14   15 2
    26   14   16 am
    27   16   17 1
    28   16   39 1
    29   17   22 ar
    30   17   18 ar
    31   18   19 ar
    32   18   40 1
    33   19   20 ar
    34   19   41 1
    35   20   21 ar
    36   20   27 1
    37   21   22 ar
    38   21   23 1
    39   22   42 1
    40   23   24 1
    41   23   25 1
    42   23   26 1
    43   27   28 3
    44   29   43 1
@<TRIPOS>MOLECULE
ZINC13559483
   42    43     0     0     0
SMALL
USER_CHARGES
(2R)-3-(4-fluorophenoxy)-2-hydroxy-2-methyl-N-[4-nitro-3-(trifluoromethyl)phenyl]propanamide
@<TRIPOS>ATOM
      1 C1         -5.1909    4.2524   -1.6046 C.3       1 <0>        -0.1410
      2 C2         -4.9214    3.8831   -0.1445 C.3       1 <0>         0.1320
      3 C3         -6.0532    2.9936    0.3739 C.3       1 <0>         0.0434
      4 O1         -7.3058    3.6519    0.1746 O.3       1 <0>        -0.2969
      5 C4         -8.4218    2.9920    0.5835 C.ar      1 <0>         0.1180
      6 C5         -8.3130    1.7348    1.1592 C.ar      1 <0>        -0.1805
      7 C6         -9.4474    1.0679    1.5800 C.ar      1 <0>        -0.1119
      8 C7        -10.6934    1.6490    1.4165 C.ar      1 <0>         0.0636
      9 C8        -10.8039    2.9013    0.8363 C.ar      1 <0>        -0.1122
     10 C9         -9.6707    3.5730    0.4203 C.ar      1 <0>        -0.1185
     11 F1        -11.8024    0.9936    1.8237 F         1 <0>        -0.1385
     12 C10        -3.6139    3.1401   -0.0474 C.2       1 <0>         0.4989
     13 O2         -3.6037    1.9273   -0.0538 O.2       1 <0>        -0.4966
     14 N1         -2.4559    3.8233    0.0465 N.am      1 <0>        -0.6607
     15 C11        -1.2359    3.1384    0.0255 C.ar      1 <0>         0.2001
     16 C12        -1.0988    1.9840   -0.7345 C.ar      1 <0>        -0.0955
     17 C13         0.1049    1.3073   -0.7486 C.ar      1 <0>        -0.0266
     18 C14         1.1767    1.7845   -0.0162 C.ar      1 <0>        -0.0203
     19 C15         1.0454    2.9370    0.7362 C.ar      1 <0>        -0.1011
     20 C16        -0.1578    3.6151    0.7593 C.ar      1 <0>        -0.0986
     21 C17         2.2161    3.4536    1.5323 C.3       1 <0>         0.5148
     22 F2          1.8430    4.6218    2.2054 F         1 <0>        -0.1716
     23 F3          2.6114    2.4857    2.4619 F         1 <0>        -0.1569
     24 F4          3.2806    3.7328    0.6685 F         1 <0>        -0.1568
     25 N2          2.4673    1.0600   -0.0384 N.pl3     1 <0>         0.0204
     26 O3          2.5846    0.0448   -0.7011 O.2       1 <0>        -0.1372
     27 O4          3.4121    1.4791    0.6061 O.3       1 <0>        -0.1422
     28 O5         -4.8523    5.0736    0.6430 O.3       1 <0>        -0.5341
     29 H1         -5.2436    3.3444   -2.2052 H         1 <0>         0.0825
     30 H2         -6.1366    4.7899   -1.6748 H         1 <0>         0.0957
     31 H3         -4.3846    4.8861   -1.9739 H         1 <0>         0.0742
     32 H4         -6.0494    2.0480   -0.1681 H         1 <0>         0.0910
     33 H5         -5.9078    2.8035    1.4373 H         1 <0>         0.0737
     34 H6         -7.3415    1.2792    1.2825 H         1 <0>         0.1373
     35 H7         -9.3626    0.0912    2.0330 H         1 <0>         0.1399
     36 H8        -11.7765    3.3534    0.7094 H         1 <0>         0.1450
     37 H9         -9.7571    4.5501   -0.0315 H         1 <0>         0.1436
     38 H10        -2.4683    4.7897    0.1286 H         1 <0>         0.4293
     39 H11        -1.9340    1.6134   -1.3101 H         1 <0>         0.1676
     40 H12         0.2108    0.4070   -1.3356 H         1 <0>         0.1726
     41 H13        -0.2597    4.5153    1.3473 H         1 <0>         0.1681
     42 H14        -4.6834    4.9149    1.5818 H         1 <0>         0.3860
@<TRIPOS>BOND
     1    1    2 1
     2    1   29 1
     3    1   30 1
     4    1   31 1
     5    2    3 1
     6    2   12 1
     7    2   28 1
     8    3    4 1
     9    3   32 1
    10    3   33 1
    11    4    5 1
    12    5   10 ar
    13    5    6 ar
    14    6    7 ar
    15    6   34 1
    16    7    8 ar
    17    7   35 1
    18    8    9 ar
    19    8   11 1
    20    9   10 ar
    21    9   36 1
    22   10   37 1
    23   12   13 2
    24   12   14 am
    25   14   15 1
    26   14   38 1
    27   15   20 ar
    28   15   16 ar
    29   16   17 ar
    30   16   39 1
    31   17   18 ar
    32   17   40 1
    33   18   19 ar
    34   18   25 1
    35   19   20 ar
    36   19   21 1
    37   20   41 1
    38   21   22 1
    39   21   23 1
    40   21   24 1
    41   25   26 2
    42   25   27 1
    43   28   42 1
@<TRIPOS>MOLECULE
ZINC03814420
   45    48     0     0     0
SMALL
USER_CHARGES
(8S,13S,14S,17S)-17-hydroxy-13,17-dimethyl-1,2,6,7,8,14,15,16-octahydrocyclopenta[a]phenanthren-3-one
@<TRIPOS>ATOM
      1 C1         -1.8342    0.1714    1.6972 C.3       1 <0>        -0.1766
      2 C2         -1.2152   -0.6970    0.6001 C.3       1 <0>         0.1409
      3 C3         -0.6923   -2.0195    1.1931 C.3       1 <0>        -0.1509
      4 C4          0.8510   -1.9941    1.0170 C.3       1 <0>        -0.1138
      5 C5          1.1599   -0.4965    0.9168 C.3       1 <0>        -0.0807
      6 H1          1.1124   -0.0185    1.8953 H         1 <0>         0.0845
      7 C6          0.0021   -0.0041    0.0020 C.3       1 <0>        -0.0329
      8 C7          0.0207    1.4861    0.0164 C.2       1 <0>        -0.0865
      9 C8          1.2172    2.0991    0.0221 C.2       1 <0>        -0.1547
     10 C9          2.4404    1.3780    0.0406 C.2       1 <0>        -0.0186
     11 C10         3.6116    2.0651   -0.0549 C.2       1 <0>        -0.1275
     12 C11         3.5470    3.5418   -0.3618 C.3       1 <0>        -0.0806
     13 C12         4.7051    4.2788    0.3040 C.3       1 <0>        -0.1598
     14 C13         5.9924    3.5377    0.0534 C.2       1 <0>         0.3853
     15 O1          7.0154    4.1548   -0.1697 O.2       1 <0>        -0.4711
     16 C14         6.0103    2.1397    0.0778 C.2       1 <0>        -0.2593
     17 C15         4.8496    1.4232    0.0954 C.2       1 <0>         0.0333
     18 C16         4.9232   -0.0750    0.2638 C.3       1 <0>        -0.0993
     19 C17         3.6701   -0.5515    1.0081 C.3       1 <0>        -0.1105
     20 C18         2.4452   -0.1274    0.2019 C.3       1 <0>        -0.0528
     21 H2          2.4689   -0.6057   -0.7773 H         1 <0>         0.1006
     22 C19         0.2282   -0.5062   -1.4254 C.3       1 <0>        -0.1291
     23 O2         -2.1791   -0.9719   -0.4184 O.3       1 <0>        -0.5546
     24 H3         -2.1412    1.1277    1.2738 H         1 <0>         0.0659
     25 H4         -2.7032   -0.3365    2.1156 H         1 <0>         0.0600
     26 H5         -1.0992    0.3416    2.4839 H         1 <0>         0.0676
     27 H6         -1.1156   -2.8720    0.6619 H         1 <0>         0.0769
     28 H7         -0.9472   -2.0743    2.2515 H         1 <0>         0.0712
     29 H8          1.1434   -2.5102    0.1025 H         1 <0>         0.0742
     30 H9          1.3480   -2.4334    1.8819 H         1 <0>         0.0715
     31 H10        -0.8973    2.0551    0.0176 H         1 <0>         0.1253
     32 H11         1.2492    3.1786    0.0122 H         1 <0>         0.1259
     33 H12         2.6042    3.9449    0.0079 H         1 <0>         0.0898
     34 H13         3.6015    3.6868   -1.4408 H         1 <0>         0.0815
     35 H14         4.5424    4.3345    1.2891 H         1 <0>         0.0889
     36 H15         4.7793    5.2844   -0.1099 H         1 <0>         0.0941
     37 H16         6.9568    1.6197    0.0824 H         1 <0>         0.1345
     38 H17         5.8112   -0.3346    0.8401 H         1 <0>         0.0868
     39 H18         4.9691   -0.5508   -0.7158 H         1 <0>         0.0894
     40 H19         3.6348   -0.0957    1.9976 H         1 <0>         0.0711
     41 H20         3.6893   -1.6371    1.1040 H         1 <0>         0.0794
     42 H21         1.1364   -0.0581   -1.8286 H         1 <0>         0.0555
     43 H22         0.3313   -1.5912   -1.4169 H         1 <0>         0.0622
     44 H23        -0.6219   -0.2269   -2.0478 H         1 <0>         0.0671
     45 H24        -2.9769   -1.4133   -0.0961 H         1 <0>         0.3758
@<TRIPOS>BOND
     1    1    2 1
     2    1   24 1
     3    1   25 1
     4    1   26 1
     5    2    7 1
     6    2    3 1
     7    2   23 1
     8    3    4 1
     9    3   27 1
    10    3   28 1
    11    4    5 1
    12    4   29 1
    13    4   30 1
    14    5    6 1
    15    5   20 1
    16    5    7 1
    17    7    8 1
    18    7   22 1
    19    8    9 2
    20    8   31 1
    21    9   10 1
    22    9   32 1
    23   10   20 1
    24   10   11 2
    25   11   17 1
    26   11   12 1
    27   12   13 1
    28   12   33 1
    29   12   34 1
    30   13   14 1
    31   13   35 1
    32   13   36 1
    33   14   15 2
    34   14   16 1
    35   16   17 2
    36   16   37 1
    37   17   18 1
    38   18   19 1
    39   18   38 1
    40   18   39 1
    41   19   20 1
    42   19   40 1
    43   19   41 1
    44   20   21 1
    45   22   42 1
    46   22   43 1
    47   22   44 1
    48   23   45 1
@<TRIPOS>MOLECULE
ZINC34022720
   41    43     0     0     0
SMALL
USER_CHARGES

@<TRIPOS>ATOM
      1 C1         -1.1990   -0.5328    0.7887 C.3       1 <0>        -0.1430
      2 C2          0.0021   -0.0041    0.0020 C.3       1 <0>        -0.0724
      3 C3         -0.1066    1.5160   -0.1341 C.3       1 <0>        -0.1598
      4 C4          1.2930   -0.3589    0.7426 C.3       1 <0>         0.0759
      5 O1          1.2755    0.2357    2.0420 O.3       1 <0>        -0.5672
      6 C5          0.0208   -0.6406   -1.3892 C.3       1 <0>         0.1737
      7 H1         -0.0721   -1.7205   -1.2743 H         1 <0>         0.0765
      8 C6          1.3439   -0.3435   -2.0293 C.3       1 <0>        -0.0982
      9 H2          2.0933   -1.0278   -1.6314 H         1 <0>         0.0972
     10 C7          1.8050    1.1064   -1.7744 C.3       1 <0>        -0.1233
     11 C8          2.6743    1.4246   -2.9730 C.2       1 <0>        -0.1581
     12 C9          2.4517    0.5828   -3.9483 C.2       1 <0>        -0.1669
     13 C10         1.3787   -0.4016   -3.5541 C.3       1 <0>        -0.0070
     14 H3          1.6581   -1.4006   -3.8889 H         1 <0>         0.0926
     15 C11         0.0900    0.0358   -4.1918 C.ar      1 <0>        -0.1472
     16 C12         0.0908    0.3184   -5.5504 C.ar      1 <0>         0.0000
     17 C13        -1.0655    0.7342   -6.1792 C.ar      1 <0>        -0.1095
     18 C14        -2.2367    0.8745   -5.4569 C.ar      1 <0>        -0.0074
     19 C15        -2.2478    0.5922   -4.1065 C.ar      1 <0>        -0.1967
     20 C16        -1.0837    0.1664   -3.4719 C.ar      1 <0>         0.2760
     21 N1         -1.1263   -0.1580   -2.1296 N.pl3     1 <0>        -0.7080
     22 N2         -1.0519    1.0309   -7.6291 N.pl3     1 <0>         0.0457
     23 O2         -0.0287    0.9091   -8.2615 O.2       1 <0>        -0.1749
     24 O3         -2.0639    1.3952   -8.1811 O.3       1 <0>        -0.1732
     25 H4         -2.1205   -0.1805    0.3252 H         1 <0>         0.0528
     26 H5         -1.1842   -1.6227    0.7853 H         1 <0>         0.0566
     27 H6         -1.1479   -0.1719    1.8159 H         1 <0>         0.0734
     28 H7         -0.5619    1.9297    0.7657 H         1 <0>         0.0597
     29 H8          0.8885    1.9410   -0.2661 H         1 <0>         0.0811
     30 H9         -0.7236    1.7602   -0.9987 H         1 <0>         0.0588
     31 H10         1.3704   -1.4418    0.8396 H         1 <0>         0.0465
     32 H11         2.1487    0.0178    0.1822 H         1 <0>         0.0618
     33 H12         2.0651    0.0521    2.5692 H         1 <0>         0.3823
     34 H13         0.9482    1.7790   -1.7335 H         1 <0>         0.1060
     35 H14         2.3851    1.1674   -0.8537 H         1 <0>         0.0839
     36 H15         3.3831    2.2383   -3.0164 H         1 <0>         0.1277
     37 H16         2.9560    0.6012   -4.9031 H         1 <0>         0.1321
     38 H17         1.0025    0.2127   -6.1196 H         1 <0>         0.1492
     39 H18        -3.1399    1.2044   -5.9486 H         1 <0>         0.1521
     40 H19        -3.1610    0.7018   -3.5405 H         1 <0>         0.1443
     41 H20        -1.9633   -0.0280   -1.6569 H         1 <0>         0.4068
@<TRIPOS>BOND
     1    1    2 1
     2    1   25 1
     3    1   26 1
     4    1   27 1
     5    2    3 1
     6    2    4 1
     7    2    6 1
     8    3   28 1
     9    3   29 1
    10    3   30 1
    11    4    5 1
    12    4   31 1
    13    4   32 1
    14    5   33 1
    15    6    7 1
    16    6   21 1
    17    6    8 1
    18    8    9 1
    19    8   13 1
    20    8   10 1
    21   10   11 1
    22   10   34 1
    23   10   35 1
    24   11   12 2
    25   11   36 1
    26   12   13 1
    27   12   37 1
    28   13   14 1
    29   13   15 1
    30   15   20 ar
    31   15   16 ar
    32   16   17 ar
    33   16   38 1
    34   17   18 ar
    35   17   22 1
    36   18   19 ar
    37   18   39 1
    38   19   20 ar
    39   19   40 1
    40   20   21 1
    41   21   41 1
    42   22   23 2
    43   22   24 1
@<TRIPOS>MOLECULE
ZINC00538159
   50    53     0     0     0
SMALL
USER_CHARGES

@<TRIPOS>ATOM
      1 C1          3.4448   -4.9754    0.0380 C.ar      1 <0>        -0.0775
      2 C2          4.3831   -4.5773    0.9715 C.ar      1 <0>        -0.1273
      3 C3          4.2731   -3.3382    1.5753 C.ar      1 <0>        -0.0519
      4 C4          3.2213   -2.4942    1.2481 C.ar      1 <0>        -0.1546
      5 C5          2.2716   -2.8931    0.3118 C.ar      1 <0>         0.1855
      6 C6          2.3948   -4.1403   -0.2925 C.ar      1 <0>        -0.1633
      7 N1          1.1944   -2.0824   -0.0350 N.pl3     1 <0>        -0.5638
      8 C7          1.1704   -0.6950    0.0856 C.ar      1 <0>         0.1857
      9 C8          0.3084    0.0298   -0.7232 C.ar      1 <0>        -0.1206
     10 C9          0.2556    1.4228   -0.6247 C.ar      1 <0>         0.0110
     11 C10         1.0738    2.0876    0.2925 C.ar      1 <0>        -0.0770
     12 C11         1.9306    1.3657    1.0939 C.ar      1 <0>        -0.0561
     13 C12         1.9863   -0.0207    0.9948 C.ar      1 <0>        -0.1219
     14 S1          3.1004   -0.9175    2.0238 S.3       1 <0>         0.0496
     15 C13        -0.6350    2.1679   -1.4627 C.1       1 <0>         0.2451
     16 N2         -1.3416    2.7589   -2.1275 N.1       1 <0>        -0.3970
     17 C14        -0.0033   -2.7373   -0.5670 C.3       1 <0>         0.1193
     18 C15         0.1059   -2.8410   -2.0896 C.3       1 <0>        -0.1877
     19 C16        -1.1448   -3.5250   -2.6452 C.3       1 <0>        -0.0087
     20 N3         -1.0400   -3.6246   -4.1070 N.4       1 <0>        -0.3843
     21 C17        -1.0334   -2.2769   -4.6886 C.3       1 <0>        -0.0089
     22 C18        -0.8430   -2.3720   -6.2039 C.3       1 <0>        -0.1432
     23 C19        -1.9923   -3.1845   -6.8073 C.3       1 <0>         0.0961
     24 C20        -2.0358   -4.5623   -6.1402 C.3       1 <0>        -0.1837
     25 C21        -2.1820   -4.3860   -4.6272 C.3       1 <0>        -0.0026
     26 O1         -1.7814   -3.3402   -8.2120 O.3       1 <0>        -0.5525
     27 H1          3.5351   -5.9406   -0.4380 H         1 <0>         0.1331
     28 H2          5.2012   -5.2335    1.2294 H         1 <0>         0.1373
     29 H3          5.0074   -3.0267    2.3035 H         1 <0>         0.1392
     30 H4          1.6656   -4.4575   -1.0233 H         1 <0>         0.1249
     31 H5         -0.3242   -0.4839   -1.4319 H         1 <0>         0.1325
     32 H6          1.0348    3.1639    0.3726 H         1 <0>         0.1476
     33 H7          2.5632    1.8791    1.8028 H         1 <0>         0.1506
     34 H8         -0.0910   -3.7364   -0.1401 H         1 <0>         0.0994
     35 H9         -0.8844   -2.1516   -0.3050 H         1 <0>         0.0974
     36 H10         0.1936   -1.8419   -2.5165 H         1 <0>         0.0962
     37 H11         0.9871   -3.4267   -2.3516 H         1 <0>         0.0997
     38 H12        -1.2326   -4.5241   -2.2183 H         1 <0>         0.1376
     39 H13        -2.0260   -2.9393   -2.3831 H         1 <0>         0.1347
     40 H14        -1.9811   -1.7837   -4.4722 H         1 <0>         0.1330
     41 H15        -0.2169   -1.6989   -4.2558 H         1 <0>         0.1366
     42 H16        -0.8402   -1.3705   -6.6339 H         1 <0>         0.1202
     43 H17         0.1046   -2.8649   -6.4214 H         1 <0>         0.0968
     44 H18        -2.9353   -2.6659   -6.6344 H         1 <0>         0.0736
     45 H19        -2.8856   -5.1262   -6.5247 H         1 <0>         0.1159
     46 H20        -1.1130   -5.1006   -6.3564 H         1 <0>         0.0973
     47 H21        -2.2135   -5.3650   -4.1492 H         1 <0>         0.1356
     48 H22        -3.1052   -3.8478   -4.4122 H         1 <0>         0.1316
     49 H23        -2.4732   -3.8462   -8.6599 H         1 <0>         0.3947
     50 H24        -0.1827   -4.0978   -4.3503 H         1 <0>         0.4247
@<TRIPOS>BOND
     1    1    6 ar
     2    1    2 ar
     3    1   27 1
     4    2    3 ar
     5    2   28 1
     6    3    4 ar
     7    3   29 1
     8    4   14 1
     9    4    5 ar
    10    5    6 ar
    11    5    7 1
    12    6   30 1
    13    7    8 1
    14    7   17 1
    15    8   13 ar
    16    8    9 ar
    17    9   10 ar
    18    9   31 1
    19   10   11 ar
    20   10   15 1
    21   11   12 ar
    22   11   32 1
    23   12   13 ar
    24   12   33 1
    25   13   14 1
    26   15   16 3
    27   17   18 1
    28   17   34 1
    29   17   35 1
    30   18   19 1
    31   18   36 1
    32   18   37 1
    33   19   20 1
    34   19   38 1
    35   19   39 1
    36   20   25 1
    37   20   21 1
    38   20   50 1
    39   21   22 1
    40   21   40 1
    41   21   41 1
    42   22   23 1
    43   22   42 1
    44   22   43 1
    45   23   24 1
    46   23   26 1
    47   23   44 1
    48   24   25 1
    49   24   45 1
    50   24   46 1
    51   25   47 1
    52   25   48 1
    53   26   49 1
@<TRIPOS>MOLECULE
ZINC03814360
   51    54     0     0     0
SMALL
USER_CHARGES

@<TRIPOS>ATOM
      1 C1         -0.0791    1.5267   -0.0241 C.3       1 <0>        -0.1536
      2 C2         -0.0620   -0.0032   -0.0340 C.3       1 <0>        -0.0506
      3 C3         -1.4996   -0.5307   -0.0608 C.3       1 <0>        -0.1074
      4 C4         -2.2727    0.0180    1.1418 C.3       1 <0>        -0.1722
      5 C5         -1.5107   -0.3367    2.3997 C.2       1 <0>         0.3611
      6 O1         -2.0584   -0.8912    3.3222 O.2       1 <0>        -0.4588
      7 C6         -0.0437    0.0225    2.4684 C.3       1 <0>        -0.1686
      8 C7          0.6550   -0.5142    1.2167 C.3       1 <0>        -0.0671
      9 H1          0.6353   -1.6039    1.2286 H         1 <0>         0.0748
     10 C8          2.1047   -0.0227    1.2198 C.3       1 <0>        -0.1157
     11 C9          2.8251   -0.5267   -0.0312 C.3       1 <0>        -0.1139
     12 C10         2.1153    0.0158   -1.2732 C.3       1 <0>        -0.0745
     13 H2          2.1230    1.1057   -1.2595 H         1 <0>         0.0857
     14 C11         0.6681   -0.4981   -1.2845 C.3       1 <0>        -0.0669
     15 H3          0.6802   -1.5880   -1.2755 H         1 <0>         0.0665
     16 C12        -0.0757   -0.0424   -2.5353 C.3       1 <0>        -0.1208
     17 C13         0.6746   -0.4510   -3.8142 C.3       1 <0>        -0.1028
     18 C14         2.0633    0.1522   -3.7349 C.3       1 <0>        -0.0579
     19 C15         2.7956   -0.4911   -2.5311 C.3       1 <0>        -0.0829
     20 H4          2.7257   -1.5774   -2.5882 H         1 <0>         0.0740
     21 C16         4.2385   -0.0216   -2.7472 C.3       1 <0>        -0.1123
     22 C17         4.4269   -0.1743   -4.2813 C.3       1 <0>        -0.1563
     23 C18         2.9990   -0.1352   -4.9046 C.3       1 <0>         0.1094
     24 H5          2.7384   -1.0847   -5.3722 H         1 <0>         0.0589
     25 O2          2.9342    0.9236   -5.8621 O.3       1 <0>        -0.5616
     26 C19         1.9594    1.6627   -3.5144 C.3       1 <0>        -0.1341
     27 H6          0.9444    1.9014   -0.0139 H         1 <0>         0.0641
     28 H7         -0.5902    1.8901   -0.9156 H         1 <0>         0.0611
     29 H8         -0.6037    1.8784    0.8642 H         1 <0>         0.0573
     30 H9         -1.9865   -0.2101   -0.9818 H         1 <0>         0.0807
     31 H10        -1.4873   -1.6197   -0.0178 H         1 <0>         0.0666
     32 H11        -2.3605    1.1013    1.0588 H         1 <0>         0.1007
     33 H12        -3.2658   -0.4300    1.1754 H         1 <0>         0.0872
     34 H13         0.0655    1.1062    2.5100 H         1 <0>         0.1009
     35 H14         0.4010   -0.4260    3.3568 H         1 <0>         0.0876
     36 H15         2.1179    1.0672    1.2312 H         1 <0>         0.0681
     37 H16         2.6132   -0.3995    2.1072 H         1 <0>         0.0638
     38 H17         3.8582   -0.1792   -0.0214 H         1 <0>         0.0647
     39 H18         2.8066   -1.6164   -0.0480 H         1 <0>         0.0614
     40 H19        -1.0679   -0.4936   -2.5445 H         1 <0>         0.0641
     41 H20        -0.1788    1.0425   -2.5135 H         1 <0>         0.0717
     42 H21         0.7449   -1.5372   -3.8719 H         1 <0>         0.0611
     43 H22         0.1524   -0.0653   -4.6898 H         1 <0>         0.0656
     44 H23         4.3545    1.0195   -2.4460 H         1 <0>         0.0703
     45 H24         4.9371   -0.6606   -2.2072 H         1 <0>         0.0656
     46 H25         5.0422    0.6392   -4.6655 H         1 <0>         0.0735
     47 H26         4.8913   -1.1342   -4.5074 H         1 <0>         0.0642
     48 H27         3.5088    0.7959   -6.6293 H         1 <0>         0.3748
     49 H28         1.3664    1.8595   -2.6213 H         1 <0>         0.0609
     50 H29         2.9579    2.0808   -3.3871 H         1 <0>         0.0533
     51 H30         1.4798    2.1237   -4.3779 H         1 <0>         0.0585
@<TRIPOS>BOND
     1    1    2 1
     2    1   27 1
     3    1   28 1
     4    1   29 1
     5    2    8 1
     6    2   14 1
     7    2    3 1
     8    3    4 1
     9    3   30 1
    10    3   31 1
    11    4    5 1
    12    4   32 1
    13    4   33 1
    14    5    6 2
    15    5    7 1
    16    7    8 1
    17    7   34 1
    18    7   35 1
    19    8    9 1
    20    8   10 1
    21   10   11 1
    22   10   36 1
    23   10   37 1
    24   11   12 1
    25   11   38 1
    26   11   39 1
    27   12   13 1
    28   12   19 1
    29   12   14 1
    30   14   15 1
    31   14   16 1
    32   16   17 1
    33   16   40 1
    34   16   41 1
    35   17   18 1
    36   17   42 1
    37   17   43 1
    38   18   23 1
    39   18   19 1
    40   18   26 1
    41   19   20 1
    42   19   21 1
    43   21   22 1
    44   21   44 1
    45   21   45 1
    46   22   23 1
    47   22   46 1
    48   22   47 1
    49   23   24 1
    50   23   25 1
    51   25   48 1
    52   26   49 1
    53   26   50 1
    54   26   51 1
@<TRIPOS>MOLECULE
ZINC01538191
   44    45     0     0     0
SMALL
USER_CHARGES
4-[3-(4-hydroxybutyl)-4,4-dimethyl-5-oxo-2-thioxo-imidazolidin-1-yl]-2-(trifluoromethyl)benzonitrile
@<TRIPOS>ATOM
      1 C1          4.3414   -1.3859   -1.2020 C.3       1 <0>        -0.1464
      2 C2          4.0054   -0.5251    0.0174 C.3       1 <0>         0.1042
      3 C3          2.5183   -0.2380    0.0792 C.2       1 <0>         0.5221
      4 O1          1.6205   -1.0454    0.1890 O.2       1 <0>        -0.4266
      5 N1          2.4016    1.1013   -0.0150 N.am      1 <0>        -0.5001
      6 C4          3.5962    1.6946   -0.1192 C.2       1 <0>         0.5260
      7 S1          3.8094    3.3882   -0.2507 S.2       1 <0>        -0.5250
      8 N2          4.6111    0.8117   -0.1091 N.pl3     1 <0>        -0.5437
      9 C5          6.0401    1.1196   -0.2059 C.3       1 <0>         0.1330
     10 C6          6.6129    1.3290    1.1973 C.3       1 <0>        -0.1379
     11 C7          8.1053    1.6506    1.0961 C.3       1 <0>        -0.1164
     12 C8          8.6781    1.8600    2.4993 C.3       1 <0>         0.0761
     13 O2         10.0720    2.1603    2.4049 O.3       1 <0>        -0.5752
     14 C9          1.1828    1.7866    0.0004 C.ar      1 <0>         0.1447
     15 C10         0.2961    1.6487   -1.0622 C.ar      1 <0>        -0.0596
     16 C11        -0.9025    2.3264   -1.0533 C.ar      1 <0>        -0.0571
     17 C12        -1.2323    3.1455    0.0303 C.ar      1 <0>         0.0485
     18 C13        -0.3388    3.2815    1.0960 C.ar      1 <0>        -0.1312
     19 C14         0.8606    2.6044    1.0775 C.ar      1 <0>        -0.0311
     20 C15        -0.6872    4.1673    2.2643 C.3       1 <0>         0.5082
     21 F1          0.3554    4.1409    3.1968 F         1 <0>        -0.1671
     22 F2         -0.8778    5.4784    1.8149 F         1 <0>        -0.1656
     23 F3         -1.8626    3.7050    2.8659 F         1 <0>        -0.1687
     24 C16        -2.4802    3.8476    0.0457 C.1       1 <0>         0.2266
     25 N3         -3.4702    4.4047    0.0580 N.1       1 <0>        -0.3613
     26 C17         4.4746   -1.2092    1.3030 C.3       1 <0>        -0.1480
     27 H1          5.4229   -1.4945   -1.2832 H         1 <0>         0.0882
     28 H2          3.8849   -2.3693   -1.0895 H         1 <0>         0.0938
     29 H3          3.9557   -0.9072   -2.1021 H         1 <0>         0.0719
     30 H4          6.5582    0.2917   -0.6900 H         1 <0>         0.0999
     31 H5          6.1772    2.0274   -0.7935 H         1 <0>         0.1155
     32 H6          6.0949    2.1569    1.6813 H         1 <0>         0.0813
     33 H7          6.4758    0.4212    1.7849 H         1 <0>         0.0714
     34 H8          8.6234    0.8227    0.6120 H         1 <0>         0.0731
     35 H9          8.2424    2.5583    0.5085 H         1 <0>         0.0788
     36 H10         8.1601    2.6878    2.9834 H         1 <0>         0.0479
     37 H11         8.5410    0.9522    3.0869 H         1 <0>         0.0445
     38 H12        10.5018    2.3055    3.2588 H         1 <0>         0.3830
     39 H13         0.5500    1.0128   -1.8974 H         1 <0>         0.1503
     40 H14        -1.5888    2.2221   -1.8807 H         1 <0>         0.1611
     41 H15         1.5516    2.7088    1.9010 H         1 <0>         0.1569
     42 H16         4.1824   -0.6064    2.1628 H         1 <0>         0.0715
     43 H17         4.0161   -2.1953    1.3780 H         1 <0>         0.0933
     44 H18         5.5594   -1.3134    1.2840 H         1 <0>         0.0894
@<TRIPOS>BOND
     1    1    2 1
     2    1   27 1
     3    1   28 1
     4    1   29 1
     5    2    8 1
     6    2    3 1
     7    2   26 1
     8    3    4 2
     9    3    5 am
    10    5    6 1
    11    5   14 1
    12    6    7 2
    13    6    8 1
    14    8    9 1
    15    9   10 1
    16    9   30 1
    17    9   31 1
    18   10   11 1
    19   10   32 1
    20   10   33 1
    21   11   12 1
    22   11   34 1
    23   11   35 1
    24   12   13 1
    25   12   36 1
    26   12   37 1
    27   13   38 1
    28   14   19 ar
    29   14   15 ar
    30   15   16 ar
    31   15   39 1
    32   16   17 ar
    33   16   40 1
    34   17   18 ar
    35   17   24 1
    36   18   19 ar
    37   18   20 1
    38   19   41 1
    39   20   21 1
    40   20   22 1
    41   20   23 1
    42   24   25 3
    43   26   42 1
    44   26   43 1
    45   26   44 1
@<TRIPOS>MOLECULE
ZINC08585918
   24    24     0     0     0
SMALL
USER_CHARGES
1,2-dibromo-4-(1,2-dibromoethyl)cyclohexane
@<TRIPOS>ATOM
      1 C1         -0.7496    3.1091    1.2752 C.3       1 <0>        -0.1416
      2 C2         -1.4657    3.6025    2.5340 C.3       1 <0>        -0.1117
      3 C3         -0.7257    3.0957    3.7736 C.3       1 <0>        -0.0513
      4 H1         -1.2359    3.4472    4.6704 H         1 <0>         0.1159
      5 C4         -0.7050    1.5658    3.7651 C.3       1 <0>        -0.0451
      6 H2         -1.7276    1.1885    3.7729 H         1 <0>         0.1196
      7 C5          0.0111    1.0724    2.5063 C.3       1 <0>        -0.1298
      8 C6         -0.7288    1.5792    1.2668 C.3       1 <0>        -0.0793
      9 H3         -1.7514    1.2020    1.2746 H         1 <0>         0.0947
     10 C7         -0.0127    1.0858    0.0080 C.3       1 <0>        -0.0499
     11 H4          0.0021   -0.0041    0.0020 H         1 <0>         0.1181
     12 C8         -0.7527    1.5927   -1.2315 C.3       1 <0>        -0.0870
     13 Br1         0.1675    0.9586   -2.8490 Br        1 <0>        -0.1346
     14 Br2         1.8317    1.7663   -0.0059 Br        1 <0>        -0.1220
     15 Br3         0.2459    0.9146    5.3579 Br        1 <0>        -0.1323
     16 Br4         1.1187    3.7761    3.7596 Br        1 <0>        -0.1252
     17 H5          0.2730    3.4864    1.2675 H         1 <0>         0.0955
     18 H6         -1.2768    3.4701    0.3922 H         1 <0>         0.0772
     19 H7         -2.4883    3.2252    2.5418 H         1 <0>         0.0835
     20 H8         -1.4805    4.6924    2.5400 H         1 <0>         0.0871
     21 H9          0.0259   -0.0175    2.5003 H         1 <0>         0.0846
     22 H10         1.0337    1.4497    2.4986 H         1 <0>         0.1048
     23 H11        -1.7753    1.2154   -1.2238 H         1 <0>         0.1148
     24 H12        -0.7675    2.6825   -1.2255 H         1 <0>         0.1140
@<TRIPOS>BOND
     1    1    8 1
     2    1    2 1
     3    1   17 1
     4    1   18 1
     5    2    3 1
     6    2   19 1
     7    2   20 1
     8    3    4 1
     9    3    5 1
    10    3   16 1
    11    5    6 1
    12    5    7 1
    13    5   15 1
    14    7    8 1
    15    7   21 1
    16    7   22 1
    17    8    9 1
    18    8   10 1
    19   10   11 1
    20   10   12 1
    21   10   14 1
    22   12   13 1
    23   12   23 1
    24   12   24 1
@<TRIPOS>MOLECULE
ZINC08585919
   24    24     0     0     0
SMALL
USER_CHARGES
1,2-dibromo-4-(1,2-dibromoethyl)cyclohexane
@<TRIPOS>ATOM
      1 C1         -1.5015    4.4918    0.0405 C.3       1 <0>        -0.1300
      2 C2         -0.7853    3.9984   -1.2183 C.3       1 <0>        -0.1107
      3 C3         -0.7646    2.4686   -1.2267 C.3       1 <0>        -0.0480
      4 H1         -1.7872    2.0913   -1.2190 H         1 <0>         0.1170
      5 C4         -0.0246    1.9617    0.0128 C.3       1 <0>        -0.0443
      6 H2          0.9980    2.3390    0.0051 H         1 <0>         0.1157
      7 C5         -0.7407    2.4551    1.2716 C.3       1 <0>        -0.1179
      8 C6         -0.7615    3.9850    1.2800 C.3       1 <0>        -0.0834
      9 H3          0.2611    4.3623    1.2723 H         1 <0>         0.0985
     10 C7         -1.4776    4.4784    2.5388 C.3       1 <0>        -0.0490
     11 H4         -0.9504    4.1173    3.4219 H         1 <0>         0.1196
     12 C8         -1.4984    6.0082    2.5473 C.3       1 <0>        -0.0881
     13 Br1        -2.4186    6.6423    4.1648 Br        1 <0>        -0.1334
     14 Br2        -3.3220    3.7979    2.5528 Br        1 <0>        -0.1258
     15 Br3         0.0021   -0.0041    0.0020 Br        1 <0>        -0.1309
     16 Br4         0.1556    1.8345   -2.8442 Br        1 <0>        -0.1355
     17 H5         -1.5162    5.5817    0.0465 H         1 <0>         0.0808
     18 H6         -2.5241    4.1145    0.0483 H         1 <0>         0.0850
     19 H7          0.2373    4.3757   -1.2260 H         1 <0>         0.0801
     20 H8         -1.3125    4.3595   -2.1013 H         1 <0>         0.0878
     21 H9         -1.7633    2.0779    1.2794 H         1 <0>         0.0939
     22 H10        -0.2135    2.0941    2.1547 H         1 <0>         0.0884
     23 H11        -0.4758    6.3855    2.5395 H         1 <0>         0.1159
     24 H12        -2.0255    6.3693    1.6642 H         1 <0>         0.1142
@<TRIPOS>BOND
     1    1    8 1
     2    1    2 1
     3    1   17 1
     4    1   18 1
     5    2    3 1
     6    2   19 1
     7    2   20 1
     8    3    4 1
     9    3    5 1
    10    3   16 1
    11    5    6 1
    12    5    7 1
    13    5   15 1
    14    7    8 1
    15    7   21 1
    16    7   22 1
    17    8    9 1
    18    8   10 1
    19   10   11 1
    20   10   12 1
    21   10   14 1
    22   12   13 1
    23   12   23 1
    24   12   24 1
@<TRIPOS>MOLECULE
ZINC08585920
   24    24     0     0     0
SMALL
USER_CHARGES
1,2-dibromo-4-(1,2-dibromoethyl)cyclohexane
@<TRIPOS>ATOM
      1 C1         -0.0127    1.0858    0.0080 C.3       1 <0>        -0.1371
      2 C2         -0.7527    1.5927   -1.2315 C.3       1 <0>        -0.1216
      3 C3         -0.7734    3.1225   -1.2231 C.3       1 <0>        -0.0479
      4 H1         -1.3006    3.4836   -2.1062 H         1 <0>         0.1170
      5 C4         -1.4896    3.6159    0.0357 C.3       1 <0>        -0.0413
      6 H2         -1.5044    4.7058    0.0417 H         1 <0>         0.1192
      7 C5         -0.7496    3.1091    1.2752 C.3       1 <0>        -0.1286
      8 C6         -0.7288    1.5792    1.2668 C.3       1 <0>        -0.0884
      9 H3         -1.7514    1.2020    1.2746 H         1 <0>         0.1026
     10 C7          0.0111    1.0724    2.5063 C.3       1 <0>        -0.0473
     11 H4         -0.4990    1.4239    3.4031 H         1 <0>         0.1177
     12 C8          0.0319   -0.4574    2.4979 C.3       1 <0>        -0.0864
     13 Br1         0.9828   -1.1087    4.0907 Br        1 <0>        -0.1360
     14 Br2         1.8556    1.7529    2.4924 Br        1 <0>        -0.1264
     15 Br3        -3.3340    2.9354    0.0497 Br        1 <0>        -0.1348
     16 Br4         1.0710    3.8030   -1.2371 Br        1 <0>        -0.1278
     17 H5          0.0021   -0.0041    0.0020 H         1 <0>         0.0765
     18 H6          1.0099    1.4631    0.0003 H         1 <0>         0.0933
     19 H7         -0.2425    1.2411   -2.1283 H         1 <0>         0.0850
     20 H8         -1.7753    1.2154   -1.2238 H         1 <0>         0.0911
     21 H9          0.2730    3.4864    1.2675 H         1 <0>         0.1067
     22 H10        -1.2598    3.4606    2.1720 H         1 <0>         0.0855
     23 H11        -0.9907   -0.8347    2.5057 H         1 <0>         0.1152
     24 H12         0.5421   -0.8090    1.6011 H         1 <0>         0.1139
@<TRIPOS>BOND
     1    1    8 1
     2    1    2 1
     3    1   17 1
     4    1   18 1
     5    2    3 1
     6    2   19 1
     7    2   20 1
     8    3    4 1
     9    3    5 1
    10    3   16 1
    11    5    6 1
    12    5    7 1
    13    5   15 1
    14    7    8 1
    15    7   21 1
    16    7   22 1
    17    8    9 1
    18    8   10 1
    19   10   11 1
    20   10   12 1
    21   10   14 1
    22   12   13 1
    23   12   23 1
    24   12   24 1
@<TRIPOS>MOLECULE
ZINC08585921
   24    24     0     0     0
SMALL
USER_CHARGES
(1R,2S,4R)-1,2-dibromo-4-[(1S)-1,2-dibromoethyl]cyclohexane
@<TRIPOS>ATOM
      1 C1         -0.7615    3.9850    1.2800 C.3       1 <0>        -0.1256
      2 C2         -0.7407    2.4551    1.2716 C.3       1 <0>        -0.1211
      3 C3         -0.0246    1.9617    0.0128 C.3       1 <0>        -0.0484
      4 H1          0.9980    2.3390    0.0051 H         1 <0>         0.1215
      5 C4         -0.7646    2.4686   -1.2267 C.3       1 <0>        -0.0444
      6 H2         -0.2544    2.1170   -2.1235 H         1 <0>         0.1185
      7 C5         -0.7853    3.9984   -1.2183 C.3       1 <0>        -0.1173
      8 C6         -1.5015    4.4918    0.0405 C.3       1 <0>        -0.0925
      9 H3         -2.5241    4.1145    0.0483 H         1 <0>         0.1059
     10 C7         -1.5222    6.0216    0.0489 C.3       1 <0>        -0.0462
     11 H4         -2.0494    6.3827   -0.8341 H         1 <0>         0.1189
     12 C8         -2.2384    6.5151    1.3077 C.3       1 <0>        -0.0875
     13 Br1        -2.2650    8.4809    1.3185 Br        1 <0>        -0.1350
     14 Br2         0.3222    6.7021    0.0350 Br        1 <0>        -0.1303
     15 Br3        -2.6090    1.7881   -1.2127 Br        1 <0>        -0.1313
     16 Br4         0.0021   -0.0041    0.0020 Br        1 <0>        -0.1360
     17 H5         -1.2717    4.3365    2.1768 H         1 <0>         0.0795
     18 H6          0.2611    4.3623    1.2723 H         1 <0>         0.0825
     19 H7         -1.7633    2.0779    1.2794 H         1 <0>         0.0884
     20 H8         -0.2135    2.0941    2.1547 H         1 <0>         0.0849
     21 H9         -1.3125    4.3595   -2.1013 H         1 <0>         0.0884
     22 H10         0.2373    4.3757   -1.2260 H         1 <0>         0.0969
     23 H11        -3.2609    6.1378    1.3155 H         1 <0>         0.1162
     24 H12        -1.7112    6.1540    2.1908 H         1 <0>         0.1141
@<TRIPOS>BOND
     1    1    8 1
     2    1    2 1
     3    1   17 1
     4    1   18 1
     5    2    3 1
     6    2   19 1
     7    2   20 1
     8    3    4 1
     9    3    5 1
    10    3   16 1
    11    5    6 1
    12    5    7 1
    13    5   15 1
    14    7    8 1
    15    7   21 1
    16    7   22 1
    17    8    9 1
    18    8   10 1
    19   10   11 1
    20   10   12 1
    21   10   14 1
    22   12   13 1
    23   12   23 1
    24   12   24 1
@<TRIPOS>MOLECULE
ZINC06500184
   49    52     0     0     0
SMALL
USER_CHARGES

@<TRIPOS>ATOM
      1 C1         -0.0187    1.5258    0.0104 C.3       1 <0>        -0.1340
      2 C2          0.0021   -0.0041    0.0020 C.3       1 <0>        -0.0575
      3 C3         -1.4158   -0.5376    0.0743 C.3       1 <0>        -0.1031
      4 C4         -2.0776    0.1004    1.3058 C.3       1 <0>        -0.1217
      5 C5         -1.2987   -0.1970    2.5836 C.3       1 <0>        -0.0658
      6 H1         -1.3515   -1.2658    2.7907 H         1 <0>         0.0710
      7 C6          0.1752    0.2165    2.4630 C.3       1 <0>        -0.0778
      8 H2          0.2494    1.2951    2.3243 H         1 <0>         0.0900
      9 C7          0.7514   -0.5272    1.2569 C.3       1 <0>        -0.0832
     10 H3          0.6125   -1.6031    1.3628 H         1 <0>         0.0775
     11 C8          2.2067   -0.1924    0.9110 C.3       1 <0>        -0.1133
     12 C9          2.3039   -0.5736   -0.5914 C.3       1 <0>        -0.1573
     13 C10         0.8625   -0.5030   -1.1542 C.3       1 <0>         0.1103
     14 H4          0.5320   -1.4921   -1.4715 H         1 <0>         0.0566
     15 O1          0.8024    0.4146   -2.2480 O.3       1 <0>        -0.5599
     16 C11         0.9157   -0.1993    3.7375 C.3       1 <0>        -0.1136
     17 C12         0.3625    0.5959    4.9221 C.3       1 <0>        -0.0979
     18 C13        -1.1396    0.3896    4.9907 C.2       1 <0>        -0.0157
     19 C14        -1.6676    0.0666    6.1711 C.2       1 <0>        -0.2431
     20 C15        -3.1159   -0.1282    6.2982 C.2       1 <0>         0.3881
     21 O2         -3.5965   -0.7740    7.2060 O.2       1 <0>        -0.4582
     22 C16        -3.9807    0.5207    5.2350 C.3       1 <0>        -0.1685
     23 C17        -3.3979    0.1372    3.8755 C.3       1 <0>        -0.1050
     24 C18        -1.9353    0.5692    3.7501 C.3       1 <0>        -0.0312
     25 C19        -1.9191    2.0586    3.4006 C.3       1 <0>        -0.1502
     26 H5          1.0039    1.9031    0.0027 H         1 <0>         0.0538
     27 H6         -0.5459    1.8868   -0.8726 H         1 <0>         0.0594
     28 H7         -0.5289    1.8773    0.9072 H         1 <0>         0.0609
     29 H8         -1.9632   -0.2607   -0.8268 H         1 <0>         0.0672
     30 H9         -1.3995   -1.6222    0.1815 H         1 <0>         0.0623
     31 H10        -2.1276    1.1799    1.1632 H         1 <0>         0.0756
     32 H11        -3.0901   -0.2904    1.4077 H         1 <0>         0.0651
     33 H12         2.4020    0.8706    1.0526 H         1 <0>         0.0707
     34 H13         2.8929   -0.7943    1.5068 H         1 <0>         0.0660
     35 H14         2.9456    0.1342   -1.1162 H         1 <0>         0.0725
     36 H15         2.6974   -1.5847   -0.6961 H         1 <0>         0.0666
     37 H16         1.3308    0.1496   -3.0133 H         1 <0>         0.3752
     38 H17         0.7681   -1.2649    3.9134 H         1 <0>         0.0654
     39 H18         1.9798    0.0081    3.6247 H         1 <0>         0.0717
     40 H19         0.8223    0.2433    5.8454 H         1 <0>         0.0773
     41 H20         0.5800    1.6550    4.7845 H         1 <0>         0.0842
     42 H21        -1.0290   -0.0520    7.0340 H         1 <0>         0.1336
     43 H22        -5.0043    0.1549    5.3159 H         1 <0>         0.0921
     44 H23        -3.9630    1.6041    5.3535 H         1 <0>         0.0997
     45 H24        -3.4588   -0.9444    3.7551 H         1 <0>         0.0683
     46 H25        -3.9842    0.6144    3.0902 H         1 <0>         0.0838
     47 H26        -2.4886    2.2234    2.4859 H         1 <0>         0.0698
     48 H27        -2.3671    2.6278    4.2151 H         1 <0>         0.0583
     49 H28        -0.8900    2.3857    3.2518 H         1 <0>         0.0638
@<TRIPOS>BOND
     1    1    2 1
     2    1   26 1
     3    1   27 1
     4    1   28 1
     5    2    9 1
     6    2   13 1
     7    2    3 1
     8    3    4 1
     9    3   29 1
    10    3   30 1
    11    4    5 1
    12    4   31 1
    13    4   32 1
    14    5    6 1
    15    5   24 1
    16    5    7 1
    17    7    8 1
    18    7    9 1
    19    7   16 1
    20    9   10 1
    21    9   11 1
    22   11   12 1
    23   11   33 1
    24   11   34 1
    25   12   13 1
    26   12   35 1
    27   12   36 1
    28   13   14 1
    29   13   15 1
    30   15   37 1
    31   16   17 1
    32   16   38 1
    33   16   39 1
    34   17   18 1
    35   17   40 1
    36   17   41 1
    37   18   24 1
    38   18   19 2
    39   19   20 1
    40   19   42 1
    41   20   21 2
    42   20   22 1
    43   22   23 1
    44   22   43 1
    45   22   44 1
    46   23   24 1
    47   23   45 1
    48   23   46 1
    49   24   25 1
    50   25   47 1
    51   25   48 1
    52   25   49 1
@<TRIPOS>MOLECULE
ZINC06500184
   49    52     0     0     0
SMALL
USER_CHARGES

@<TRIPOS>ATOM
      1 C1         -0.0187    1.5258    0.0104 C.3       1 <0>        -0.1331
      2 C2          0.0021   -0.0041    0.0020 C.3       1 <0>        -0.0572
      3 C3         -1.4159   -0.5378    0.0735 C.3       1 <0>        -0.1036
      4 C4         -2.0778    0.0989    1.3057 C.3       1 <0>        -0.1199
      5 C5         -1.2984   -0.2007    2.5830 C.3       1 <0>        -0.0660
      6 H1         -1.3372   -1.2751    2.7625 H         1 <0>         0.0674
      7 C6          0.1739    0.2141    2.4646 C.3       1 <0>        -0.0703
      8 H2          0.2526    1.2937    2.3369 H         1 <0>         0.0869
      9 C7          0.7513   -0.5274    1.2567 C.3       1 <0>        -0.0830
     10 H3          0.6138   -1.6036    1.3607 H         1 <0>         0.0776
     11 C8          2.2065   -0.1916    0.9118 C.3       1 <0>        -0.1135
     12 C9          2.3043   -0.5732   -0.5906 C.3       1 <0>        -0.1573
     13 C10         0.8630   -0.5032   -1.1539 C.3       1 <0>         0.1102
     14 H4          0.5330   -1.4925   -1.4709 H         1 <0>         0.0566
     15 O1          0.8030    0.4140   -2.2480 O.3       1 <0>        -0.5599
     16 C11         0.8956   -0.2225    3.7452 C.3       1 <0>        -0.0859
     17 C12         0.2103    0.4051    4.9251 C.2       1 <0>        -0.1410
     18 C13        -1.0508    0.7245    4.9182 C.2       1 <0>        -0.1109
     19 C14        -1.9511    0.5024    3.7621 C.3       1 <0>        -0.0170
     20 C15        -3.1893   -0.2815    4.2070 C.3       1 <0>        -0.1001
     21 C16        -3.8910    0.4663    5.3441 C.3       1 <0>        -0.1766
     22 C17        -2.9135    0.6483    6.4838 C.2       1 <0>         0.3682
     23 O2         -3.1778    0.2614    7.5968 O.2       1 <0>        -0.4548
     24 C18        -1.6335    1.3627    6.1707 C.3       1 <0>        -0.1377
     25 C19        -2.4235    1.8799    3.2929 C.3       1 <0>        -0.1529
     26 H5          1.0039    1.9031    0.0027 H         1 <0>         0.0535
     27 H6         -0.5459    1.8868   -0.8726 H         1 <0>         0.0590
     28 H7         -0.5289    1.8773    0.9072 H         1 <0>         0.0606
     29 H8         -1.9632   -0.2600   -0.8272 H         1 <0>         0.0666
     30 H9         -1.3995   -1.6225    0.1796 H         1 <0>         0.0618
     31 H10        -2.1275    1.1785    1.1645 H         1 <0>         0.0770
     32 H11        -3.0902   -0.2920    1.4072 H         1 <0>         0.0628
     33 H12         2.4010    0.8715    1.0532 H         1 <0>         0.0707
     34 H13         2.8928   -0.7930    1.5079 H         1 <0>         0.0661
     35 H14         2.9458    0.1348   -1.1154 H         1 <0>         0.0724
     36 H15         2.6981   -1.5842   -0.6950 H         1 <0>         0.0666
     37 H16         1.3317    0.1488   -3.0130 H         1 <0>         0.3750
     38 H17         0.8562   -1.3081    3.8348 H         1 <0>         0.0754
     39 H18         1.9344    0.1056    3.7091 H         1 <0>         0.0741
     40 H19         0.7884    0.5990    5.8165 H         1 <0>         0.1079
     41 H20        -3.8739   -0.3867    3.3653 H         1 <0>         0.0803
     42 H21        -2.8877   -1.2696    4.5544 H         1 <0>         0.0669
     43 H22        -4.2240    1.4416    4.9892 H         1 <0>         0.1021
     44 H23        -4.7487   -0.1122    5.6873 H         1 <0>         0.0882
     45 H24        -0.9488    1.2273    7.0080 H         1 <0>         0.0925
     46 H25        -1.8046    2.4254    5.9994 H         1 <0>         0.1129
     47 H26        -3.1424    1.7608    2.4822 H         1 <0>         0.0667
     48 H27        -2.8962    2.4043    4.1235 H         1 <0>         0.0562
     49 H28        -1.5687    2.4560    2.9388 H         1 <0>         0.0588
@<TRIPOS>BOND
     1    1    2 1
     2    1   26 1
     3    1   27 1
     4    1   28 1
     5    2    9 1
     6    2   13 1
     7    2    3 1
     8    3    4 1
     9    3   29 1
    10    3   30 1
    11    4    5 1
    12    4   31 1
    13    4   32 1
    14    5    6 1
    15    5   19 1
    16    5    7 1
    17    7    8 1
    18    7    9 1
    19    7   16 1
    20    9   10 1
    21    9   11 1
    22   11   12 1
    23   11   33 1
    24   11   34 1
    25   12   13 1
    26   12   35 1
    27   12   36 1
    28   13   14 1
    29   13   15 1
    30   15   37 1
    31   16   17 1
    32   16   38 1
    33   16   39 1
    34   17   18 2
    35   17   40 1
    36   18   24 1
    37   18   19 1
    38   19   20 1
    39   19   25 1
    40   20   21 1
    41   20   41 1
    42   20   42 1
    43   21   22 1
    44   21   43 1
    45   21   44 1
    46   22   23 2
    47   22   24 1
    48   24   45 1
    49   24   46 1
    50   25   47 1
    51   25   48 1
    52   25   49 1
@<TRIPOS>MOLECULE
ZINC00538564
   43    44     0     0     0
SMALL
USER_CHARGES

@<TRIPOS>ATOM
      1 C1         -0.0322    1.5192    0.0160 C.3       1 <0>        -0.1779
      2 C2          0.0002   -0.0104    0.0036 C.3       1 <0>         0.1420
      3 C3          0.7455   -0.5148    1.2410 C.3       1 <0>        -0.6421
      4 S1         -0.0184    0.1804    2.7322 S.o2      1 <0>         2.5137
      5 O1          0.1999    1.5835    2.7852 O.2       1 <0>        -0.9239
      6 O2         -1.3216   -0.3572    2.9106 O.2       1 <0>        -0.9142
      7 C4          0.9243   -0.4722    4.0702 C.ar      1 <0>        -0.6815
      8 C5          0.5593   -1.6720    4.6517 C.ar      1 <0>         0.0062
      9 C6          1.2981   -2.1851    5.7009 C.ar      1 <0>        -0.1741
     10 C7          2.4044   -1.4968    6.1695 C.ar      1 <0>         0.1596
     11 C8          2.7690   -0.2952    5.5863 C.ar      1 <0>        -0.1736
     12 C9          2.0317    0.2133    4.5338 C.ar      1 <0>         0.0076
     13 F1          3.1271   -1.9972    7.1954 F         1 <0>        -0.1262
     14 C10         0.7078   -0.4878   -1.2383 C.2       1 <0>         0.5031
     15 O3          1.8909   -0.7516   -1.1987 O.2       1 <0>        -0.4976
     16 N1          0.0259   -0.6217   -2.3931 N.am      1 <0>        -0.6619
     17 C11         0.6990   -0.9709   -3.5645 C.ar      1 <0>         0.1712
     18 C12         1.7763   -1.8495   -3.5101 C.ar      1 <0>        -0.0928
     19 C13         2.4429   -2.1963   -4.6638 C.ar      1 <0>        -0.0476
     20 C14         2.0360   -1.6643   -5.8909 C.ar      1 <0>         0.0129
     21 C15         0.9534   -0.7820   -5.9416 C.ar      1 <0>        -0.1193
     22 C16         0.2878   -0.4441   -4.7842 C.ar      1 <0>        -0.0947
     23 C17         0.5109   -0.2059   -7.2620 C.3       1 <0>         0.5059
     24 F2         -0.5824    0.6427   -7.0576 F         1 <0>        -0.1694
     25 F3          1.5637    0.5187   -7.8309 F         1 <0>        -0.1688
     26 F4          0.1405   -1.2443   -8.1232 F         1 <0>        -0.1690
     27 C18         2.7271   -2.0223   -7.0929 C.1       1 <0>         0.2298
     28 N2          3.2753   -2.3063   -8.0464 N.1       1 <0>        -0.3736
     29 O4         -1.3366   -0.5153    0.0141 O.3       1 <0>        -0.5355
     30 H1          0.9874    1.9043    0.0081 H         1 <0>         0.0978
     31 H2         -0.5632    1.8785   -0.8655 H         1 <0>         0.0902
     32 H3         -0.5440    1.8645    0.9143 H         1 <0>         0.0988
     33 H4          0.6922   -1.6028    1.2789 H         1 <0>         0.1462
     34 H5          1.7889   -0.2038    1.1885 H         1 <0>         0.1617
     35 H6         -0.3039   -2.2085    4.2862 H         1 <0>         0.1539
     36 H7          1.0126   -3.1223    6.1552 H         1 <0>         0.1495
     37 H8          3.6315    0.2427    5.9513 H         1 <0>         0.1498
     38 H9          2.3185    1.1484    4.0758 H         1 <0>         0.1549
     39 H10        -0.9329   -0.4753   -2.4099 H         1 <0>         0.4261
     40 H11         2.0903   -2.2598   -2.5617 H         1 <0>         0.1599
     41 H12         3.2793   -2.8781   -4.6208 H         1 <0>         0.1529
     42 H13        -0.5516    0.2343   -4.8232 H         1 <0>         0.1566
     43 H14        -1.3925   -1.4807    0.0071 H         1 <0>         0.3933
@<TRIPOS>BOND
     1    1    2 1
     2    1   30 1
     3    1   31 1
     4    1   32 1
     5    2    3 1
     6    2   14 1
     7    2   29 1
     8    3    4 1
     9    3   33 1
    10    3   34 1
    11    4    5 2
    12    4    6 2
    13    4    7 1
    14    7   12 ar
    15    7    8 ar
    16    8    9 ar
    17    8   35 1
    18    9   10 ar
    19    9   36 1
    20   10   11 ar
    21   10   13 1
    22   11   12 ar
    23   11   37 1
    24   12   38 1
    25   14   15 2
    26   14   16 am
    27   16   17 1
    28   16   39 1
    29   17   22 ar
    30   17   18 ar
    31   18   19 ar
    32   18   40 1
    33   19   20 ar
    34   19   41 1
    35   20   21 ar
    36   20   27 1
    37   21   22 ar
    38   21   23 1
    39   22   42 1
    40   23   24 1
    41   23   25 1
    42   23   26 1
    43   27   28 3
    44   29   43 1
@<TRIPOS>MOLECULE
ZINC04216936
   52    55     0     0     0
SMALL
USER_CHARGES
17-hydroxy-7,13,17-trimethyl-1,2,6,7,8,9,10,11,12,14,15,16-dodecahydrocyclopenta[a]phenanthren-3-one
@<TRIPOS>ATOM
      1 C1         -2.6989   -0.5407    3.2295 C.3       1 <0>        -0.1536
      2 C2         -2.4484    0.9265    3.5839 C.3       1 <0>        -0.0837
      3 H1         -2.9522    1.1673    4.5200 H         1 <0>         0.0787
      4 C3         -2.9892    1.8220    2.4670 C.3       1 <0>        -0.0941
      5 C4         -2.1954    1.5546    1.2011 C.2       1 <0>        -0.0191
      6 C5         -2.8771    1.3314    0.0780 C.2       1 <0>        -0.2460
      7 C6         -2.1605    1.0840   -1.1779 C.2       1 <0>         0.3870
      8 O1         -2.6844    0.5122   -2.1109 O.2       1 <0>        -0.4578
      9 C7         -0.7296    1.5810   -1.2472 C.3       1 <0>        -0.1601
     10 C8         -0.0127    1.0858    0.0080 C.3       1 <0>        -0.1088
     11 C9         -0.7012    1.5644    1.2740 C.3       1 <0>        -0.0615
     12 H2         -0.3794    2.5878    1.4673 H         1 <0>         0.0899
     13 C10        -0.2296    0.7070    2.4569 C.3       1 <0>        -0.0744
     14 H3         -0.4937   -0.3315    2.2569 H         1 <0>         0.0776
     15 C11        -0.9437    1.1665    3.7361 C.3       1 <0>        -0.0706
     16 H4         -0.7523    2.2236    3.9210 H         1 <0>         0.0851
     17 C12        -0.4058    0.3336    4.8856 C.3       1 <0>        -0.0831
     18 H5         -0.5385   -0.7284    4.6788 H         1 <0>         0.0787
     19 C13        -0.9562    0.6801    6.2734 C.3       1 <0>        -0.1129
     20 C14         0.1448    0.1437    7.2284 C.3       1 <0>        -0.1506
     21 C15         1.4557    0.1020    6.4044 C.3       1 <0>         0.1368
     22 C16         1.1019    0.6744    5.0297 C.3       1 <0>        -0.0485
     23 C17         1.8098    0.0809    3.8265 C.3       1 <0>        -0.1013
     24 C18         1.2869    0.8181    2.5835 C.3       1 <0>        -0.1185
     25 C19         1.2911    2.1925    5.0511 C.3       1 <0>        -0.1339
     26 C20         1.9381   -1.3416    6.2485 C.3       1 <0>        -0.1757
     27 O2          2.4632    0.8942    7.0364 O.3       1 <0>        -0.5541
     28 H6         -2.1919   -0.7803    2.2948 H         1 <0>         0.0594
     29 H7         -2.3134   -1.1777    4.0256 H         1 <0>         0.0581
     30 H8         -3.7697   -0.7092    3.1157 H         1 <0>         0.0540
     31 H9         -2.8806    2.8683    2.7524 H         1 <0>         0.0840
     32 H10        -4.0411    1.5953    2.2937 H         1 <0>         0.0781
     33 H11        -3.9570    1.3329    0.0923 H         1 <0>         0.1330
     34 H12        -0.7253    2.5802   -1.2858 H         1 <0>         0.0898
     35 H13        -0.2401    1.1815   -2.1354 H         1 <0>         0.0913
     36 H14         0.0021   -0.0041    0.0020 H         1 <0>         0.0698
     37 H15         1.0129    1.4548    0.0002 H         1 <0>         0.0829
     38 H16        -1.0711    1.7583    6.3844 H         1 <0>         0.0701
     39 H17        -1.9029    0.1700    6.4511 H         1 <0>         0.0665
     40 H18         0.2597    0.8136    8.0805 H         1 <0>         0.0715
     41 H19        -0.1138   -0.8577    7.5724 H         1 <0>         0.0684
     42 H20         2.8859    0.2269    3.9195 H         1 <0>         0.0669
     43 H21         1.5836   -0.9826    3.7500 H         1 <0>         0.0649
     44 H22         1.5615    1.8706    2.6528 H         1 <0>         0.0687
     45 H23         1.7500    0.3891    1.6949 H         1 <0>         0.0654
     46 H24         0.7442    2.6149    5.8941 H         1 <0>         0.0539
     47 H25         2.3511    2.4252    5.1524 H         1 <0>         0.0593
     48 H26         0.9127    2.6190    4.1222 H         1 <0>         0.0590
     49 H27         1.1647   -1.9320    5.7571 H         1 <0>         0.0658
     50 H28         2.8460   -1.3582    5.6456 H         1 <0>         0.0652
     51 H29         2.1471   -1.7630    7.2317 H         1 <0>         0.0551
     52 H30         2.7036    0.5909    7.9226 H         1 <0>         0.3734
@<TRIPOS>BOND
     1    1    2 1
     2    1   28 1
     3    1   29 1
     4    1   30 1
     5    2    3 1
     6    2   15 1
     7    2    4 1
     8    4    5 1
     9    4   31 1
    10    4   32 1
    11    5   11 1
    12    5    6 2
    13    6    7 1
    14    6   33 1
    15    7    8 2
    16    7    9 1
    17    9   10 1
    18    9   34 1
    19    9   35 1
    20   10   11 1
    21   10   36 1
    22   10   37 1
    23   11   12 1
    24   11   13 1
    25   13   14 1
    26   13   24 1
    27   13   15 1
    28   15   16 1
    29   15   17 1
    30   17   18 1
    31   17   22 1
    32   17   19 1
    33   19   20 1
    34   19   38 1
    35   19   39 1
    36   20   21 1
    37   20   40 1
    38   20   41 1
    39   21   22 1
    40   21   26 1
    41   21   27 1
    42   22   23 1
    43   22   25 1
    44   23   24 1
    45   23   42 1
    46   23   43 1
    47   24   44 1
    48   24   45 1
    49   25   46 1
    50   25   47 1
    51   25   48 1
    52   26   49 1
    53   26   50 1
    54   26   51 1
    55   27   52 1
@<TRIPOS>MOLECULE
ZINC03804898
   61    65     0     0     0
SMALL
USER_CHARGES
ethynyl-dimethyl-methylsulfonyl-BLAHol
@<TRIPOS>ATOM
      1 C1         -7.1863    2.2059    2.5820 C.3       1 <0>        -0.1360
      2 C2         -7.5507    1.7804    1.1582 C.3       1 <0>        -0.0436
      3 C3         -6.7061    0.5904    0.7469 C.3       1 <0>        -0.1007
      4 C4         -5.2334    0.9856    0.9455 C.3       1 <0>        -0.1217
      5 C5         -4.8832    2.2451    0.1590 C.3       1 <0>        -0.0676
      6 H1         -4.9847    2.0056   -0.8995 H         1 <0>         0.0651
      7 C6         -5.8231    3.4008    0.4652 C.3       1 <0>        -0.0730
      8 H2         -5.7370    3.6934    1.5116 H         1 <0>         0.0865
      9 C7         -7.2364    2.9350    0.1685 C.3       1 <0>        -0.0818
     10 H3         -7.3125    2.5862   -0.8614 H         1 <0>         0.0764
     11 C8         -8.3515    3.9346    0.4952 C.3       1 <0>        -0.1124
     12 C9         -9.5971    3.0228    0.6660 C.3       1 <0>        -0.1451
     13 C10        -9.0623    1.6177    1.0396 C.3       1 <0>         0.2493
     14 C11        -9.3895    0.6492   -0.0195 C.1       1 <0>        -0.2076
     15 C12        -9.6505   -0.1233   -0.8641 C.1       1 <0>        -0.1830
     16 O1         -9.6141    1.1936    2.2876 O.3       1 <0>        -0.5405
     17 C13        -5.4554    4.5786   -0.4427 C.3       1 <0>        -0.1130
     18 C14        -4.0282    5.0148   -0.1200 C.3       1 <0>        -0.1159
     19 C15        -3.0434    3.8705   -0.3820 C.3       1 <0>        -0.0683
     20 H4         -3.0443    3.6220   -1.4433 H         1 <0>         0.0779
     21 C16        -3.4275    2.6363    0.4351 C.3       1 <0>        -0.0415
     22 C17        -2.5557    1.4386    0.0174 C.3       1 <0>        -0.0442
     23 C18        -1.1098    1.8560    0.0167 C.2       1 <0>        -0.1892
     24 C19        -0.0126    1.0758    0.0080 C.2       1 <0>         0.0633
     25 N1          1.0673    1.8888    0.0020 N.pl3     1 <0>        -0.7432
     26 N2          0.6108    3.2153    0.0121 N.2       1 <0>        -0.2477
     27 C20        -0.6907    3.1963    0.0249 C.2       1 <0>         0.1191
     28 C21        -1.6450    4.3608    0.0410 C.3       1 <0>        -0.0451
     29 S1          2.6507    1.4041   -0.0144 S.o2      1 <0>         2.6108
     30 O2          3.3642    2.4758    0.5871 O.2       1 <0>        -0.9139
     31 O3          2.6414    0.1147    0.5827 O.2       1 <0>        -0.9297
     32 C22         3.0808    1.2757   -1.7720 C.3       1 <0>        -0.6578
     33 C23        -3.2292    2.9230    1.9249 C.3       1 <0>        -0.1485
     34 H5         -7.7672    3.0859    2.8581 H         1 <0>         0.0564
     35 H6         -7.4087    1.3924    3.2724 H         1 <0>         0.0609
     36 H7         -6.1234    2.4425    2.6296 H         1 <0>         0.0663
     37 H8         -6.9471   -0.2693    1.3720 H         1 <0>         0.0640
     38 H9         -6.8889    0.3501   -0.3005 H         1 <0>         0.0628
     39 H10        -5.0553    1.1764    2.0038 H         1 <0>         0.0714
     40 H11        -4.5967    0.1626    0.6209 H         1 <0>         0.0654
     41 H12        -8.1333    4.4668    1.4211 H         1 <0>         0.0746
     42 H13        -8.4957    4.6342   -0.3282 H         1 <0>         0.0696
     43 H14       -10.1560    2.9740   -0.2686 H         1 <0>         0.0711
     44 H15       -10.2348    3.4046    1.4633 H         1 <0>         0.0799
     45 H16        -9.8839   -0.8142   -1.6196 H         1 <0>         0.2176
     46 H17       -10.5735    1.0732    2.2729 H         1 <0>         0.3778
     47 H18        -6.1407    5.4070   -0.2630 H         1 <0>         0.0656
     48 H19        -5.5172    4.2724   -1.4869 H         1 <0>         0.0623
     49 H20        -3.9698    5.3064    0.9286 H         1 <0>         0.0672
     50 H21        -3.7630    5.8675   -0.7450 H         1 <0>         0.0646
     51 H22        -2.8408    1.1117   -0.9826 H         1 <0>         0.0773
     52 H23        -2.6981    0.6198    0.7227 H         1 <0>         0.0807
     53 H24         0.0021   -0.0041    0.0020 H         1 <0>         0.1931
     54 H25        -1.6858    4.7847    1.0444 H         1 <0>         0.0954
     55 H26        -1.3050    5.1204   -0.6630 H         1 <0>         0.0877
     56 H27         2.9514    2.2469   -2.2496 H         1 <0>         0.1372
     57 H28         4.1189    0.9581   -1.8697 H         1 <0>         0.1423
     58 H29         2.4304    0.5449   -2.2527 H         1 <0>         0.1336
     59 H30        -2.1811    3.1554    2.1137 H         1 <0>         0.0568
     60 H31        -3.8479    3.7715    2.2171 H         1 <0>         0.0615
     61 H32        -3.5172    2.0464    2.5051 H         1 <0>         0.0594
@<TRIPOS>BOND
     1    1    2 1
     2    1   34 1
     3    1   35 1
     4    1   36 1
     5    2    9 1
     6    2   13 1
     7    2    3 1
     8    3    4 1
     9    3   37 1
    10    3   38 1
    11    4    5 1
    12    4   39 1
    13    4   40 1
    14    5    6 1
    15    5   21 1
    16    5    7 1
    17    7    8 1
    18    7    9 1
    19    7   17 1
    20    9   10 1
    21    9   11 1
    22   11   12 1
    23   11   41 1
    24   11   42 1
    25   12   13 1
    26   12   43 1
    27   12   44 1
    28   13   14 1
    29   13   16 1
    30   14   15 3
    31   15   45 1
    32   16   46 1
    33   17   18 1
    34   17   47 1
    35   17   48 1
    36   18   19 1
    37   18   49 1
    38   18   50 1
    39   19   20 1
    40   19   28 1
    41   19   21 1
    42   21   22 1
    43   21   33 1
    44   22   23 1
    45   22   51 1
    46   22   52 1
    47   23   27 1
    48   23   24 2
    49   24   25 1
    50   24   53 1
    51   25   26 1
    52   25   29 1
    53   26   27 2
    54   27   28 1
    55   28   54 1
    56   28   55 1
    57   29   30 2
    58   29   31 2
    59   29   32 1
    60   32   56 1
    61   32   57 1
    62   32   58 1
    63   33   59 1
    64   33   60 1
    65   33   61 1
@<TRIPOS>MOLECULE
ZINC04655055
   31    31     0     0     0
SMALL
USER_CHARGES

@<TRIPOS>ATOM
      1 C1          0.1892    0.9773    1.1891 C.3       1 <0>        -0.1692
      2 C2          0.1389   -0.3654    0.4574 C.3       1 <0>         0.1234
      3 C3          1.0643   -1.3627    1.1575 C.3       1 <0>        -0.1423
      4 C4         -1.2725   -0.8935    0.4729 C.2       1 <0>         0.4930
      5 O1         -2.0393   -0.5488    1.3471 O.2       1 <0>        -0.4994
      6 N1         -1.6826   -1.7487   -0.4846 N.am      1 <0>        -0.6660
      7 C5         -2.9606   -2.3144   -0.4167 C.ar      1 <0>         0.1983
      8 C6         -4.0240   -1.5734    0.0824 C.ar      1 <0>        -0.0962
      9 C7         -5.2840   -2.1345    0.1481 C.ar      1 <0>        -0.0286
     10 C8         -5.4877   -3.4330   -0.2824 C.ar      1 <0>        -0.0266
     11 C9         -4.4311   -4.1734   -0.7794 C.ar      1 <0>        -0.1027
     12 C10        -3.1695   -3.6158   -0.8535 C.ar      1 <0>        -0.0994
     13 C11        -4.6573   -5.5882   -1.2465 C.3       1 <0>         0.5149
     14 F1         -3.4497   -6.1274   -1.7026 F         1 <0>        -0.1719
     15 F2         -5.1401   -6.3587   -0.1833 F         1 <0>        -0.1574
     16 F3         -5.5922   -5.5918   -2.2873 F         1 <0>        -0.1574
     17 N2         -6.8396   -4.0313   -0.2106 N.pl3     1 <0>         0.0270
     18 O2         -7.7644   -3.3852    0.2241 O.2       1 <0>        -0.1376
     19 O3         -7.0191   -5.1663   -0.5866 O.3       1 <0>        -0.1428
     20 O4          0.5660   -0.1874   -0.8946 O.3       1 <0>        -0.5471
     21 H1          1.2100    1.3592    1.1779 H         1 <0>         0.0811
     22 H2         -0.4701    1.6878    0.6904 H         1 <0>         0.0656
     23 H3         -0.1366    0.8415    2.2204 H         1 <0>         0.0826
     24 H4          0.7385   -1.4985    2.1887 H         1 <0>         0.0817
     25 H5          1.0285   -2.3193    0.6362 H         1 <0>         0.0698
     26 H6          2.0851   -0.9807    1.1462 H         1 <0>         0.0857
     27 H7         -1.0918   -1.9721   -1.2208 H         1 <0>         0.4272
     28 H8         -3.8655   -0.5595    0.4191 H         1 <0>         0.1708
     29 H9         -6.1113   -1.5590    0.5364 H         1 <0>         0.1714
     30 H10        -2.3456   -4.1929   -1.2465 H         1 <0>         0.1668
     31 H11         0.0235    0.4334   -1.4000 H         1 <0>         0.3852
@<TRIPOS>BOND
     1    1    2 1
     2    1   21 1
     3    1   22 1
     4    1   23 1
     5    2    3 1
     6    2    4 1
     7    2   20 1
     8    3   24 1
     9    3   25 1
    10    3   26 1
    11    4    5 2
    12    4    6 am
    13    6    7 1
    14    6   27 1
    15    7   12 ar
    16    7    8 ar
    17    8    9 ar
    18    8   28 1
    19    9   10 ar
    20    9   29 1
    21   10   11 ar
    22   10   17 1
    23   11   12 ar
    24   11   13 1
    25   12   30 1
    26   13   14 1
    27   13   15 1
    28   13   16 1
    29   17   18 2
    30   17   19 1
    31   20   31 1
@<TRIPOS>MOLECULE
ZINC34392679
   49    50     0     0     0
SMALL
USER_CHARGES

@<TRIPOS>ATOM
      1 C1         -1.9870    1.4627   -2.3821 C.3       1 <0>        -0.1720
      2 C2         -1.7904   -0.0312   -2.3607 C.2       1 <0>         0.5099
      3 O1         -2.3172   -0.7244   -3.2052 O.2       1 <0>        -0.5284
      4 N1         -1.0291   -0.5971   -1.4033 N.am      1 <0>        -0.6737
      5 C3         -0.9238   -1.9921   -1.3253 C.ar      1 <0>         0.1052
      6 C4         -0.8319   -2.6135   -0.0871 C.ar      1 <0>        -0.1029
      7 C5         -0.7287   -3.9884   -0.0109 C.ar      1 <0>        -0.1290
      8 C6         -0.7163   -4.7487   -1.1712 C.ar      1 <0>         0.1149
      9 C7         -0.8076   -4.1284   -2.4086 C.ar      1 <0>        -0.1896
     10 C8         -0.9171   -2.7540   -2.4860 C.ar      1 <0>        -0.0781
     11 O2         -0.6141   -6.1024   -1.0955 O.3       1 <0>        -0.2999
     12 C9         -0.6074   -6.8225   -2.3298 C.3       1 <0>         0.0450
     13 C10        -0.4869   -8.3210   -2.0453 C.3       1 <0>         0.1320
     14 C11         0.7499   -8.5784   -1.1822 C.3       1 <0>        -0.1401
     15 C12        -0.3563   -9.0703   -3.3463 C.2       1 <0>         0.4987
     16 O3          0.0875   -8.5107   -4.3266 O.2       1 <0>        -0.4961
     17 N2         -0.7326  -10.3624   -3.4205 N.am      1 <0>        -0.6613
     18 C13        -0.5134  -11.0885   -4.5963 C.ar      1 <0>         0.2003
     19 C14         0.6060  -10.8284   -5.3764 C.ar      1 <0>        -0.0955
     20 C15         0.8194  -11.5468   -6.5363 C.ar      1 <0>        -0.0269
     21 C16        -0.0800  -12.5243   -6.9215 C.ar      1 <0>        -0.0259
     22 C17        -1.1955  -12.7852   -6.1474 C.ar      1 <0>        -0.1013
     23 C18        -1.4115  -12.0745   -4.9828 C.ar      1 <0>        -0.0989
     24 C19        -2.1734  -13.8506   -6.5714 C.3       1 <0>         0.5149
     25 F1         -3.2109  -13.9300   -5.6362 F         1 <0>        -0.1717
     26 F2         -2.7005  -13.5270   -7.8262 F         1 <0>        -0.1571
     27 F3         -1.5167  -15.0837   -6.6453 F         1 <0>        -0.1570
     28 N3          0.1518  -13.2924   -8.1654 N.pl3     1 <0>         0.0268
     29 O4          1.1266  -13.0649   -8.8435 O.2       1 <0>        -0.1370
     30 O5         -0.6335  -14.1471   -8.5033 O.3       1 <0>        -0.1417
     31 O6         -1.6532   -8.7697   -1.3522 O.3       1 <0>        -0.5346
     32 H1         -2.8631    1.7224   -1.7878 H         1 <0>         0.0987
     33 H2         -1.1067    1.9511   -1.9642 H         1 <0>         0.0834
     34 H3         -2.1335    1.7953   -3.4097 H         1 <0>         0.0979
     35 H4         -0.5541   -0.0386   -0.7681 H         1 <0>         0.4122
     36 H5         -0.8409   -2.0217    0.8163 H         1 <0>         0.1346
     37 H6         -0.6572   -4.4719    0.9522 H         1 <0>         0.1371
     38 H7         -0.7972   -4.7208   -3.3116 H         1 <0>         0.1306
     39 H8         -0.9931   -2.2716   -3.4492 H         1 <0>         0.1417
     40 H9         -1.5348   -6.6285   -2.8687 H         1 <0>         0.0722
     41 H10         0.2391   -6.4983   -2.9350 H         1 <0>         0.0893
     42 H11         0.6555   -8.0364   -0.2412 H         1 <0>         0.0955
     43 H12         0.8358   -9.6459   -0.9795 H         1 <0>         0.0733
     44 H13         1.6396   -8.2362   -1.7109 H         1 <0>         0.0820
     45 H14        -1.1554  -10.7889   -2.6588 H         1 <0>         0.4290
     46 H15         1.3085  -10.0650   -5.0764 H         1 <0>         0.1674
     47 H16         1.6894  -11.3448   -7.1435 H         1 <0>         0.1721
     48 H17        -2.2803  -12.2823   -4.3759 H         1 <0>         0.1678
     49 H18        -2.4767   -8.6375   -1.8416 H         1 <0>         0.3859
@<TRIPOS>BOND
     1    1    2 1
     2    1   32 1
     3    1   33 1
     4    1   34 1
     5    2    3 2
     6    2    4 am
     7    4    5 1
     8    4   35 1
     9    5   10 ar
    10    5    6 ar
    11    6    7 ar
    12    6   36 1
    13    7    8 ar
    14    7   37 1
    15    8    9 ar
    16    8   11 1
    17    9   10 ar
    18    9   38 1
    19   10   39 1
    20   11   12 1
    21   12   13 1
    22   12   40 1
    23   12   41 1
    24   13   14 1
    25   13   15 1
    26   13   31 1
    27   14   42 1
    28   14   43 1
    29   14   44 1
    30   15   16 2
    31   15   17 am
    32   17   18 1
    33   17   45 1
    34   18   23 ar
    35   18   19 ar
    36   19   20 ar
    37   19   46 1
    38   20   21 ar
    39   20   47 1
    40   21   22 ar
    41   21   28 1
    42   22   23 ar
    43   22   24 1
    44   23   48 1
    45   24   25 1
    46   24   26 1
    47   24   27 1
    48   28   29 2
    49   28   30 1
    50   31   49 1
@<TRIPOS>MOLECULE
ZINC19203912
   57    60     0     0     0
SMALL
USER_CHARGES

@<TRIPOS>ATOM
      1 C1          3.4437   -4.9771    0.0368 C.ar      1 <0>        -0.0771
      2 C2          4.3861   -4.5771    0.9651 C.ar      1 <0>        -0.1269
      3 C3          4.2792   -3.3364    1.5664 C.ar      1 <0>        -0.0516
      4 C4          3.2267   -2.4926    1.2411 C.ar      1 <0>        -0.1551
      5 C5          2.2729   -2.8934    0.3097 C.ar      1 <0>         0.1852
      6 C6          2.3926   -4.1422   -0.2915 C.ar      1 <0>        -0.1628
      7 N1          1.1945   -2.0826   -0.0347 N.pl3     1 <0>        -0.5629
      8 C7          1.1709   -0.6955    0.0853 C.ar      1 <0>         0.1857
      9 C8          0.3025    0.0332   -0.7210 C.ar      1 <0>        -0.1188
     10 C9          0.2496    1.4106   -0.6236 C.ar      1 <0>        -0.1465
     11 C10         1.0603    2.0760    0.2765 C.ar      1 <0>        -0.0780
     12 C11         1.9293    1.3621    1.0812 C.ar      1 <0>        -0.0563
     13 C12         1.9888   -0.0211    0.9875 C.ar      1 <0>        -0.1199
     14 S1          3.1095   -0.9136    2.0128 S.3       1 <0>         0.0509
     15 C13        -0.6948    2.1899   -1.5021 C.3       1 <0>         0.5116
     16 F1         -1.9265    2.3299   -0.8537 F         1 <0>        -0.1708
     17 F2         -0.1562    3.4554   -1.7584 F         1 <0>        -0.1684
     18 F3         -0.8783    1.5079   -2.7097 F         1 <0>        -0.1835
     19 C14        -0.0045   -2.7378   -0.5632 C.3       1 <0>         0.1189
     20 C15         0.1003   -2.8415   -2.0861 C.3       1 <0>        -0.1867
     21 C16        -1.1519   -3.5258   -2.6381 C.3       1 <0>        -0.0069
     22 N2         -1.0512   -3.6254   -4.1003 N.4       1 <0>        -0.3853
     23 C17        -1.0537   -2.2775   -4.6839 C.3       1 <0>        -0.0077
     24 C18        -0.9298   -2.3801   -6.2057 C.3       1 <0>         0.0276
     25 N3         -2.0555   -3.1635   -6.7342 N.3       1 <0>        -0.5292
     26 C19        -2.0806   -4.5075   -6.1400 C.3       1 <0>         0.0210
     27 C20        -2.1949   -4.3874   -4.6187 C.3       1 <0>        -0.0006
     28 C21        -2.0033   -3.2371   -8.2004 C.3       1 <0>         0.0537
     29 C22        -3.3078   -3.8378   -8.7277 C.3       1 <0>         0.0765
     30 O1         -4.3924   -2.9556   -8.4318 O.3       1 <0>        -0.5623
     31 H1          3.5314   -5.9436   -0.4370 H         1 <0>         0.1336
     32 H2          5.2052   -5.2329    1.2209 H         1 <0>         0.1378
     33 H3          5.0162   -3.0236    2.2912 H         1 <0>         0.1394
     34 H4          1.6604   -4.4608   -1.0187 H         1 <0>         0.1253
     35 H5         -0.3339   -0.4802   -1.4266 H         1 <0>         0.1363
     36 H6          1.0153    3.1525    0.3512 H         1 <0>         0.1503
     37 H7          2.5627    1.8822    1.7845 H         1 <0>         0.1518
     38 H8         -0.0908   -3.7369   -0.1361 H         1 <0>         0.1000
     39 H9         -0.8850   -2.1522   -0.2987 H         1 <0>         0.0969
     40 H10         0.1866   -1.8424   -2.5133 H         1 <0>         0.0961
     41 H11         0.9808   -3.4271   -2.3506 H         1 <0>         0.0983
     42 H12        -1.2382   -4.5248   -2.2109 H         1 <0>         0.1366
     43 H13        -2.0324   -2.9402   -2.3736 H         1 <0>         0.1359
     44 H14        -1.9853   -1.7726   -4.4284 H         1 <0>         0.1410
     45 H15        -0.2120   -1.7088   -4.2884 H         1 <0>         0.1346
     46 H16        -0.9466   -1.3806   -6.6402 H         1 <0>         0.1248
     47 H17         0.0081   -2.8727   -6.4619 H         1 <0>         0.0594
     48 H18        -2.9369   -5.0601   -6.5265 H         1 <0>         0.1240
     49 H19        -1.1616   -5.0352   -6.3950 H         1 <0>         0.0595
     50 H20        -2.1994   -5.3829   -4.1749 H         1 <0>         0.1362
     51 H21        -3.1207   -3.8717   -4.3635 H         1 <0>         0.1397
     52 H22        -1.8729   -2.2354   -8.6100 H         1 <0>         0.0976
     53 H23        -1.1655   -3.8653   -8.5031 H         1 <0>         0.0611
     54 H24        -3.2348   -3.9748   -9.8066 H         1 <0>         0.0597
     55 H25        -3.4830   -4.8019   -8.2501 H         1 <0>         0.0455
     56 H26        -5.2528   -3.2736   -8.7380 H         1 <0>         0.3848
     57 H27        -0.1938   -4.0966   -4.3468 H         1 <0>         0.4201
@<TRIPOS>BOND
     1    1    6 ar
     2    1    2 ar
     3    1   31 1
     4    2    3 ar
     5    2   32 1
     6    3    4 ar
     7    3   33 1
     8    4   14 1
     9    4    5 ar
    10    5    6 ar
    11    5    7 1
    12    6   34 1
    13    7    8 1
    14    7   19 1
    15    8   13 ar
    16    8    9 ar
    17    9   10 ar
    18    9   35 1
    19   10   11 ar
    20   10   15 1
    21   11   12 ar
    22   11   36 1
    23   12   13 ar
    24   12   37 1
    25   13   14 1
    26   15   16 1
    27   15   17 1
    28   15   18 1
    29   19   20 1
    30   19   38 1
    31   19   39 1
    32   20   21 1
    33   20   40 1
    34   20   41 1
    35   21   22 1
    36   21   42 1
    37   21   43 1
    38   22   27 1
    39   22   23 1
    40   22   57 1
    41   23   24 1
    42   23   44 1
    43   23   45 1
    44   24   25 1
    45   24   46 1
    46   24   47 1
    47   25   26 1
    48   25   28 1
    49   26   27 1
    50   26   48 1
    51   26   49 1
    52   27   50 1
    53   27   51 1
    54   28   29 1
    55   28   52 1
    56   28   53 1
    57   29   30 1
    58   29   54 1
    59   29   55 1
    60   30   56 1
@<TRIPOS>MOLECULE
ZINC19203912
   56    59     0     0     0
SMALL
USER_CHARGES

@<TRIPOS>ATOM
      1 C1          3.4437   -4.9771    0.0368 C.ar      1 <0>        -0.0761
      2 C2          4.3861   -4.5771    0.9651 C.ar      1 <0>        -0.1361
      3 C3          4.2791   -3.3364    1.5665 C.ar      1 <0>        -0.0570
      4 C4          3.2267   -2.4926    1.2411 C.ar      1 <0>        -0.1593
      5 C5          2.2729   -2.8934    0.3097 C.ar      1 <0>         0.1939
      6 C6          2.3926   -4.1423   -0.2915 C.ar      1 <0>        -0.1569
      7 N1          1.1945   -2.0826   -0.0347 N.pl3     1 <0>        -0.5619
      8 C7          1.1709   -0.6955    0.0853 C.ar      1 <0>         0.1955
      9 C8          0.3025    0.0332   -0.7210 C.ar      1 <0>        -0.1146
     10 C9          0.2496    1.4106   -0.6236 C.ar      1 <0>        -0.1450
     11 C10         1.0603    2.0760    0.2765 C.ar      1 <0>        -0.0881
     12 C11         1.9293    1.3621    1.0812 C.ar      1 <0>        -0.0606
     13 C12         1.9888   -0.0211    0.9875 C.ar      1 <0>        -0.1248
     14 S1          3.1095   -0.9136    2.0128 S.3       1 <0>         0.0333
     15 C13        -0.6948    2.1899   -1.5021 C.3       1 <0>         0.5100
     16 F1         -1.9265    2.3299   -0.8538 F         1 <0>        -0.1736
     17 F2         -0.1562    3.4554   -1.7585 F         1 <0>        -0.1731
     18 F3         -0.8783    1.5079   -2.7098 F         1 <0>        -0.1757
     19 C14        -0.0045   -2.7378   -0.5632 C.3       1 <0>         0.1110
     20 C15         0.1003   -2.8415   -2.0861 C.3       1 <0>        -0.1461
     21 C16        -1.1519   -3.5258   -2.6381 C.3       1 <0>         0.0578
     22 N2         -1.0512   -3.6254   -4.1003 N.3       1 <0>        -0.5385
     23 C17        -1.0812   -2.2942   -4.7221 C.3       1 <0>         0.0549
     24 C18        -0.8944   -2.4363   -6.2345 C.3       1 <0>         0.0578
     25 N3         -1.9576   -3.2926   -6.7785 N.3       1 <0>        -0.5305
     26 C19        -1.9276   -4.6238   -6.1566 C.3       1 <0>         0.0544
     27 C20        -2.1144   -4.4817   -4.6442 C.3       1 <0>         0.0587
     28 C21        -1.8569   -3.3922   -8.2407 C.3       1 <0>         0.0540
     29 C22        -3.1092   -4.0765   -8.7927 C.3       1 <0>         0.0795
     30 O1         -4.2499   -3.2515   -8.5476 O.3       1 <0>        -0.5595
     31 H1          3.5314   -5.9437   -0.4370 H         1 <0>         0.1321
     32 H2          5.2051   -5.2329    1.2210 H         1 <0>         0.1329
     33 H3          5.0162   -3.0236    2.2912 H         1 <0>         0.1343
     34 H4          1.6604   -4.4608   -1.0187 H         1 <0>         0.1361
     35 H5         -0.3339   -0.4802   -1.4266 H         1 <0>         0.1444
     36 H6          1.0154    3.1525    0.3511 H         1 <0>         0.1457
     37 H7          2.5627    1.8822    1.7845 H         1 <0>         0.1470
     38 H8         -0.0908   -3.7369   -0.1361 H         1 <0>         0.0906
     39 H9         -0.8850   -2.1522   -0.2987 H         1 <0>         0.0854
     40 H10         0.1866   -1.8424   -2.5133 H         1 <0>         0.0726
     41 H11         0.9808   -3.4271   -2.3506 H         1 <0>         0.0833
     42 H12        -1.2382   -4.5248   -2.2109 H         1 <0>         0.0786
     43 H13        -2.0324   -2.9402   -2.3736 H         1 <0>         0.0388
     44 H14        -2.0403   -1.8186   -4.5173 H         1 <0>         0.0453
     45 H15        -0.2770   -1.6831   -4.3122 H         1 <0>         0.0803
     46 H16        -0.9452   -1.4526   -6.7012 H         1 <0>         0.0803
     47 H17         0.0765   -2.8870   -6.4403 H         1 <0>         0.0414
     48 H18        -2.7318   -5.2348   -6.5666 H         1 <0>         0.0801
     49 H19        -0.9685   -5.0993   -6.3615 H         1 <0>         0.0413
     50 H20        -2.0636   -5.4654   -4.1775 H         1 <0>         0.0795
     51 H21        -3.0853   -4.0310   -4.4385 H         1 <0>         0.0447
     52 H22        -1.7706   -2.3931   -8.6678 H         1 <0>         0.0833
     53 H23        -0.9764   -3.9778   -8.5052 H         1 <0>         0.0490
     54 H24        -2.9959   -4.2305   -9.8658 H         1 <0>         0.0487
     55 H25        -3.2443   -5.0392   -8.2997 H         1 <0>         0.0452
     56 H26        -5.0815   -3.6238   -8.8718 H         1 <0>         0.3752
@<TRIPOS>BOND
     1    1    6 ar
     2    1    2 ar
     3    1   31 1
     4    2    3 ar
     5    2   32 1
     6    3    4 ar
     7    3   33 1
     8    4   14 1
     9    4    5 ar
    10    5    6 ar
    11    5    7 1
    12    6   34 1
    13    7    8 1
    14    7   19 1
    15    8   13 ar
    16    8    9 ar
    17    9   10 ar
    18    9   35 1
    19   10   11 ar
    20   10   15 1
    21   11   12 ar
    22   11   36 1
    23   12   13 ar
    24   12   37 1
    25   13   14 1
    26   15   16 1
    27   15   17 1
    28   15   18 1
    29   19   20 1
    30   19   38 1
    31   19   39 1
    32   20   21 1
    33   20   40 1
    34   20   41 1
    35   21   22 1
    36   21   42 1
    37   21   43 1
    38   22   27 1
    39   22   23 1
    40   23   24 1
    41   23   44 1
    42   23   45 1
    43   24   25 1
    44   24   46 1
    45   24   47 1
    46   25   26 1
    47   25   28 1
    48   26   27 1
    49   26   48 1
    50   26   49 1
    51   27   50 1
    52   27   51 1
    53   28   29 1
    54   28   52 1
    55   28   53 1
    56   29   30 1
    57   29   54 1
    58   29   55 1
    59   30   56 1
@<TRIPOS>MOLECULE
ZINC01538192
   44    45     0     0     0
SMALL
USER_CHARGES
4-[3-(4-hydroxybutyl)-4,4-dimethyl-2,5-dioxo-imidazolidin-1-yl]-2-(trifluoromethyl)benzonitrile
@<TRIPOS>ATOM
      1 C1          4.3413   -1.3859   -1.2037 C.3       1 <0>        -0.1485
      2 C2          4.0056   -0.5255    0.0161 C.3       1 <0>         0.1217
      3 C3          2.5185   -0.2383    0.0783 C.2       1 <0>         0.5281
      4 O1          1.6208   -1.0457    0.1880 O.2       1 <0>        -0.4372
      5 N1          2.4018    1.1010   -0.0154 N.am      1 <0>        -0.5228
      6 C4          3.5964    1.6943   -0.1197 C.2       1 <0>         0.7030
      7 O2          3.7478    2.8966   -0.2127 O.2       1 <0>        -0.5215
      8 N2          4.6113    0.8114   -0.1101 N.am      1 <0>        -0.6078
      9 C5          6.0403    1.1193   -0.2071 C.3       1 <0>         0.1496
     10 C6          6.6134    1.3282    1.1960 C.3       1 <0>        -0.1409
     11 C7          8.1058    1.6497    1.0947 C.3       1 <0>        -0.1184
     12 C8          8.6789    1.8587    2.4979 C.3       1 <0>         0.0755
     13 O3         10.0728    2.1590    2.4032 O.3       1 <0>        -0.5757
     14 C9          1.1827    1.7865    0.0004 C.ar      1 <0>         0.1639
     15 C10         1.1691    3.1767    0.0330 C.ar      1 <0>        -0.1047
     16 C11        -0.0291    3.8550    0.0548 C.ar      1 <0>        -0.0467
     17 C12        -1.2327    3.1447    0.0321 C.ar      1 <0>         0.0174
     18 C13        -1.2149    1.7479   -0.0006 C.ar      1 <0>        -0.1206
     19 C14        -0.0123    1.0764   -0.0161 C.ar      1 <0>        -0.0953
     20 C15        -2.5098    0.9771   -0.0195 C.3       1 <0>         0.5069
     21 F1         -2.2356   -0.3944   -0.0520 F         1 <0>        -0.1661
     22 F2         -3.2483    1.2779    1.1299 F         1 <0>        -0.1686
     23 F3         -3.2474    1.3323   -1.1540 F         1 <0>        -0.1687
     24 C16        -2.4808    3.8466    0.0487 C.1       1 <0>         0.2306
     25 N3         -3.4709    4.4033    0.0619 N.1       1 <0>        -0.3717
     26 C17         4.4750   -1.2100    1.3014 C.3       1 <0>        -0.1494
     27 H1          5.4229   -1.4945   -1.2851 H         1 <0>         0.0852
     28 H2          3.8849   -2.3693   -1.0914 H         1 <0>         0.0897
     29 H3          3.9555   -0.9069   -2.1036 H         1 <0>         0.0698
     30 H4          6.5583    0.2915   -0.6916 H         1 <0>         0.0941
     31 H5          6.1773    2.0272   -0.7944 H         1 <0>         0.0971
     32 H6          6.0955    2.1559    1.6805 H         1 <0>         0.0733
     33 H7          6.4764    0.4202    1.7834 H         1 <0>         0.0730
     34 H8          8.6237    0.8220    0.6103 H         1 <0>         0.0740
     35 H9          8.2428    2.5577    0.5074 H         1 <0>         0.0751
     36 H10         8.1610    2.6864    2.9823 H         1 <0>         0.0462
     37 H11         8.5419    0.9507    3.0852 H         1 <0>         0.0455
     38 H12        10.5027    2.3039    3.2572 H         1 <0>         0.3828
     39 H13         2.0995    3.7249    0.0457 H         1 <0>         0.1832
     40 H14        -0.0388    4.9346    0.0849 H         1 <0>         0.1577
     41 H15         0.0022   -0.0032   -0.0414 H         1 <0>         0.1771
     42 H16         4.1831   -0.6074    2.1614 H         1 <0>         0.0691
     43 H17         4.0165   -2.1961    1.3761 H         1 <0>         0.0891
     44 H18         5.5598   -1.3143    1.2821 H         1 <0>         0.0861
@<TRIPOS>BOND
     1    1    2 1
     2    1   27 1
     3    1   28 1
     4    1   29 1
     5    2    8 1
     6    2    3 1
     7    2   26 1
     8    3    4 2
     9    3    5 am
    10    5    6 am
    11    5   14 1
    12    6    7 2
    13    6    8 am
    14    8    9 1
    15    9   10 1
    16    9   30 1
    17    9   31 1
    18   10   11 1
    19   10   32 1
    20   10   33 1
    21   11   12 1
    22   11   34 1
    23   11   35 1
    24   12   13 1
    25   12   36 1
    26   12   37 1
    27   13   38 1
    28   14   19 ar
    29   14   15 ar
    30   15   16 ar
    31   15   39 1
    32   16   17 ar
    33   16   40 1
    34   17   18 ar
    35   17   24 1
    36   18   19 ar
    37   18   20 1
    38   19   41 1
    39   20   21 1
    40   20   22 1
    41   20   23 1
    42   24   25 3
    43   26   42 1
    44   26   43 1
    45   26   44 1
