@<TRIPOS>MOLECULE
ZINC04428529
   53    56     0     0     0
SMALL
USER_CHARGES

@<TRIPOS>ATOM
      1 C1          0.4282    0.7651    1.2384 C.3       1 <0>        -0.2080
      2 C2          0.0050   -0.0027    0.0127 C.2       1 <0>         0.3647
      3 O1          0.7040   -0.0010   -0.9721 O.2       1 <0>        -0.4542
      4 C3         -1.2905   -0.7727    0.0158 C.3       1 <0>        -0.1325
      5 H1         -2.0415   -0.2446    0.6034 H         1 <0>         0.0972
      6 C4         -1.7935   -0.9827   -1.4341 C.3       1 <0>        -0.1186
      7 C5         -1.9305   -2.5169   -1.6323 C.3       1 <0>        -0.1151
      8 C6         -2.1068   -3.0336   -0.2000 C.3       1 <0>        -0.0796
      9 H2         -3.1156   -2.8264    0.1569 H         1 <0>         0.0777
     10 C7         -1.0708   -2.1742    0.5759 C.3       1 <0>        -0.0487
     11 C8         -1.3489   -2.3630    2.0549 C.3       1 <0>        -0.1047
     12 C9         -1.0643   -3.8367    2.3850 C.3       1 <0>        -0.1222
     13 C10        -1.9046   -4.7802    1.5293 C.3       1 <0>        -0.0680
     14 H3         -2.9551   -4.6575    1.7928 H         1 <0>         0.0704
     15 C11        -1.7585   -4.4942    0.0214 C.3       1 <0>        -0.0776
     16 H4         -0.7305   -4.6831   -0.2877 H         1 <0>         0.0863
     17 C12        -2.7266   -5.3822   -0.7660 C.3       1 <0>        -0.1118
     18 C13        -2.3186   -6.8466   -0.5915 C.3       1 <0>        -0.0977
     19 C14        -2.2642   -7.1658    0.8913 C.2       1 <0>        -0.0206
     20 C15        -2.8820   -8.2703    1.3099 C.2       1 <0>        -0.2434
     21 H5         -3.4070   -8.8958    0.6032 H         1 <0>         0.1337
     22 C16        -2.8495   -8.6362    2.7300 C.2       1 <0>         0.3882
     23 O2         -3.6756   -9.3796    3.2168 O.2       1 <0>        -0.4580
     24 C17        -1.7290   -8.0371    3.5574 C.3       1 <0>        -0.1668
     25 H6         -1.9153   -8.2141    4.6167 H         1 <0>         0.0925
     26 H7         -0.7768   -8.4825    3.2693 H         1 <0>         0.0997
     27 C18        -1.7074   -6.5351    3.2776 C.3       1 <0>        -0.1069
     28 C19        -1.4839   -6.2270    1.8163 C.3       1 <0>        -0.0241
     29 C20         0.0121   -6.3503    1.5204 C.3       1 <0>        -0.1492
     30 C21         0.3461   -2.6481    0.2465 C.3       1 <0>        -0.1572
     31 H8          1.3837    1.2542    1.0489 H         1 <0>         0.0809
     32 H9         -0.3247    1.5173    1.4738 H         1 <0>         0.0918
     33 H10         0.5316    0.0791    2.0791 H         1 <0>         0.0918
     34 H11        -2.7617   -0.5002   -1.5678 H         1 <0>         0.0675
     35 H12        -1.0717   -0.5769   -2.1430 H         1 <0>         0.0790
     36 H13        -2.8065   -2.7509   -2.2372 H         1 <0>         0.0676
     37 H14        -1.0279   -2.9297   -2.0829 H         1 <0>         0.0698
     38 H15        -0.6944   -1.7180    2.6411 H         1 <0>         0.0661
     39 H16        -2.3917   -2.1291    2.2695 H         1 <0>         0.0682
     40 H17        -0.0085   -4.0427    2.2091 H         1 <0>         0.0749
     41 H18        -1.2894   -4.0152    3.4365 H         1 <0>         0.0667
     42 H19        -3.7398   -5.2390   -0.3905 H         1 <0>         0.0659
     43 H20        -2.6874   -5.1165   -1.8224 H         1 <0>         0.0725
     44 H21        -3.0518   -7.4905   -1.0771 H         1 <0>         0.0771
     45 H22        -1.3365   -7.0077   -1.0361 H         1 <0>         0.0840
     46 H23        -2.6504   -6.0986    3.6068 H         1 <0>         0.0701
     47 H24        -0.8915   -6.0806    3.8396 H         1 <0>         0.0811
     48 H25         0.5667   -5.6628    2.1591 H         1 <0>         0.0702
     49 H26         0.3383   -7.3717    1.7166 H         1 <0>         0.0587
     50 H27         0.1972   -6.1043    0.4748 H         1 <0>         0.0638
     51 H28         1.0689   -2.0310    0.7800 H         1 <0>         0.0510
     52 H29         0.4614   -3.6883    0.5512 H         1 <0>         0.0714
     53 H30         0.5175   -2.5628   -0.8266 H         1 <0>         0.0644
@<TRIPOS>BOND
     1    1    2 1
     2    1   31 1
     3    1   32 1
     4    1   33 1
     5    2    3 2
     6    2    4 1
     7    4    5 1
     8    4   10 1
     9    4    6 1
    10    6    7 1
    11    6   34 1
    12    6   35 1
    13    7    8 1
    14    7   36 1
    15    7   37 1
    16    8    9 1
    17    8   15 1
    18    8   10 1
    19   10   11 1
    20   10   30 1
    21   11   12 1
    22   11   38 1
    23   11   39 1
    24   12   13 1
    25   12   40 1
    26   12   41 1
    27   13   14 1
    28   13   28 1
    29   13   15 1
    30   15   16 1
    31   15   17 1
    32   17   18 1
    33   17   42 1
    34   17   43 1
    35   18   19 1
    36   18   44 1
    37   18   45 1
    38   19   28 1
    39   19   20 2
    40   20   21 1
    41   20   22 1
    42   22   23 2
    43   22   24 1
    44   24   25 1
    45   24   26 1
    46   24   27 1
    47   27   28 1
    48   27   46 1
    49   27   47 1
    50   28   29 1
    51   29   48 1
    52   29   49 1
    53   29   50 1
    54   30   51 1
    55   30   52 1
    56   30   53 1
@<TRIPOS>MOLECULE
ZINC05029557
   62    65     0     0     0
SMALL
USER_CHARGES

@<TRIPOS>ATOM
      1 C1          0.2341    1.5655   -0.0976 C.3       1 <0>        -0.1535
      2 C2          0.1191    0.0403   -0.1367 C.3       1 <0>        -0.0666
      3 H1         -0.9308   -0.2454   -0.2012 H         1 <0>         0.0909
      4 C3          0.8733   -0.4999   -1.3535 C.3       1 <0>        -0.1079
      5 C4          0.8572   -2.0309   -1.3171 C.3       1 <0>        -0.0798
      6 H2         -0.1697   -2.3914   -1.2578 H         1 <0>         0.0881
      7 C5          1.6532   -2.5095   -0.0942 C.3       1 <0>        -0.0658
      8 H3          2.6561   -2.0846   -0.1352 H         1 <0>         0.0740
      9 C6          1.7601   -4.0309   -0.0478 C.3       1 <0>        -0.1247
     10 C7          2.3287   -4.6012   -1.3568 C.3       1 <0>        -0.0974
     11 C8          1.4185   -4.1389   -2.4785 C.3       1 <0>        -0.0440
     12 C9          1.5291   -2.5804   -2.5623 C.3       1 <0>        -0.0758
     13 H4          2.5733   -2.2696   -2.5976 H         1 <0>         0.0846
     14 C10         0.8218   -2.2794   -3.8884 C.3       1 <0>        -0.1168
     15 C11         1.3527   -3.3974   -4.8267 C.3       1 <0>        -0.1266
     16 C12         1.7937   -4.5873   -3.8873 C.3       1 <0>         0.0841
     17 C13         1.0448   -5.8430   -4.2524 C.2       1 <0>         0.3540
     18 O1          0.0153   -5.7714   -4.8795 O.2       1 <0>        -0.4317
     19 C14         1.5806   -7.1882   -3.8348 C.3       1 <0>        -0.2058
     20 O2          3.2029   -4.8059   -3.9785 O.3       1 <0>        -0.3267
     21 C15         3.6891   -5.1541   -5.1802 C.2       1 <0>         0.4503
     22 O3          2.9560   -5.1948   -6.1398 O.2       1 <0>        -0.4997
     23 C16         5.1493   -5.4943   -5.3326 C.3       1 <0>        -0.1484
     24 C17        -0.0258   -4.5412   -2.1735 C.3       1 <0>        -0.1603
     25 C18         0.9595   -2.0277    1.1861 C.3       1 <0>        -0.0285
     26 C19         0.7302   -0.5485    1.1217 C.2       1 <0>        -0.0150
     27 C20         1.0272    0.2880    2.1160 C.2       1 <0>        -0.2482
     28 C21         1.6049   -0.2282    3.3616 C.2       1 <0>         0.3876
     29 O4          2.2302    0.4842    4.1190 O.2       1 <0>        -0.4583
     30 C22         1.3789   -1.6989    3.6528 C.3       1 <0>        -0.1687
     31 C23         1.7675   -2.4782    2.3904 C.3       1 <0>        -0.1037
     32 C24        -0.4136   -2.6986    1.2594 C.3       1 <0>        -0.1520
     33 H5          1.2846    1.8491   -0.0331 H         1 <0>         0.0607
     34 H6         -0.2008    1.9860   -1.0043 H         1 <0>         0.0621
     35 H7         -0.2995    1.9479    0.7725 H         1 <0>         0.0617
     36 H8          0.3889   -0.1523   -2.2660 H         1 <0>         0.0726
     37 H9          1.9040   -0.1459   -1.3298 H         1 <0>         0.0674
     38 H10         2.4126   -4.3164    0.7773 H         1 <0>         0.0695
     39 H11         0.7692   -4.4518    0.1225 H         1 <0>         0.0747
     40 H12         3.3385   -4.2240   -1.5185 H         1 <0>         0.0767
     41 H13         2.3407   -5.6903   -1.3131 H         1 <0>         0.0676
     42 H14        -0.2597   -2.3530   -3.7742 H         1 <0>         0.0746
     43 H15         1.1052   -1.2954   -4.2621 H         1 <0>         0.0743
     44 H16         0.5615   -3.7281   -5.4996 H         1 <0>         0.0908
     45 H17         2.2039   -3.0312   -5.4006 H         1 <0>         0.0753
     46 H18         1.2511   -7.4116   -2.8201 H         1 <0>         0.1007
     47 H19         1.2084   -7.9546   -4.5147 H         1 <0>         0.0889
     48 H20         2.6700   -7.1715   -3.8677 H         1 <0>         0.0825
     49 H21         5.6464   -5.4023   -4.3669 H         1 <0>         0.0934
     50 H22         5.2480   -6.5171   -5.6962 H         1 <0>         0.1071
     51 H23         5.6095   -4.8094   -6.0448 H         1 <0>         0.1069
     52 H24        -0.3253   -4.1200   -1.2138 H         1 <0>         0.0837
     53 H25        -0.6818   -4.1623   -2.9572 H         1 <0>         0.0675
     54 H26        -0.0992   -5.6280   -2.1321 H         1 <0>         0.0558
     55 H27         0.8427    1.3462    2.0044 H         1 <0>         0.1412
     56 H28         2.0062   -2.0120    4.4874 H         1 <0>         0.0917
     57 H29         0.3296   -1.8723    3.8915 H         1 <0>         0.0996
     58 H30         1.5884   -3.5397    2.5616 H         1 <0>         0.0832
     59 H31         2.8271   -2.3266    2.1844 H         1 <0>         0.0698
     60 H32        -0.2883   -3.7811    1.2832 H         1 <0>         0.0695
     61 H33        -0.9295   -2.3726    2.1625 H         1 <0>         0.0591
     62 H34        -1.0012   -2.4200    0.3846 H         1 <0>         0.0635
@<TRIPOS>BOND
     1    1    2 1
     2    1   33 1
     3    1   34 1
     4    1   35 1
     5    2    3 1
     6    2   26 1
     7    2    4 1
     8    4    5 1
     9    4   36 1
    10    4   37 1
    11    5    6 1
    12    5   12 1
    13    5    7 1
    14    7    8 1
    15    7    9 1
    16    7   25 1
    17    9   10 1
    18    9   38 1
    19    9   39 1
    20   10   11 1
    21   10   40 1
    22   10   41 1
    23   11   16 1
    24   11   12 1
    25   11   24 1
    26   12   13 1
    27   12   14 1
    28   14   15 1
    29   14   42 1
    30   14   43 1
    31   15   16 1
    32   15   44 1
    33   15   45 1
    34   16   17 1
    35   16   20 1
    36   17   18 2
    37   17   19 1
    38   19   46 1
    39   19   47 1
    40   19   48 1
    41   20   21 1
    42   21   22 2
    43   21   23 1
    44   23   49 1
    45   23   50 1
    46   23   51 1
    47   24   52 1
    48   24   53 1
    49   24   54 1
    50   25   31 1
    51   25   26 1
    52   25   32 1
    53   26   27 2
    54   27   28 1
    55   27   55 1
    56   28   29 2
    57   28   30 1
    58   30   31 1
    59   30   56 1
    60   30   57 1
    61   31   58 1
    62   31   59 1
    63   32   60 1
    64   32   61 1
    65   32   62 1
@<TRIPOS>MOLECULE
ZINC05276265
   62    65     0     0     0
SMALL
USER_CHARGES
(17-acetyl-6,10,13-trimethyl-3-oxo-2,6,7,8,9,11,12,14,15,16-decahydro-1H-cyclopenta[a]phenanthren-17-yl) acetate
@<TRIPOS>ATOM
      1 C1         -2.4708    5.4937    3.8655 C.3       1 <0>        -0.1518
      2 C2         -3.0808    4.5941    2.7988 C.3       1 <0>        -0.0623
      3 H1         -3.1106    5.1245    1.8466 H         1 <0>         0.0903
      4 C3         -2.2270    3.3350    2.6431 C.3       1 <0>        -0.1075
      5 C4         -2.9204    2.2822    1.8063 C.3       1 <0>        -0.0585
      6 H2         -3.2140    1.4730    2.5296 H         1 <0>         0.0647
      7 C5         -4.2188    2.7160    1.1394 C.3       1 <0>        -0.0637
      8 H3         -4.7048    1.7645    0.8208 H         1 <0>         0.0658
      9 C6         -4.0309    3.4995   -0.1435 C.3       1 <0>        -0.1103
     10 C7         -3.1285    2.7353   -1.1348 C.3       1 <0>        -0.1045
     11 C8         -1.7969    2.4901   -0.4662 C.3       1 <0>        -0.0313
     12 C9         -2.0166    1.6313    0.7946 C.3       1 <0>        -0.0741
     13 H4         -2.4795    0.6633    0.4859 H         1 <0>         0.0795
     14 C10        -0.5721    1.3273    1.2143 C.3       1 <0>        -0.1177
     15 C11         0.1025    0.9960   -0.1483 C.3       1 <0>        -0.1320
     16 C12        -0.7991    1.6176   -1.2459 C.3       1 <0>         0.0790
     17 C13         0.0161    2.4741   -2.1759 C.2       1 <0>         0.3605
     18 O1          1.0613    2.9478   -1.8000 O.2       1 <0>        -0.4355
     19 C14        -0.4717    2.7409   -3.5766 C.3       1 <0>        -0.1993
     20 O2         -1.5019    0.5842   -1.9772 O.3       1 <0>        -0.3314
     21 C15        -0.7524   -0.3090   -2.6421 C.2       1 <0>         0.4526
     22 O3          0.4481   -0.1786   -2.6836 O.2       1 <0>        -0.5026
     23 C16        -1.4081   -1.4744   -3.3370 C.3       1 <0>        -0.1486
     24 C17        -1.1069    3.8229   -0.1858 C.3       1 <0>        -0.1568
     25 C18        -5.2092    3.3415    2.1089 C.3       1 <0>        -0.0297
     26 C19        -4.4702    4.1381    3.1649 C.2       1 <0>        -0.0089
     27 C20        -5.0328    4.3721    4.3394 C.2       1 <0>        -0.2402
     28 C21        -6.3597    3.8418    4.6634 C.2       1 <0>         0.3848
     29 O4         -6.9177    4.2140    5.6773 O.2       1 <0>        -0.4657
     30 C22        -7.0338    2.8468    3.7585 C.3       1 <0>        -0.1586
     31 C23        -6.0129    2.2349    2.8002 C.3       1 <0>        -0.1084
     32 C24        -6.1733    4.2796    1.3801 C.3       1 <0>        -0.1421
     33 H5         -2.4112    4.9503    4.8085 H         1 <0>         0.0600
     34 H6         -1.4702    5.7964    3.5567 H         1 <0>         0.0634
     35 H7         -3.0943    6.3784    3.9946 H         1 <0>         0.0601
     36 H8         -2.0884    2.9191    3.6564 H         1 <0>         0.0592
     37 H9         -1.2495    3.5898    2.2750 H         1 <0>         0.0801
     38 H10        -4.9959    3.6151   -0.6577 H         1 <0>         0.0680
     39 H11        -3.6272    4.4835    0.0568 H         1 <0>         0.0685
     40 H12        -2.9920    3.3332   -2.0370 H         1 <0>         0.0668
     41 H13        -3.5995    1.7857   -1.3943 H         1 <0>         0.0776
     42 H14        -0.5425    0.4565    1.8727 H         1 <0>         0.0718
     43 H15        -0.0981    2.1785    1.6905 H         1 <0>         0.0787
     44 H16         0.1575   -0.0848   -0.2801 H         1 <0>         0.0748
     45 H17         1.0993    1.4310   -0.1887 H         1 <0>         0.0933
     46 H18        -1.3833    2.3466   -3.6929 H         1 <0>         0.0746
     47 H19        -0.5167    3.8165   -3.7469 H         1 <0>         0.0954
     48 H20         0.2141    2.2880   -4.2926 H         1 <0>         0.0954
     49 H21        -1.6567   -1.1940   -4.3606 H         1 <0>         0.1063
     50 H22        -0.7235   -2.3225   -3.3487 H         1 <0>         0.1045
     51 H23        -2.3184   -1.7496   -2.8044 H         1 <0>         0.0954
     52 H24        -0.9391    4.3499   -1.1250 H         1 <0>         0.0562
     53 H25        -1.7384    4.4294    0.4634 H         1 <0>         0.0791
     54 H26        -0.1506    3.6409    0.3045 H         1 <0>         0.0693
     55 H27        -4.5517    4.9774    5.0932 H         1 <0>         0.1330
     56 H28        -7.7509    3.3057    3.2340 H         1 <0>         0.0941
     57 H29        -7.4678    2.0474    4.3729 H         1 <0>         0.0976
     58 H30        -6.5302    1.6410    2.0444 H         1 <0>         0.0800
     59 H31        -5.3301    1.5896    3.3561 H         1 <0>         0.0719
     60 H32        -6.7279    3.7181    0.6282 H         1 <0>         0.0669
     61 H33        -6.8704    4.7130    2.0973 H         1 <0>         0.0579
     62 H34        -5.6086    5.0761    0.8955 H         1 <0>         0.0646
@<TRIPOS>BOND
     1    1    2 1
     2    1   33 1
     3    1   34 1
     4    1   35 1
     5    2    3 1
     6    2   26 1
     7    2    4 1
     8    4    5 1
     9    4   36 1
    10    4   37 1
    11    5    6 1
    12    5   12 1
    13    5    7 1
    14    7    8 1
    15    7    9 1
    16    7   25 1
    17    9   10 1
    18    9   38 1
    19    9   39 1
    20   10   11 1
    21   10   40 1
    22   10   41 1
    23   11   16 1
    24   11   12 1
    25   11   24 1
    26   12   13 1
    27   12   14 1
    28   14   15 1
    29   14   42 1
    30   14   43 1
    31   15   16 1
    32   15   44 1
    33   15   45 1
    34   16   17 1
    35   16   20 1
    36   17   18 2
    37   17   19 1
    38   19   46 1
    39   19   47 1
    40   19   48 1
    41   20   21 1
    42   21   22 2
    43   21   23 1
    44   23   49 1
    45   23   50 1
    46   23   51 1
    47   24   52 1
    48   24   53 1
    49   24   54 1
    50   25   31 1
    51   25   26 1
    52   25   32 1
    53   26   27 2
    54   27   28 1
    55   27   55 1
    56   28   29 2
    57   28   30 1
    58   30   31 1
    59   30   56 1
    60   30   57 1
    61   31   58 1
    62   31   59 1
    63   32   60 1
    64   32   61 1
    65   32   62 1
@<TRIPOS>MOLECULE
ZINC00538564
   43    44     0     0     0
SMALL
USER_CHARGES

@<TRIPOS>ATOM
      1 C1         -0.0322    1.5192    0.0160 C.3       1 <0>        -0.1779
      2 C2          0.0002   -0.0104    0.0036 C.3       1 <0>         0.1420
      3 C3          0.7455   -0.5148    1.2410 C.3       1 <0>        -0.6421
      4 S1         -0.0184    0.1804    2.7322 S.o2      1 <0>         2.5137
      5 O1          0.1999    1.5835    2.7852 O.2       1 <0>        -0.9239
      6 O2         -1.3216   -0.3572    2.9106 O.2       1 <0>        -0.9142
      7 C4          0.9243   -0.4722    4.0702 C.ar      1 <0>        -0.6815
      8 C5          0.5593   -1.6720    4.6517 C.ar      1 <0>         0.0062
      9 C6          1.2981   -2.1851    5.7009 C.ar      1 <0>        -0.1741
     10 C7          2.4044   -1.4968    6.1695 C.ar      1 <0>         0.1596
     11 C8          2.7690   -0.2952    5.5863 C.ar      1 <0>        -0.1736
     12 C9          2.0317    0.2133    4.5338 C.ar      1 <0>         0.0076
     13 F1          3.1271   -1.9972    7.1954 F         1 <0>        -0.1262
     14 C10         0.7078   -0.4878   -1.2383 C.2       1 <0>         0.5031
     15 O3          1.8909   -0.7516   -1.1987 O.2       1 <0>        -0.4976
     16 N1          0.0259   -0.6217   -2.3931 N.am      1 <0>        -0.6619
     17 C11         0.6990   -0.9709   -3.5645 C.ar      1 <0>         0.1712
     18 C12         1.7763   -1.8495   -3.5101 C.ar      1 <0>        -0.0928
     19 C13         2.4429   -2.1963   -4.6638 C.ar      1 <0>        -0.0476
     20 C14         2.0360   -1.6643   -5.8909 C.ar      1 <0>         0.0129
     21 C15         0.9534   -0.7820   -5.9416 C.ar      1 <0>        -0.1193
     22 C16         0.2878   -0.4441   -4.7842 C.ar      1 <0>        -0.0947
     23 C17         0.5109   -0.2059   -7.2620 C.3       1 <0>         0.5059
     24 F2         -0.5824    0.6427   -7.0576 F         1 <0>        -0.1694
     25 F3          1.5637    0.5187   -7.8309 F         1 <0>        -0.1688
     26 F4          0.1405   -1.2443   -8.1232 F         1 <0>        -0.1690
     27 C18         2.7271   -2.0223   -7.0929 C.1       1 <0>         0.2298
     28 N2          3.2753   -2.3063   -8.0464 N.1       1 <0>        -0.3736
     29 O4         -1.3366   -0.5153    0.0141 O.3       1 <0>        -0.5355
     30 H1          0.9874    1.9043    0.0081 H         1 <0>         0.0978
     31 H2         -0.5632    1.8785   -0.8655 H         1 <0>         0.0902
     32 H3         -0.5440    1.8645    0.9143 H         1 <0>         0.0988
     33 H4          0.6922   -1.6028    1.2789 H         1 <0>         0.1462
     34 H5          1.7889   -0.2038    1.1885 H         1 <0>         0.1617
     35 H6         -0.3039   -2.2085    4.2862 H         1 <0>         0.1539
     36 H7          1.0126   -3.1223    6.1552 H         1 <0>         0.1495
     37 H8          3.6315    0.2427    5.9513 H         1 <0>         0.1498
     38 H9          2.3185    1.1484    4.0758 H         1 <0>         0.1549
     39 H10        -0.9329   -0.4753   -2.4099 H         1 <0>         0.4261
     40 H11         2.0903   -2.2598   -2.5617 H         1 <0>         0.1599
     41 H12         3.2793   -2.8781   -4.6208 H         1 <0>         0.1529
     42 H13        -0.5516    0.2343   -4.8232 H         1 <0>         0.1566
     43 H14        -1.3925   -1.4807    0.0071 H         1 <0>         0.3933
@<TRIPOS>BOND
     1    1    2 1
     2    1   30 1
     3    1   31 1
     4    1   32 1
     5    2    3 1
     6    2   14 1
     7    2   29 1
     8    3    4 1
     9    3   33 1
    10    3   34 1
    11    4    5 2
    12    4    6 2
    13    4    7 1
    14    7   12 ar
    15    7    8 ar
    16    8    9 ar
    17    8   35 1
    18    9   10 ar
    19    9   36 1
    20   10   11 ar
    21   10   13 1
    22   11   12 ar
    23   11   37 1
    24   12   38 1
    25   14   15 2
    26   14   16 am
    27   16   17 1
    28   16   39 1
    29   17   22 ar
    30   17   18 ar
    31   18   19 ar
    32   18   40 1
    33   19   20 ar
    34   19   41 1
    35   20   21 ar
    36   20   27 1
    37   21   22 ar
    38   21   23 1
    39   22   42 1
    40   23   24 1
    41   23   25 1
    42   23   26 1
    43   27   28 3
    44   29   43 1
@<TRIPOS>MOLECULE
ZINC00897408
   43    44     0     0     0
SMALL
USER_CHARGES

@<TRIPOS>ATOM
      1 C1         -0.0295    1.5317    0.0187 C.3       1 <0>        -0.1782
      2 C2         -0.0000    0.0020    0.0023 C.3       1 <0>         0.1414
      3 C3          0.7447   -0.5070    1.2381 C.3       1 <0>        -0.6415
      4 S1          2.3930    0.2476    1.3042 S.o2      1 <0>         2.5138
      5 O1          3.1950   -0.2340    0.2346 O.2       1 <0>        -0.9142
      6 O2          2.2833    1.6417    1.5566 O.2       1 <0>        -0.9241
      7 C4          3.1366   -0.4153    2.7576 C.ar      1 <0>        -0.6816
      8 C5          2.9811    0.2315    3.9695 C.ar      1 <0>         0.0075
      9 C6          3.5634   -0.2877    5.1102 C.ar      1 <0>        -0.1737
     10 C7          4.3028   -1.4562    5.0389 C.ar      1 <0>         0.1596
     11 C8          4.4578   -2.1031    3.8246 C.ar      1 <0>        -0.1740
     12 C9          3.8702   -1.5848    2.6862 C.ar      1 <0>         0.0064
     13 F1          4.8729   -1.9645    6.1533 F         1 <0>        -0.1262
     14 C10        -1.4108   -0.5278    0.0124 C.2       1 <0>         0.5030
     15 O3         -1.9347   -0.8376    1.0614 O.2       1 <0>        -0.4978
     16 N1         -2.0902   -0.6573   -1.1443 N.am      1 <0>        -0.6615
     17 C11        -3.3595   -1.2371   -1.1468 C.ar      1 <0>         0.1705
     18 C12        -4.2221   -1.0235   -0.0763 C.ar      1 <0>        -0.0923
     19 C13        -5.4751   -1.5939   -0.0753 C.ar      1 <0>        -0.0476
     20 C14        -5.8803   -2.3886   -1.1517 C.ar      1 <0>         0.0129
     21 C15        -5.0111   -2.6010   -2.2252 C.ar      1 <0>        -0.1198
     22 C16        -3.7613   -2.0225   -2.2220 C.ar      1 <0>        -0.0951
     23 C17        -5.4433   -3.4568   -3.3879 C.3       1 <0>         0.5058
     24 F2         -4.4107   -3.5200   -4.3297 F         1 <0>        -0.1695
     25 F3         -5.7393   -4.7463   -2.9331 F         1 <0>        -0.1691
     26 F4         -6.5812   -2.8986   -3.9803 F         1 <0>        -0.1688
     27 C18        -7.1826   -2.9840   -1.1540 C.1       1 <0>         0.2297
     28 N2         -8.2158   -3.4563   -1.1558 N.1       1 <0>        -0.3735
     29 O4          0.6697   -0.4489   -1.1767 O.3       1 <0>        -0.5352
     30 H1          0.9909    1.9149    0.0114 H         1 <0>         0.0988
     31 H2         -0.5601    1.8943   -0.8617 H         1 <0>         0.0900
     32 H3         -0.5404    1.8756    0.9181 H         1 <0>         0.0980
     33 H4          0.1862   -0.2389    2.1350 H         1 <0>         0.1615
     34 H5          0.8434   -1.5910    1.1820 H         1 <0>         0.1460
     35 H6          2.4046    1.1431    4.0248 H         1 <0>         0.1548
     36 H7          3.4421    0.2179    6.0568 H         1 <0>         0.1498
     37 H8          5.0346   -3.0144    3.7678 H         1 <0>         0.1496
     38 H9          3.9873   -2.0916    1.7397 H         1 <0>         0.1540
     39 H10        -1.6970   -0.3474   -1.9751 H         1 <0>         0.4262
     40 H11        -3.9082   -0.4097    0.7550 H         1 <0>         0.1609
     41 H12        -6.1441   -1.4279    0.7561 H         1 <0>         0.1532
     42 H13        -3.0908   -2.1826   -3.0533 H         1 <0>         0.1566
     43 H14         0.7258   -1.4112   -1.2536 H         1 <0>         0.3937
@<TRIPOS>BOND
     1    1    2 1
     2    1   30 1
     3    1   31 1
     4    1   32 1
     5    2    3 1
     6    2   14 1
     7    2   29 1
     8    3    4 1
     9    3   33 1
    10    3   34 1
    11    4    5 2
    12    4    6 2
    13    4    7 1
    14    7   12 ar
    15    7    8 ar
    16    8    9 ar
    17    8   35 1
    18    9   10 ar
    19    9   36 1
    20   10   11 ar
    21   10   13 1
    22   11   12 ar
    23   11   37 1
    24   12   38 1
    25   14   15 2
    26   14   16 am
    27   16   17 1
    28   16   39 1
    29   17   22 ar
    30   17   18 ar
    31   18   19 ar
    32   18   40 1
    33   19   20 ar
    34   19   41 1
    35   20   21 ar
    36   20   27 1
    37   21   22 ar
    38   21   23 1
    39   22   42 1
    40   23   24 1
    41   23   25 1
    42   23   26 1
    43   27   28 3
    44   29   43 1
