@<TRIPOS>MOLECULE
ZINC04217451
   51    53     0     0     0
SMALL
USER_CHARGES
2,5-diamino-6-[5-(6-aminopurin-9-yl)-3,4-dihydroxy-tetrahydrofuran-2-yl]-hexanoic acid
@<TRIPOS>ATOM
      1 C1          3.1969    3.0661   -0.0133 C.ar      1 <0>         0.3565
      2 N1          3.9808    2.0032   -0.0265 N.ar      1 <0>        -0.5701
      3 C2          3.4744    0.7746   -0.0274 C.ar      1 <0>         0.4542
      4 C3          2.0768    0.6264   -0.0144 C.ar      1 <0>        -0.0713
      5 C4          1.2867    1.7880   -0.0006 C.ar      1 <0>         0.3076
      6 N2          1.8839    2.9755   -0.0006 N.ar      1 <0>        -0.5322
      7 N3         -0.0164    1.3589    0.0095 N.pl3     1 <0>        -0.4792
      8 C5          0.0021   -0.0041    0.0020 C.2       1 <0>         0.2593
      9 N4          1.2311   -0.4319   -0.0120 N.2       1 <0>        -0.4421
     10 C6         -1.2091    2.2096    0.0200 C.3       1 <0>         0.3285
     11 H1         -1.0362    3.1036    0.6193 H         1 <0>         0.1277
     12 C7         -1.6195    2.5921   -1.4248 C.3       1 <0>         0.0336
     13 H2         -1.4571    1.7590   -2.1087 H         1 <0>         0.0914
     14 C8         -3.1303    2.8892   -1.2649 C.3       1 <0>         0.0455
     15 H3         -3.6891    2.4917   -2.1123 H         1 <0>         0.0932
     16 C9         -3.5241    2.1565    0.0323 C.3       1 <0>         0.0758
     17 H4         -3.8654    2.8768    0.7758 H         1 <0>         0.0908
     18 O1         -2.3509    1.4782    0.5158 O.3       1 <0>        -0.3612
     19 C10        -4.6311    1.1413   -0.2592 C.3       1 <0>        -0.1460
     20 C11        -5.1014    0.5090    1.0523 C.3       1 <0>         0.0368
     21 H5         -4.2468    0.0816    1.5766 H         1 <0>         0.1596
     22 C12        -6.1185   -0.5936    0.7509 C.3       1 <0>        -0.1574
     23 C13        -6.4951   -1.3089    2.0499 C.3       1 <0>        -0.1454
     24 C14        -7.5121   -2.4115    1.7486 C.3       1 <0>        -0.0172
     25 H6         -7.1097   -3.0785    0.9861 H         1 <0>         0.1476
     26 C15        -7.7904   -3.1953    3.0053 C.2       1 <0>         0.4488
     27 O2         -8.7871   -2.9693    3.6499 O.co2     1 <0>        -0.6069
     28 O3         -3.3527    4.2949   -1.1358 O.3       1 <0>        -0.5448
     29 O4         -0.9148    3.7550   -1.8642 O.3       1 <0>        -0.5233
     30 N5          4.3038   -0.3331   -0.0412 N.pl3     1 <0>        -0.7422
     31 H7          3.6503    4.0463   -0.0132 H         1 <0>         0.2101
     32 H8         -0.8739   -0.6357    0.0067 H         1 <0>         0.2233
     33 H9         -5.4691    1.6456   -0.7405 H         1 <0>         0.1134
     34 H10        -4.2467    0.3642   -0.9198 H         1 <0>         0.1296
     35 H11        -7.0111   -0.1531    0.3068 H         1 <0>         0.0825
     36 H12        -5.6821   -1.3101    0.0550 H         1 <0>         0.1306
     37 H13        -5.6024   -1.7494    2.4941 H         1 <0>         0.1303
     38 H14        -6.9315   -0.5924    2.7459 H         1 <0>         0.0798
     39 H15        -9.4249   -2.5173    0.9949 H         1 <0>         0.4445
     40 H16        -9.1526   -1.1844    1.9513 H         1 <0>         0.4344
     41 H17        -6.5240    1.9485    1.4299 H         1 <0>         0.4333
     42 H18        -5.9897    1.1584    2.7923 H         1 <0>         0.4415
     43 H19        -3.0685    4.8102   -1.9031 H         1 <0>         0.3992
     44 H20        -1.1376    4.0338   -2.7629 H         1 <0>         0.3902
     45 H21         4.1342   -0.8867    0.7742 H         1 <0>         0.3727
     46 H22         5.2669   -0.2178   -0.0500 H         1 <0>         0.3782
     47 O5         -6.9311   -4.1444    3.4086 O.co2     1 <0>        -0.6872
     48 N6         -8.7507   -1.7948    1.2418 N.4       1 <0>        -0.6300
     49 H23        -8.5336   -1.2394    0.4059 H         1 <0>         0.4152
     50 N7         -5.7092    1.5531    1.8961 N.4       1 <0>        -0.6521
     51 H24        -5.0217    2.2982    2.0586 H         1 <0>         0.4431
@<TRIPOS>BOND
     1    1    6 ar
     2    1    2 ar
     3    1   31 1
     4    2    3 ar
     5    3    4 ar
     6    3   30 1
     7    4    9 1
     8    4    5 ar
     9    5    6 ar
    10    5    7 1
    11    7    8 1
    12    7   10 1
    13    8    9 2
    14    8   32 1
    15   10   11 1
    16   10   18 1
    17   10   12 1
    18   12   13 1
    19   12   14 1
    20   12   29 1
    21   14   15 1
    22   14   16 1
    23   14   28 1
    24   16   17 1
    25   16   18 1
    26   16   19 1
    27   19   20 1
    28   19   33 1
    29   19   34 1
    30   20   21 1
    31   20   22 1
    32   20   50 1
    33   22   23 1
    34   22   35 1
    35   22   36 1
    36   23   24 1
    37   23   37 1
    38   23   38 1
    39   24   25 1
    40   24   26 1
    41   24   48 1
    42   26   27 2
    43   26   47 1
    44   28   43 1
    45   29   44 1
    46   30   45 1
    47   30   46 1
    48   39   48 1
    49   40   48 1
    50   41   50 1
    51   42   50 1
    52   48   49 1
    53   50   51 1
@<TRIPOS>MOLECULE
ZINC01656284
   39    40     0     0     0
SMALL
USER_CHARGES

@<TRIPOS>ATOM
      1 C1          0.0903    1.7222    0.5256 C.ar      1 <0>        -0.1415
      2 C2          1.2911    2.4018    0.4650 C.ar      1 <0>         0.0022
      3 C3          2.4624    1.7165    0.1992 C.ar      1 <0>        -0.6743
      4 C4          2.4357    0.3493   -0.0062 C.ar      1 <0>         0.0006
      5 C5          1.2382   -0.3361    0.0531 C.ar      1 <0>        -0.1645
      6 C6          0.0601    0.3491    0.3198 C.ar      1 <0>         0.2041
      7 N1         -1.1548   -0.3424    0.3810 N.am      1 <0>        -0.6746
      8 C7         -2.2917    0.2552   -0.0273 C.2       1 <0>         0.5033
      9 O1         -2.2499    1.3567   -0.5332 O.2       1 <0>        -0.4840
     10 C8         -3.6149   -0.4452    0.1447 C.3       1 <0>        -0.0677
     11 Cl1        -4.9366    0.6019   -0.4934 Cl        1 <0>        -0.1181
     12 S1          3.9922    2.5874    0.1215 S.o2      1 <0>         2.5852
     13 O2          4.8653    1.8040   -0.6806 O.2       1 <0>        -0.9358
     14 O3          3.6758    3.9370   -0.1914 O.2       1 <0>        -0.9338
     15 C9          4.6714    2.5934    1.7473 C.ar      1 <0>        -0.6724
     16 C10         4.3606    3.6190    2.6211 C.ar      1 <0>        -0.0001
     17 C11         4.8917    3.6268    3.8960 C.ar      1 <0>        -0.1407
     18 C12         5.7384    2.6029    4.3001 C.ar      1 <0>         0.2001
     19 C13         6.0483    1.5741    3.4203 C.ar      1 <0>        -0.1628
     20 C14         5.5097    1.5694    2.1485 C.ar      1 <0>        -0.0010
     21 N2          6.2786    2.6081    5.5909 N.am      1 <0>        -0.6743
     22 C15         5.5486    3.0710    6.6250 C.2       1 <0>         0.5042
     23 O4          4.4566    3.5597    6.4258 O.2       1 <0>        -0.4867
     24 C16         6.0893    2.9814    8.0288 C.3       1 <0>        -0.0675
     25 Cl2         4.8897    3.6782    9.1805 Cl        1 <0>        -0.1185
     26 H1         -0.8236    2.2573    0.7373 H         1 <0>         0.1461
     27 H2          1.3153    3.4696    0.6249 H         1 <0>         0.1479
     28 H3          3.3522   -0.1830   -0.2136 H         1 <0>         0.1482
     29 H4          1.2178   -1.4038   -0.1081 H         1 <0>         0.1392
     30 H5         -1.1787   -1.2519    0.7174 H         1 <0>         0.4175
     31 H6         -3.6012   -1.3874   -0.4032 H         1 <0>         0.1285
     32 H7         -3.7866   -0.6428    1.2028 H         1 <0>         0.1296
     33 H8          3.7021    4.4150    2.3062 H         1 <0>         0.1477
     34 H9          4.6491    4.4285    4.5778 H         1 <0>         0.1504
     35 H10         6.7065    0.7764    3.7316 H         1 <0>         0.1391
     36 H11         5.7471    0.7675    1.4651 H         1 <0>         0.1484
     37 H12         7.1784    2.2786    5.7415 H         1 <0>         0.4179
     38 H13         6.2718    1.9370    8.2819 H         1 <0>         0.1290
     39 H14         7.0231    3.5397    8.0949 H         1 <0>         0.1292
@<TRIPOS>BOND
     1    1    6 ar
     2    1    2 ar
     3    1   26 1
     4    2    3 ar
     5    2   27 1
     6    3    4 ar
     7    3   12 1
     8    4    5 ar
     9    4   28 1
    10    5    6 ar
    11    5   29 1
    12    6    7 1
    13    7    8 am
    14    7   30 1
    15    8    9 2
    16    8   10 1
    17   10   11 1
    18   10   31 1
    19   10   32 1
    20   12   13 2
    21   12   14 2
    22   12   15 1
    23   15   20 ar
    24   15   16 ar
    25   16   17 ar
    26   16   33 1
    27   17   18 ar
    28   17   34 1
    29   18   19 ar
    30   18   21 1
    31   19   20 ar
    32   19   35 1
    33   20   36 1
    34   21   22 am
    35   21   37 1
    36   22   23 2
    37   22   24 1
    38   24   25 1
    39   24   38 1
    40   24   39 1
@<TRIPOS>MOLECULE
ZINC09678795
   47    49     0     0     0
SMALL
USER_CHARGES

@<TRIPOS>ATOM
      1 C1         -0.0167    1.3781    0.0096 C.ar      1 <0>        -0.1246
      2 C2          1.1709    2.0855    0.0021 C.ar      1 <0>        -0.1201
      3 C3          2.3773    1.4107   -0.0130 C.ar      1 <0>        -0.1147
      4 C4          2.3960    0.0285   -0.0201 C.ar      1 <0>        -0.0812
      5 C5          1.2084   -0.6789   -0.0117 C.ar      1 <0>        -0.1127
      6 C6          0.0021   -0.0041    0.0020 C.ar      1 <0>        -0.1186
      7 C7          3.7112   -0.7071   -0.0376 C.3       1 <0>        -0.0870
      8 C8          4.1714   -0.9633    1.3989 C.3       1 <0>         0.1229
      9 N1          5.4498   -1.6784    1.3820 N.pl3     1 <0>        -1.1247
     10 S1          6.3681   -1.7656    2.7573 S.o2      1 <0>         2.7005
     11 O1          7.5167   -2.5359    2.4306 O.2       1 <0>        -0.9768
     12 O2          6.4582   -0.4434    3.2699 O.2       1 <0>        -0.9754
     13 C9          5.4527   -2.7016    3.9364 C.ar      1 <0>        -0.7714
     14 C10         4.5808   -2.0619    4.7982 C.ar      1 <0>         0.0115
     15 C11         3.8618   -2.7925    5.7237 C.ar      1 <0>        -0.1939
     16 C12         4.0152   -4.1716    5.7882 C.ar      1 <0>         0.3259
     17 C13         4.8920   -4.8111    4.9210 C.ar      1 <0>        -0.2794
     18 C14         5.6037   -4.0750    3.9942 C.ar      1 <0>         0.0333
     19 N2          3.2899   -4.9135    6.7233 N.2       1 <0>        -1.0766
     20 S2          3.4743   -6.5575    6.7986 S.o2      1 <0>         2.6042
     21 O3          2.9642   -7.0797    5.5794 O.2       1 <0>        -1.0206
     22 O4          4.8061   -6.7974    7.2321 O.2       1 <0>        -1.0195
     23 C15         2.4148   -7.1424    8.0793 C.ar      1 <0>        -0.6150
     24 C16         2.8831   -7.2307    9.3770 C.ar      1 <0>        -0.0104
     25 C17         2.0525   -7.6894   10.3820 C.ar      1 <0>        -0.1359
     26 C18         0.7522   -8.0603   10.0890 C.ar      1 <0>         0.0037
     27 C19         0.2841   -7.9717    8.7901 C.ar      1 <0>        -0.1362
     28 C20         1.1139   -7.5075    7.7870 C.ar      1 <0>        -0.0107
     29 Cl1        -0.2915   -8.6371   11.3507 Cl        1 <0>        -0.0720
     30 H1         -0.9591    1.9053    0.0259 H         1 <0>         0.1192
     31 H2          1.1563    3.1654    0.0076 H         1 <0>         0.1205
     32 H3          3.3051    1.9634   -0.0196 H         1 <0>         0.1231
     33 H4          1.2231   -1.7588   -0.0176 H         1 <0>         0.1242
     34 H5         -0.9258   -0.5567    0.0082 H         1 <0>         0.1213
     35 H6          3.5884   -1.6586   -0.5549 H         1 <0>         0.0804
     36 H7          4.4573   -0.1052   -0.5563 H         1 <0>         0.0801
     37 H8          4.2941   -0.0118    1.9163 H         1 <0>         0.0801
     38 H9          3.4252   -1.5652    1.9176 H         1 <0>         0.0710
     39 H10         5.7584   -2.1009    0.5651 H         1 <0>         0.4131
     40 H11         4.4622   -0.9896    4.7477 H         1 <0>         0.1224
     41 H12         3.1812   -2.2922    6.3967 H         1 <0>         0.1220
     42 H13         5.0139   -5.8831    4.9689 H         1 <0>         0.1059
     43 H14         6.2822   -4.5721    3.3168 H         1 <0>         0.1204
     44 H15         3.8982   -6.9415    9.6055 H         1 <0>         0.1473
     45 H16         2.4185   -7.7587   11.3957 H         1 <0>         0.1389
     46 H17        -0.7308   -8.2613    8.5608 H         1 <0>         0.1387
     47 H18         0.7472   -7.4338    6.7738 H         1 <0>         0.1470
@<TRIPOS>BOND
     1    1    6 ar
     2    1    2 ar
     3    1   30 1
     4    2    3 ar
     5    2   31 1
     6    3    4 ar
     7    3   32 1
     8    4    5 ar
     9    4    7 1
    10    5    6 ar
    11    5   33 1
    12    6   34 1
    13    7    8 1
    14    7   35 1
    15    7   36 1
    16    8    9 1
    17    8   37 1
    18    8   38 1
    19    9   10 1
    20    9   39 1
    21   10   11 2
    22   10   12 2
    23   10   13 1
    24   13   18 ar
    25   13   14 ar
    26   14   15 ar
    27   14   40 1
    28   15   16 ar
    29   15   41 1
    30   16   17 ar
    31   16   19 1
    32   17   18 ar
    33   17   42 1
    34   18   43 1
    35   19   20 1
    36   20   21 2
    37   20   22 2
    38   20   23 1
    39   23   28 ar
    40   23   24 ar
    41   24   25 ar
    42   24   44 1
    43   25   26 ar
    44   25   45 1
    45   26   27 ar
    46   26   29 1
    47   27   28 ar
    48   27   46 1
    49   28   47 1
@<TRIPOS>MOLECULE
ZINC09678795
   48    50     0     0     0
SMALL
USER_CHARGES

@<TRIPOS>ATOM
      1 C1          0.2422    1.6856    0.1856 C.ar      1 <0>        -0.1202
      2 C2          1.4644    2.3315    0.1805 C.ar      1 <0>        -0.1172
      3 C3          2.6344    1.5966    0.1379 C.ar      1 <0>        -0.1135
      4 C4          2.5823    0.2158    0.1008 C.ar      1 <0>        -0.0874
      5 C5          1.3602   -0.4302    0.1069 C.ar      1 <0>        -0.1138
      6 C6          0.1901    0.3047    0.1480 C.ar      1 <0>        -0.1178
      7 C7          3.8579   -0.5854    0.0534 C.3       1 <0>        -0.0866
      8 C8          4.3182   -0.8962    1.4790 C.3       1 <0>         0.1196
      9 N1          5.5582   -1.6750    1.4329 N.pl3     1 <0>        -1.1172
     10 S1          6.4840   -1.8392    2.7960 S.o2      1 <0>         2.6948
     11 O1          7.5885   -2.6596    2.4405 O.2       1 <0>        -0.9534
     12 O2          6.6466   -0.5349    3.3361 O.2       1 <0>        -0.9522
     13 C9          5.5334   -2.7531    3.9646 C.ar      1 <0>        -0.6878
     14 C10         4.7036   -2.0889    4.8493 C.ar      1 <0>        -0.0012
     15 C11         3.9571   -2.8022    5.7665 C.ar      1 <0>        -0.1486
     16 C12         4.0404   -4.1884    5.7997 C.ar      1 <0>         0.2001
     17 C13         4.8749   -4.8525    4.9095 C.ar      1 <0>        -0.1746
     18 C14         5.6144   -4.1334    3.9912 C.ar      1 <0>         0.0074
     19 N2          3.2872   -4.9129    6.7263 N.pl3     1 <0>        -1.0588
     20 S2          2.4424   -6.2519    6.2407 S.o2      1 <0>         2.6900
     21 O3          3.3644   -7.0866    5.5535 O.2       1 <0>        -0.9392
     22 O4          1.7057   -6.6990    7.3706 O.2       1 <0>        -0.9392
     23 C15         1.2605   -5.7180    5.0480 C.ar      1 <0>        -0.6791
     24 C16         0.0401   -5.2168    5.4609 C.ar      1 <0>        -0.0026
     25 C17        -0.8874   -4.7979    4.5258 C.ar      1 <0>        -0.1307
     26 C18        -0.5943   -4.8802    3.1761 C.ar      1 <0>         0.0228
     27 C19         0.6273   -5.3819    2.7635 C.ar      1 <0>        -0.1302
     28 C20         1.5562   -5.7953    3.6998 C.ar      1 <0>        -0.0032
     29 Cl1        -1.7590   -4.3547    2.0010 Cl        1 <0>        -0.0477
     30 H1         -0.6718    2.2596    0.2234 H         1 <0>         0.1216
     31 H2          1.5050    3.4104    0.2094 H         1 <0>         0.1233
     32 H3          3.5892    2.1013    0.1332 H         1 <0>         0.1242
     33 H4          1.3195   -1.5091    0.0775 H         1 <0>         0.1211
     34 H5         -0.7647   -0.2000    0.1523 H         1 <0>         0.1213
     35 H6          3.6816   -1.5178   -0.4829 H         1 <0>         0.0820
     36 H7          4.6288   -0.0109   -0.4602 H         1 <0>         0.0844
     37 H8          4.4945    0.0362    2.0154 H         1 <0>         0.0841
     38 H9          3.5472   -1.4707    1.9926 H         1 <0>         0.0681
     39 H10         5.8369   -2.0946    0.6039 H         1 <0>         0.4210
     40 H11         4.6396   -1.0111    4.8232 H         1 <0>         0.1471
     41 H12         3.3096   -2.2828    6.4574 H         1 <0>         0.1412
     42 H13         4.9423   -5.9301    4.9329 H         1 <0>         0.1671
     43 H14         6.2600   -4.6493    3.2959 H         1 <0>         0.1504
     44 H15        -0.1887   -5.1529    6.5145 H         1 <0>         0.1503
     45 H16        -1.8409   -4.4066    4.8485 H         1 <0>         0.1473
     46 H17         0.8565   -5.4467    1.7101 H         1 <0>         0.1470
     47 H18         2.5116   -6.1825    3.3779 H         1 <0>         0.1523
     48 H19         3.2589   -4.6317    7.6542 H         1 <0>         0.4336
@<TRIPOS>BOND
     1    1    6 ar
     2    1    2 ar
     3    1   30 1
     4    2    3 ar
     5    2   31 1
     6    3    4 ar
     7    3   32 1
     8    4    5 ar
     9    4    7 1
    10    5    6 ar
    11    5   33 1
    12    6   34 1
    13    7    8 1
    14    7   35 1
    15    7   36 1
    16    8    9 1
    17    8   37 1
    18    8   38 1
    19    9   10 1
    20    9   39 1
    21   10   11 2
    22   10   12 2
    23   10   13 1
    24   13   18 ar
    25   13   14 ar
    26   14   15 ar
    27   14   40 1
    28   15   16 ar
    29   15   41 1
    30   16   17 ar
    31   16   19 1
    32   17   18 ar
    33   17   42 1
    34   18   43 1
    35   19   20 1
    36   19   48 1
    37   20   21 2
    38   20   22 2
    39   20   23 1
    40   23   28 ar
    41   23   24 ar
    42   24   25 ar
    43   24   44 1
    44   25   26 ar
    45   25   45 1
    46   26   27 ar
    47   26   29 1
    48   27   28 ar
    49   27   46 1
    50   28   47 1
@<TRIPOS>MOLECULE
ZINC01576968
   48    51     0     0     0
SMALL
USER_CHARGES
4-hydroxy-7-[(5-hydroxy-7-sulfo-2-naphthyl)carbamoylamino]naphthalene-2-sulfonic acid
@<TRIPOS>ATOM
      1 C1         -8.4554    3.0643    0.9207 C.ar      1 <0>        -0.1075
      2 C2         -9.6157    3.7727    0.9463 C.ar      1 <0>        -0.0906
      3 C3        -10.7737    3.2417    0.3549 C.ar      1 <0>        -0.0582
      4 C4        -10.7205    1.9712   -0.2708 C.ar      1 <0>        -0.0429
      5 C5         -9.5086    1.2617   -0.2893 C.ar      1 <0>        -0.1268
      6 C6         -8.3918    1.8112    0.3005 C.ar      1 <0>         0.1590
      7 N1         -7.1832    1.1073    0.2844 N.am      1 <0>        -0.6807
      8 C7         -6.0170    1.7732    0.1707 C.2       1 <0>         0.7052
      9 O1         -6.0091    2.9890    0.1658 O.2       1 <0>        -0.5540
     10 N2         -4.8594    1.0914    0.0625 N.am      1 <0>        -0.6807
     11 C8         -3.6418    1.7795    0.0406 C.ar      1 <0>         0.1590
     12 C9         -3.5634    3.0288   -0.5854 C.ar      1 <0>        -0.1076
     13 C10        -2.3929    3.7197   -0.6212 C.ar      1 <0>        -0.0907
     14 C11        -1.2421    3.1794   -0.0242 C.ar      1 <0>        -0.0582
     15 C12        -1.3102    1.9122    0.6066 C.ar      1 <0>        -0.0430
     16 C13        -2.5324    1.2210    0.6357 C.ar      1 <0>        -0.1268
     17 C14        -0.1578    1.3769    1.2084 C.ar      1 <0>        -0.0183
     18 C15         1.0117    2.0727    1.1707 C.ar      1 <0>        -0.6418
     19 C16         1.0880    3.3155    0.5479 C.ar      1 <0>        -0.0607
     20 C17        -0.0152    3.8737   -0.0459 C.ar      1 <0>         0.0845
     21 O2          0.0735    5.0868   -0.6499 O.3       1 <0>        -0.4920
     22 S1          2.4518    1.3894    1.9217 S.o2      1 <0>         2.6979
     23 O3          3.3063    2.4820    2.2303 O.2       1 <0>        -1.0537
     24 O4          1.9991    0.4736    2.9094 O.2       1 <0>        -1.0543
     25 C18       -11.8815    1.4428   -0.8617 C.ar      1 <0>        -0.0184
     26 C19       -13.0425    2.1531   -0.8281 C.ar      1 <0>        -0.6418
     27 C20       -13.1026    3.4017   -0.2154 C.ar      1 <0>        -0.0607
     28 C21       -11.9919    3.9511    0.3726 C.ar      1 <0>         0.0846
     29 O5        -12.0649    5.1701    0.9668 O.3       1 <0>        -0.4920
     30 S2        -14.4919    1.4811   -1.5713 S.o2      1 <0>         2.6980
     31 O6        -15.3335    2.5815   -1.8877 O.2       1 <0>        -1.0537
     32 O7        -14.0519    0.5519   -2.5522 O.2       1 <0>        -1.0543
     33 H1         -7.5696    3.4760    1.3814 H         1 <0>         0.1424
     34 H2         -9.6481    4.7402    1.4252 H         1 <0>         0.1326
     35 H3         -9.4529    0.2923   -0.7621 H         1 <0>         0.1346
     36 H4         -7.1844    0.1399    0.3550 H         1 <0>         0.4086
     37 H5         -4.8707    0.1235   -0.0001 H         1 <0>         0.4087
     38 H6         -4.4448    3.4500   -1.0460 H         1 <0>         0.1428
     39 H7         -2.3480    4.6826   -1.1084 H         1 <0>         0.1325
     40 H8         -2.6007    0.2565    1.1168 H         1 <0>         0.1346
     41 H9         -0.1992    0.4139    1.6955 H         1 <0>         0.1428
     42 H10         2.0281    3.8467    0.5317 H         1 <0>         0.1405
     43 H11         0.3094    5.0434   -1.5867 H         1 <0>         0.3838
     44 H12       -11.8527    0.4754   -1.3410 H         1 <0>         0.1428
     45 H13       -14.0361    3.9447   -0.2026 H         1 <0>         0.1405
     46 H14       -12.3003    5.1373    1.9041 H         1 <0>         0.3837
     47 O8          3.1655    0.5656    0.8593 O.3       1 <0>        -1.0748
     48 O9        -15.2139    0.6749   -0.5012 O.3       1 <0>        -1.0748
@<TRIPOS>BOND
     1    1    6 ar
     2    1    2 ar
     3    1   33 1
     4    2    3 ar
     5    2   34 1
     6    3   28 ar
     7    3    4 ar
     8    4    5 ar
     9    4   25 ar
    10    5    6 ar
    11    5   35 1
    12    6    7 1
    13    7    8 am
    14    7   36 1
    15    8    9 2
    16    8   10 am
    17   10   11 1
    18   10   37 1
    19   11   16 ar
    20   11   12 ar
    21   12   13 ar
    22   12   38 1
    23   13   14 ar
    24   13   39 1
    25   14   20 ar
    26   14   15 ar
    27   15   16 ar
    28   15   17 ar
    29   16   40 1
    30   17   18 ar
    31   17   41 1
    32   18   19 ar
    33   18   22 1
    34   19   20 ar
    35   19   42 1
    36   20   21 1
    37   21   43 1
    38   22   23 2
    39   22   24 2
    40   22   47 1
    41   25   26 ar
    42   25   44 1
    43   26   27 ar
    44   26   30 1
    45   27   28 ar
    46   27   45 1
    47   28   29 1
    48   29   46 1
    49   30   31 2
    50   30   32 2
    51   30   48 1
@<TRIPOS>MOLECULE
ZINC01666223
   41    43     0     0     0
SMALL
USER_CHARGES

@<TRIPOS>ATOM
      1 C1         -0.0168    1.3849    0.0097 C.ar      1 <0>        -0.2184
      2 C2          1.1707    2.0901    0.0021 C.ar      1 <0>         0.0264
      3 C3          2.3774    1.4150   -0.0135 C.ar      1 <0>        -0.7098
      4 C4          2.3998    0.0323   -0.0211 C.ar      1 <0>         0.0271
      5 C5          1.2161   -0.6790   -0.0137 C.ar      1 <0>        -0.2176
      6 C6          0.0021   -0.0041    0.0020 C.ar      1 <0>         0.2628
      7 N1         -1.1970   -0.7204    0.0101 N.pl3     1 <0>        -0.8694
      8 S1          3.8900    2.3186   -0.0243 S.o2      1 <0>         2.5901
      9 O1          4.8717    1.4606   -0.5894 O.2       1 <0>        -0.9476
     10 O2          3.5945    3.5988   -0.5657 O.2       1 <0>        -0.9509
     11 C7          4.3543    2.5774    1.6557 C.ar      1 <0>        -0.7135
     12 C8          3.9168    3.7047    2.3265 C.ar      1 <0>         0.0170
     13 C9          4.2788    3.9106    3.6433 C.ar      1 <0>        -0.2111
     14 C10         5.0833    2.9836    4.2938 C.ar      1 <0>         0.2588
     15 C11         5.5210    1.8523    3.6170 C.ar      1 <0>        -0.2027
     16 C12         5.1506    1.6498    2.3020 C.ar      1 <0>         0.0222
     17 N2          5.4517    3.1890    5.6254 N.pl3     1 <0>        -0.7328
     18 C13         6.3003    2.2103    6.3099 C.3       1 <0>         0.3200
     19 N3          7.7004    2.6325    6.2229 N.am      1 <0>        -0.5909
     20 C14         8.4515    2.2277    5.1752 C.2       1 <0>         0.4843
     21 O3          7.9894    1.5212    4.3037 O.2       1 <0>        -0.4654
     22 C15         9.8793    2.6867    5.1317 C.2       1 <0>         0.3116
     23 O4         10.6204    2.3716    4.2309 O.2       1 <0>        -0.3556
     24 C16        10.3379    3.5537    6.2590 C.2       1 <0>         0.4290
     25 O5         11.6032    4.0153    6.3064 O.3       1 <0>        -0.5872
     26 N4          9.4765    3.8538    7.2000 N.2       1 <0>        -0.6356
     27 C17         8.2117    3.4176    7.1809 C.2       1 <0>         0.6740
     28 O6          7.4808    3.7508    8.0940 O.2       1 <0>        -0.5497
     29 H1         -0.9589    1.9127    0.0260 H         1 <0>         0.1289
     30 H2          1.1567    3.1700    0.0080 H         1 <0>         0.1405
     31 H3          3.3440   -0.4918   -0.0333 H         1 <0>         0.1414
     32 H4          1.2342   -1.7588   -0.0200 H         1 <0>         0.1293
     33 H5         -2.0441   -0.2480    0.0210 H         1 <0>         0.4016
     34 H6         -1.1825   -1.6903    0.0047 H         1 <0>         0.4018
     35 H7          3.2916    4.4251    1.8200 H         1 <0>         0.1366
     36 H8          3.9371    4.7914    4.1665 H         1 <0>         0.1287
     37 H9          6.1469    1.1299    4.1197 H         1 <0>         0.1551
     38 H10         5.4869    0.7682    1.7765 H         1 <0>         0.1371
     39 H11         5.1458    3.9795    6.0969 H         1 <0>         0.4082
     40 H12         6.0054    2.1433    7.3571 H         1 <0>         0.1198
     41 H13         6.1847    1.2352    5.8367 H         1 <0>         0.1060
@<TRIPOS>BOND
     1    1    6 ar
     2    1    2 ar
     3    1   29 1
     4    2    3 ar
     5    2   30 1
     6    3    4 ar
     7    3    8 1
     8    4    5 ar
     9    4   31 1
    10    5    6 ar
    11    5   32 1
    12    6    7 1
    13    7   33 1
    14    7   34 1
    15    8    9 2
    16    8   10 2
    17    8   11 1
    18   11   16 ar
    19   11   12 ar
    20   12   13 ar
    21   12   35 1
    22   13   14 ar
    23   13   36 1
    24   14   15 ar
    25   14   17 1
    26   15   16 ar
    27   15   37 1
    28   16   38 1
    29   17   18 1
    30   17   39 1
    31   18   19 1
    32   18   40 1
    33   18   41 1
    34   19   27 am
    35   19   20 am
    36   20   21 2
    37   20   22 1
    38   22   23 2
    39   22   24 1
    40   24   25 1
    41   24   26 2
    42   26   27 1
    43   27   28 2
@<TRIPOS>MOLECULE
ZINC29056295
   35    38     0     0     0
SMALL
USER_CHARGES

@<TRIPOS>ATOM
      1 C1         -0.0167    1.3774    0.0096 C.ar      1 <0>        -0.1266
      2 C2          1.1670    2.0952    0.0022 C.ar      1 <0>        -0.1215
      3 C3          2.3842    1.4397   -0.0135 C.ar      1 <0>        -0.0877
      4 C4          2.4255    0.0474   -0.0218 C.ar      1 <0>        -0.0994
      5 C5          1.2197   -0.6846   -0.0138 C.ar      1 <0>        -0.0731
      6 C6          0.0021   -0.0041    0.0020 C.ar      1 <0>        -0.1076
      7 C7          1.2460   -2.1590   -0.0229 C.2       1 <0>         0.2657
      8 C8          1.5798   -2.8881    1.1445 C.ar      1 <0>        -0.2105
      9 C9          1.8935   -2.2170    2.3393 C.ar      1 <0>         0.0575
     10 C10         2.2120   -2.9291    3.4541 C.ar      1 <0>        -0.1981
     11 C11         2.2295   -4.3309    3.4184 C.ar      1 <0>         0.3725
     12 C12         1.9218   -5.0107    2.2447 C.ar      1 <0>        -0.2566
     13 C13         1.5953   -4.3002    1.1006 C.ar      1 <0>         0.2558
     14 O1          1.2951   -4.9553   -0.0400 O.3       1 <0>        -0.1896
     15 C14         0.9719   -4.2973   -1.1726 C.2       1 <0>         0.2575
     16 C15         0.6690   -5.0048   -2.3250 C.2       1 <0>        -0.2592
     17 C16         0.3355   -4.3220   -3.4898 C.2       1 <0>         0.3694
     18 O2          0.0411   -5.0123   -4.6084 O.2       1 <0>        -0.5938
     19 C17         0.3030   -2.9202   -3.5082 C.2       1 <0>        -0.1998
     20 C18         0.5982   -2.2110   -2.3852 C.2       1 <0>         0.0428
     21 C19         0.9325   -2.8851   -1.1978 C.2       1 <0>        -0.2486
     22 Br1        -0.1528   -2.0107   -5.1022 Br        1 <0>        -0.0584
     23 Br2         0.7097   -6.8953   -2.3139 Br        1 <0>        -0.0430
     24 Br3         1.9496   -6.9011    2.2100 Br        1 <0>        -0.0448
     25 O3          2.5469   -5.0240    4.5289 O.3       1 <0>        -0.5933
     26 Br4         2.6341   -2.0237    5.0597 Br        1 <0>        -0.0591
     27 C20         3.7223   -0.6573   -0.0395 C.2       1 <0>         0.5128
     28 O4          4.7651   -0.0188   -0.0468 O.co2     1 <0>        -0.6798
     29 O5          3.7538   -1.8798   -0.0468 O.co2     1 <0>        -0.6494
     30 H1         -0.9612    1.9009    0.0260 H         1 <0>         0.1212
     31 H2          1.1395    3.1748    0.0082 H         1 <0>         0.1185
     32 H3          3.3031    2.0072   -0.0195 H         1 <0>         0.1332
     33 H4         -0.9257   -0.5569    0.0083 H         1 <0>         0.1243
     34 H5          1.8819   -1.1376    2.3721 H         1 <0>         0.1324
     35 H6          0.5724   -1.1314   -2.4051 H         1 <0>         0.1364
@<TRIPOS>BOND
     1    1    6 ar
     2    1    2 ar
     3    1   30 1
     4    2    3 ar
     5    2   31 1
     6    3    4 ar
     7    3   32 1
     8    4    5 ar
     9    4   27 1
    10    5    6 ar
    11    5    7 1
    12    6   33 1
    13    7   21 2
    14    7    8 1
    15    8   13 ar
    16    8    9 ar
    17    9   10 ar
    18    9   34 1
    19   10   11 ar
    20   10   26 1
    21   11   12 ar
    22   11   25 1
    23   12   13 ar
    24   12   24 1
    25   13   14 1
    26   14   15 1
    27   15   21 1
    28   15   16 2
    29   16   17 1
    30   16   23 1
    31   17   18 2
    32   17   19 1
    33   19   20 2
    34   19   22 1
    35   20   21 1
    36   20   35 1
    37   27   28 2
    38   27   29 1
@<TRIPOS>MOLECULE
ZINC29056295
   36    39     0     0     0
SMALL
USER_CHARGES

@<TRIPOS>ATOM
      1 C1         -0.0167    1.3772    0.0096 C.ar      1 <0>        -0.1237
      2 C2          1.1671    2.0952    0.0022 C.ar      1 <0>        -0.1106
      3 C3          2.3841    1.4399   -0.0134 C.ar      1 <0>        -0.0848
      4 C4          2.4255    0.0473   -0.0217 C.ar      1 <0>        -0.0964
      5 C5          1.2196   -0.6846   -0.0136 C.ar      1 <0>        -0.0884
      6 C6          0.0021   -0.0041    0.0020 C.ar      1 <0>        -0.1061
      7 C7          1.2460   -2.1591   -0.0227 C.2       1 <0>         0.2160
      8 C8          0.9418   -2.9304    1.1846 C.ar      1 <0>        -0.1409
      9 C9          0.6156   -2.2857    2.3858 C.ar      1 <0>         0.0216
     10 C10         0.3355   -3.0248    3.4973 C.ar      1 <0>        -0.1460
     11 C11         0.3726   -4.4197    3.4453 C.ar      1 <0>         0.2270
     12 C12         0.6932   -5.0736    2.2663 C.ar      1 <0>        -0.1469
     13 C13         0.9809   -4.3388    1.1241 C.ar      1 <0>         0.2125
     14 O1          1.2931   -4.9656   -0.0282 O.3       1 <0>        -0.1863
     15 C14         1.5793   -4.2932   -1.1622 C.2       1 <0>         0.2476
     16 C15         1.8916   -4.9920   -2.3122 C.2       1 <0>        -0.2645
     17 C16         2.1895   -4.2985   -3.4916 C.2       1 <0>         0.4367
     18 O2          2.4662   -4.9200   -4.5106 O.2       1 <0>        -0.4710
     19 C17         2.1721   -2.8872   -3.5128 C.2       1 <0>        -0.2005
     20 C18         1.8671   -2.1915   -2.3890 C.2       1 <0>         0.0465
     21 C19         1.5595   -2.8773   -1.1969 C.2       1 <0>        -0.1421
     22 Br1         2.5759   -1.9635   -5.1127 Br        1 <0>        -0.0283
     23 Br2         1.9175   -6.8827   -2.2935 Br        1 <0>        -0.0198
     24 Br3         0.7394   -6.9633    2.2136 Br        1 <0>         0.0111
     25 O3          0.0925   -5.1416    4.5595 O.3       1 <0>        -0.4632
     26 Br4        -0.1047   -2.1557    5.1180 Br        1 <0>        -0.0101
     27 C20         3.7220   -0.6572   -0.0393 C.2       1 <0>         0.5130
     28 O4          4.7649   -0.0186   -0.0466 O.co2     1 <0>        -0.6656
     29 O5          3.7535   -1.8797   -0.0465 O.co2     1 <0>        -0.6622
     30 H1         -0.9612    1.9007    0.0260 H         1 <0>         0.1262
     31 H2          1.1395    3.1748    0.0082 H         1 <0>         0.1246
     32 H3          3.3029    2.0075   -0.0195 H         1 <0>         0.1380
     33 H4         -0.9257   -0.5569    0.0082 H         1 <0>         0.1248
     34 H5          0.5863   -1.2071    2.4310 H         1 <0>         0.1613
     35 H6          1.8555   -1.1117   -2.4089 H         1 <0>         0.1451
     36 H7         -0.8431   -5.3652    4.6584 H         1 <0>         0.4053
@<TRIPOS>BOND
     1    1    6 ar
     2    1    2 ar
     3    1   30 1
     4    2    3 ar
     5    2   31 1
     6    3    4 ar
     7    3   32 1
     8    4    5 ar
     9    4   27 1
    10    5    6 ar
    11    5    7 1
    12    6   33 1
    13    7   21 2
    14    7    8 1
    15    8   13 ar
    16    8    9 ar
    17    9   10 ar
    18    9   34 1
    19   10   11 ar
    20   10   26 1
    21   11   12 ar
    22   11   25 1
    23   12   13 ar
    24   12   24 1
    25   13   14 1
    26   14   15 1
    27   15   21 1
    28   15   16 2
    29   16   17 1
    30   16   23 1
    31   17   18 2
    32   17   19 1
    33   19   20 2
    34   19   22 1
    35   20   21 1
    36   20   35 1
    37   25   36 1
    38   27   28 2
    39   27   29 1
