@<TRIPOS>MOLECULE
ZINC13819928
   40    42     0     0     0
SMALL
USER_CHARGES
1-[(5R)-3-(2-hydroxyphenyl)-5-(m-tolyl)-4,5-dihydropyrazol-1-yl]ethanone
@<TRIPOS>ATOM
      1 C1          3.7112   -0.7073   -0.0378 C.3       1 <0>        -0.1155
      2 C2          2.3961    0.0283   -0.0212 C.ar      1 <0>        -0.0827
      3 C3          2.3773    1.4107   -0.0141 C.ar      1 <0>        -0.1153
      4 C4          1.1711    2.0854    0.0021 C.ar      1 <0>        -0.1130
      5 C5         -0.0167    1.3779    0.0096 C.ar      1 <0>        -0.1076
      6 C6          0.0021   -0.0041    0.0020 C.ar      1 <0>        -0.0866
      7 C7          1.2086   -0.6790   -0.0136 C.ar      1 <0>        -0.1008
      8 C8         -1.2926   -0.7753    0.0103 C.3       1 <0>         0.1483
      9 H1         -1.1293   -1.8003   -0.3226 H         1 <0>         0.1013
     10 C9         -1.9289   -0.7521    1.4142 C.3       1 <0>        -0.1242
     11 C10        -3.2557   -0.0590    1.2014 C.2       1 <0>         0.1354
     12 N1         -3.3815    0.2577   -0.0411 N.2       1 <0>        -0.2135
     13 N2         -2.2970   -0.1101   -0.8349 N.am      1 <0>        -0.4682
     14 C11        -2.1861    0.1073   -2.1604 C.2       1 <0>         0.5499
     15 O1         -1.1930   -0.2574   -2.7539 O.2       1 <0>        -0.5166
     16 C12        -3.2960    0.8035   -2.9051 C.3       1 <0>        -0.1592
     17 C13        -4.2518    0.2122    2.2532 C.ar      1 <0>        -0.0641
     18 C14        -4.0084   -0.1845    3.5701 C.ar      1 <0>        -0.0741
     19 C15        -4.9424    0.0769    4.5504 C.ar      1 <0>        -0.1305
     20 C16        -6.1259    0.7214    4.2330 C.ar      1 <0>        -0.0848
     21 C17        -6.3811    1.1139    2.9326 C.ar      1 <0>        -0.1495
     22 C18        -5.4513    0.8643    1.9365 C.ar      1 <0>         0.1454
     23 O2         -5.7012    1.2496    0.6584 O.3       1 <0>        -0.4799
     24 H2          4.0184   -0.8792   -1.0694 H         1 <0>         0.0720
     25 H3          4.4677   -0.1107    0.4720 H         1 <0>         0.0675
     26 H4          3.5987   -1.6642    0.4720 H         1 <0>         0.0670
     27 H5          3.3052    1.9634   -0.0204 H         1 <0>         0.1234
     28 H6          1.1565    3.1653    0.0081 H         1 <0>         0.1230
     29 H7         -0.9592    1.9051    0.0170 H         1 <0>         0.1136
     30 H8          1.2233   -1.7589   -0.0196 H         1 <0>         0.1226
     31 H9         -2.0822   -1.7669    1.7813 H         1 <0>         0.1079
     32 H10        -1.3074   -0.1839    2.1063 H         1 <0>         0.1072
     33 H11        -3.4458    1.7988   -2.4866 H         1 <0>         0.0936
     34 H12        -3.0290    0.8888   -3.9585 H         1 <0>         0.0913
     35 H13        -4.2158    0.2267   -2.8089 H         1 <0>         0.0922
     36 H14        -3.0884   -0.6915    3.8210 H         1 <0>         0.1329
     37 H15        -4.7516   -0.2261    5.5694 H         1 <0>         0.1325
     38 H16        -6.8537    0.9190    5.0061 H         1 <0>         0.1315
     39 H17        -7.3066    1.6162    2.6928 H         1 <0>         0.1349
     40 H18        -6.1554    0.5809    0.1277 H         1 <0>         0.3927
@<TRIPOS>BOND
     1    1    2 1
     2    1   24 1
     3    1   25 1
     4    1   26 1
     5    2    7 ar
     6    2    3 ar
     7    3    4 ar
     8    3   27 1
     9    4    5 ar
    10    4   28 1
    11    5    6 ar
    12    5   29 1
    13    6    7 ar
    14    6    8 1
    15    7   30 1
    16    8    9 1
    17    8   13 1
    18    8   10 1
    19   10   11 1
    20   10   31 1
    21   10   32 1
    22   11   12 2
    23   11   17 1
    24   12   13 1
    25   13   14 am
    26   14   15 2
    27   14   16 1
    28   16   33 1
    29   16   34 1
    30   16   35 1
    31   17   22 ar
    32   17   18 ar
    33   18   19 ar
    34   18   36 1
    35   19   20 ar
    36   19   37 1
    37   20   21 ar
    38   20   38 1
    39   21   22 ar
    40   21   39 1
    41   22   23 1
    42   23   40 1
@<TRIPOS>MOLECULE
ZINC13819930
   40    42     0     0     0
SMALL
USER_CHARGES
1-[(5S)-3-(2-hydroxyphenyl)-5-(m-tolyl)-4,5-dihydropyrazol-1-yl]ethanone
@<TRIPOS>ATOM
      1 C1          1.2290   -2.1858   -0.0219 C.3       1 <0>        -0.1158
      2 C2          1.2086   -0.6790   -0.0136 C.ar      1 <0>        -0.0819
      3 C3          0.0021   -0.0041    0.0020 C.ar      1 <0>        -0.1158
      4 C4         -0.0167    1.3779    0.0096 C.ar      1 <0>        -0.1129
      5 C5          1.1711    2.0854    0.0021 C.ar      1 <0>        -0.1079
      6 C6          2.3773    1.4107   -0.0141 C.ar      1 <0>        -0.0851
      7 C7          2.3961    0.0283   -0.0212 C.ar      1 <0>        -0.1018
      8 C8          3.6720    2.1819   -0.0223 C.3       1 <0>         0.1473
      9 H1          4.4857    1.5591   -0.3940 H         1 <0>         0.1009
     10 C9          3.9960    2.7131    1.3880 C.3       1 <0>        -0.1233
     11 C10         4.0109    4.2184    1.2119 C.2       1 <0>         0.1357
     12 N1          3.7578    4.5112   -0.0170 N.2       1 <0>        -0.2142
     13 N2          3.5423    3.4028   -0.8335 N.am      1 <0>        -0.4673
     14 C11         3.2607    3.4425   -2.1509 C.2       1 <0>         0.5503
     15 O1          3.0907    2.4109   -2.7662 O.2       1 <0>        -0.5174
     16 C12         3.1569    4.7684   -2.8596 C.3       1 <0>        -0.1619
     17 C13         4.2760    5.1966    2.2819 C.ar      1 <0>        -0.0640
     18 C14         4.5397    4.7606    3.5824 C.ar      1 <0>        -0.0740
     19 C15         4.7870    5.6811    4.5790 C.ar      1 <0>        -0.1304
     20 C16         4.7745    7.0364    4.2963 C.ar      1 <0>        -0.0846
     21 C17         4.5153    7.4804    3.0135 C.ar      1 <0>        -0.1495
     22 C18         4.2706    6.5692    1.9991 C.ar      1 <0>         0.1454
     23 O2          4.0209    7.0045    0.7371 O.3       1 <0>        -0.4797
     24 H2          1.2237   -2.5436   -1.0515 H         1 <0>         0.0721
     25 H3          2.1290   -2.5397    0.4811 H         1 <0>         0.0671
     26 H4          0.3492   -2.5640    0.4987 H         1 <0>         0.0676
     27 H5         -0.9258   -0.5567    0.0079 H         1 <0>         0.1234
     28 H6         -0.9592    1.9051    0.0170 H         1 <0>         0.1228
     29 H7          1.1565    3.1653    0.0081 H         1 <0>         0.1129
     30 H8          3.3386   -0.4989   -0.0331 H         1 <0>         0.1228
     31 H9          3.2210    2.4177    2.0953 H         1 <0>         0.1076
     32 H10         4.9716    2.3549    1.7167 H         1 <0>         0.1077
     33 H11         4.1359    5.0514   -3.2463 H         1 <0>         0.0966
     34 H12         2.4504    4.6846   -3.6855 H         1 <0>         0.0926
     35 H13         2.8092    5.5283   -2.1598 H         1 <0>         0.0906
     36 H14         4.5497    3.7043    3.8072 H         1 <0>         0.1330
     37 H15         4.9908    5.3433    5.5844 H         1 <0>         0.1325
     38 H16         4.9688    7.7506    5.0827 H         1 <0>         0.1315
     39 H17         4.5076    8.5392    2.8007 H         1 <0>         0.1349
     40 H18         3.0850    7.1647    0.5543 H         1 <0>         0.3922
@<TRIPOS>BOND
     1    1    2 1
     2    1   24 1
     3    1   25 1
     4    1   26 1
     5    2    7 ar
     6    2    3 ar
     7    3    4 ar
     8    3   27 1
     9    4    5 ar
    10    4   28 1
    11    5    6 ar
    12    5   29 1
    13    6    7 ar
    14    6    8 1
    15    7   30 1
    16    8    9 1
    17    8   13 1
    18    8   10 1
    19   10   11 1
    20   10   31 1
    21   10   32 1
    22   11   12 2
    23   11   17 1
    24   12   13 1
    25   13   14 am
    26   14   15 2
    27   14   16 1
    28   16   33 1
    29   16   34 1
    30   16   35 1
    31   17   22 ar
    32   17   18 ar
    33   18   19 ar
    34   18   36 1
    35   19   20 ar
    36   19   37 1
    37   20   21 ar
    38   20   38 1
    39   21   22 ar
    40   21   39 1
    41   22   23 1
    42   23   40 1
