@<TRIPOS>MOLECULE
ZINC04340269
   23    23     0     0     0
SMALL
USER_CHARGES

@<TRIPOS>ATOM
      1 C1          0.0541    1.3093    0.0511 C.ar      1 <0>        -0.0998
      2 C2          1.2379    2.0581   -0.0359 C.ar      1 <0>         0.4638
      3 N1          2.4129    1.4496    0.0702 N.ar      1 <0>        -0.5674
      4 C3          2.4640    0.1373    0.2579 C.ar      1 <0>         0.4601
      5 C4          1.2815   -0.6064    0.3442 C.ar      1 <0>        -0.0071
      6 N2          0.1144   -0.0080    0.2397 N.ar      1 <0>        -0.2998
      7 Cl1         1.3549   -2.3233    0.5899 Cl        1 <0>        -0.0262
      8 N3          3.6896   -0.4980    0.3683 N.pl3     1 <0>        -0.8179
      9 N4          1.1804    3.4267   -0.2323 N.pl3     1 <0>        -0.8085
     10 C5         -1.2563    1.9814   -0.0602 C.2       1 <0>         0.5976
     11 O1         -1.3142    3.1971   -0.1232 O.2       1 <0>        -0.5581
     12 N5         -2.3824    1.2540   -0.0918 N.2       1 <0>        -0.6703
     13 C6         -3.3650    1.5181    0.7551 C.2       1 <0>         0.7012
     14 N6         -3.1890    2.4512    1.7344 N.pl3     1 <0>        -0.8655
     15 N7         -4.5534    0.8571    0.6484 N.pl3     1 <0>        -0.8245
     16 H1          4.5097    0.0166    0.3083 H         1 <0>         0.4132
     17 H2          3.7280   -1.4575    0.5055 H         1 <0>         0.4179
     18 H3          0.3235    3.8812   -0.2317 H         1 <0>         0.4284
     19 H4          1.9971    3.9316   -0.3704 H         1 <0>         0.4028
     20 H5         -5.2734    1.0506    1.2690 H         1 <0>         0.4111
     21 H6         -2.3709    2.9712    1.7674 H         1 <0>         0.4205
     22 H7         -4.6786    0.1935   -0.0480 H         1 <0>         0.4267
     23 H8         -3.8820    2.5947    2.3977 H         1 <0>         0.4016
@<TRIPOS>BOND
     1    1    6 ar
     2    1    2 ar
     3    1   10 1
     4    2    3 ar
     5    2    9 1
     6    3    4 ar
     7    4    5 ar
     8    4    8 1
     9    5    6 ar
    10    5    7 1
    11    8   16 1
    12    8   17 1
    13    9   18 1
    14    9   19 1
    15   10   12 1
    16   10   11 2
    17   12   13 2
    18   13   14 1
    19   13   15 1
    20   14   21 1
    21   14   23 1
    22   15   22 1
    23   15   20 1
