@<TRIPOS>MOLECULE
ZINC00013748
   28    30     0     0     0
SMALL
USER_CHARGES

@<TRIPOS>ATOM
      1 C1         -0.0167    1.3777    0.0096 C.ar      1 <0>        -0.0954
      2 C2          1.1697    2.0876    0.0021 C.ar      1 <0>        -0.1049
      3 C3          2.3784    1.4177   -0.0116 C.ar      1 <0>        -0.0981
      4 C4          2.4042    0.0310   -0.0192 C.ar      1 <0>         0.0329
      5 C5          1.2117   -0.6826   -0.0141 C.ar      1 <0>         0.0460
      6 C6          0.0021   -0.0041    0.0020 C.ar      1 <0>        -0.1042
      7 O1          1.2143   -2.0435   -0.0292 O.3       1 <0>        -0.2831
      8 C7          2.4407   -2.6888    0.3305 C.3       1 <0>         0.0319
      9 C8          3.5869   -1.9932   -0.4162 C.3       1 <0>         0.0648
     10 H1          3.4262   -2.0716   -1.4914 H         1 <0>         0.1391
     11 O2          3.6023   -0.6148   -0.0295 O.3       1 <0>        -0.2941
     12 C9          4.8981   -2.6394   -0.0500 C.cat     1 <0>         0.5242
     13 N1          5.2975   -2.7671    1.1936 N.pl3     1 <0>        -0.6146
     14 C10         6.6089   -3.4350    1.2165 C.3       1 <0>         0.0552
     15 C11         6.9063   -3.6783   -0.2777 C.3       1 <0>         0.0574
     16 N2          5.7221   -3.1209   -0.9509 N.pl3     1 <0>        -0.6160
     17 H2         -0.9596    1.9040    0.0259 H         1 <0>         0.1440
     18 H3          1.1518    3.1674    0.0066 H         1 <0>         0.1437
     19 H4          3.3037    1.9746   -0.0169 H         1 <0>         0.1411
     20 H5         -0.9261   -0.5562    0.0086 H         1 <0>         0.1448
     21 H6          2.5984   -2.6053    1.4058 H         1 <0>         0.0891
     22 H7          2.4005   -3.7400    0.0450 H         1 <0>         0.1382
     23 H8          7.3641   -2.7849    1.6584 H         1 <0>         0.1328
     24 H9          6.5499   -4.3802    1.7561 H         1 <0>         0.1335
     25 H10         7.8099   -3.1496   -0.5812 H         1 <0>         0.1334
     26 H11         6.9957   -4.7449   -0.4835 H         1 <0>         0.1330
     27 H12         5.5747   -3.1096   -1.9095 H         1 <0>         0.4633
     28 H13         4.8062   -2.4679    1.9745 H         1 <0>         0.4621
@<TRIPOS>BOND
     1    1    6 ar
     2    1    2 ar
     3    1   17 1
     4    2    3 ar
     5    2   18 1
     6    3    4 ar
     7    3   19 1
     8    4   11 1
     9    4    5 ar
    10    5    6 ar
    11    5    7 1
    12    6   20 1
    13    7    8 1
    14    8    9 1
    15    8   21 1
    16    8   22 1
    17    9   10 1
    18    9   11 1
    19    9   12 1
    20   12   16 1
    21   12   13 2
    22   13   14 1
    23   13   28 1
    24   14   15 1
    25   14   23 1
    26   14   24 1
    27   15   16 1
    28   15   25 1
    29   15   26 1
    30   16   27 1
@<TRIPOS>MOLECULE
ZINC00900630
   28    30     0     0     0
SMALL
USER_CHARGES

@<TRIPOS>ATOM
      1 C1         -0.0167    1.3777    0.0096 C.ar      1 <0>        -0.0954
      2 C2          1.1697    2.0876    0.0021 C.ar      1 <0>        -0.1049
      3 C3          2.3783    1.4178   -0.0143 C.ar      1 <0>        -0.0981
      4 C4          2.4042    0.0310   -0.0230 C.ar      1 <0>         0.0329
      5 C5          1.2117   -0.6826   -0.0129 C.ar      1 <0>         0.0461
      6 C6          0.0021   -0.0041    0.0020 C.ar      1 <0>        -0.1042
      7 O1          1.2145   -2.0436   -0.0133 O.3       1 <0>        -0.2832
      8 C7          2.4336   -2.6847   -0.4041 C.3       1 <0>         0.0320
      9 C8          3.5941   -1.9974    0.3280 C.3       1 <0>         0.0648
     10 H1          3.4543   -2.0880    1.4052 H         1 <0>         0.1391
     11 O2          3.6022   -0.6147   -0.0433 O.3       1 <0>        -0.2941
     12 C9          4.8979   -2.6393   -0.0710 C.cat     1 <0>         0.5240
     13 N1          5.2782   -2.7429   -1.3227 N.pl3     1 <0>        -0.6144
     14 C10         6.5877   -3.4123   -1.3789 C.3       1 <0>         0.0552
     15 C11         6.9072   -3.6858    0.1054 C.3       1 <0>         0.0573
     16 N2          5.7392   -3.1309    0.8082 N.pl3     1 <0>        -0.6159
     17 H2         -0.9596    1.9040    0.0259 H         1 <0>         0.1440
     18 H3          1.1518    3.1674    0.0087 H         1 <0>         0.1437
     19 H4          3.3037    1.9746   -0.0208 H         1 <0>         0.1411
     20 H5         -0.9261   -0.5562    0.0079 H         1 <0>         0.1448
     21 H6          2.3988   -3.7390   -0.1298 H         1 <0>         0.1382
     22 H7          2.5703   -2.5889   -1.4813 H         1 <0>         0.0891
     23 H8          6.5187   -4.3466   -1.9362 H         1 <0>         0.1335
     24 H9          7.3374   -2.7549   -1.8192 H         1 <0>         0.1328
     25 H10         6.9977   -4.7565    0.2887 H         1 <0>         0.1335
     26 H11         7.8164   -3.1648    0.4057 H         1 <0>         0.1329
     27 H12         5.6106   -3.1302    1.7696 H         1 <0>         0.4633
     28 H13         4.7751   -2.4283   -2.0901 H         1 <0>         0.4621
@<TRIPOS>BOND
     1    1    6 ar
     2    1    2 ar
     3    1   17 1
     4    2    3 ar
     5    2   18 1
     6    3    4 ar
     7    3   19 1
     8    4   11 1
     9    4    5 ar
    10    5    6 ar
    11    5    7 1
    12    6   20 1
    13    7    8 1
    14    8    9 1
    15    8   21 1
    16    8   22 1
    17    9   10 1
    18    9   11 1
    19    9   12 1
    20   12   16 1
    21   12   13 2
    22   13   14 1
    23   13   28 1
    24   14   15 1
    25   14   23 1
    26   14   24 1
    27   15   16 1
    28   15   25 1
    29   15   26 1
    30   16   27 1
@<TRIPOS>MOLECULE
ZINC49050974
   40    42     0     0     0
SMALL
USER_CHARGES

@<TRIPOS>ATOM
      1 C1         -0.0173    1.4248    0.0099 C.3       1 <0>         0.0241
      2 O1          0.0021   -0.0041    0.0020 O.3       1 <0>        -0.3139
      3 C2          0.6259   -0.6184    1.0416 C.ar      1 <0>         0.1415
      4 C3          1.2018    0.1418    2.0504 C.ar      1 <0>        -0.2029
      5 C4          1.8355   -0.4776    3.1068 C.ar      1 <0>        -0.0483
      6 C5          1.8976   -1.8709    3.1609 C.ar      1 <0>        -0.0841
      7 C6          1.3174   -2.6316    2.1447 C.ar      1 <0>        -0.0682
      8 C7          0.6805   -2.0047    1.0947 C.ar      1 <0>        -0.1444
      9 C8          2.5769   -2.5395    4.2920 C.2       1 <0>         0.1526
     10 C9          3.1340   -1.8059    5.2780 C.2       1 <0>        -0.2182
     11 S1          3.7967   -3.0677    6.3536 S.3       1 <0>        -0.0160
     12 C10         3.2822   -4.4934    5.4090 C.2       1 <0>         0.4052
     13 N1          2.6388   -3.9041    4.3470 N.pl3     1 <0>        -0.6222
     14 N2          3.4672   -5.7775    5.6661 N.2       1 <0>        -0.4134
     15 N3          4.1541   -6.1684    6.8229 N.2       1 <0>        -0.3476
     16 C11         4.3353   -7.4259    7.0748 C.2       1 <0>         0.1766
     17 C12         3.8190   -8.4885    6.1299 C.3       1 <0>        -0.1212
     18 C13         4.9676   -9.4480    5.8014 C.3       1 <0>        -0.1127
     19 C14         5.5606   -9.9946    7.1011 C.3       1 <0>        -0.1244
     20 C15         6.1723   -8.8517    7.9130 C.3       1 <0>        -0.1153
     21 C16         5.0741   -7.8695    8.3180 C.3       1 <0>        -0.0698
     22 H1          1.0053    1.8021    0.0021 H         1 <0>         0.0589
     23 H2         -0.5445    1.7859   -0.8732 H         1 <0>         0.1039
     24 H3         -0.5275    1.7763    0.9067 H         1 <0>         0.0589
     25 H4          1.1536    1.2199    2.0076 H         1 <0>         0.1373
     26 H5          2.2836    0.1145    3.8910 H         1 <0>         0.1362
     27 H6          1.3636   -3.7099    2.1829 H         1 <0>         0.1274
     28 H7          0.2275   -2.5927    0.3102 H         1 <0>         0.1382
     29 H8          3.1703   -0.7322    5.3880 H         1 <0>         0.2004
     30 H9          3.0072   -9.0385    6.6060 H         1 <0>         0.0816
     31 H10         3.4597   -8.0202    5.2136 H         1 <0>         0.0866
     32 H11         4.5901  -10.2739    5.1985 H         1 <0>         0.0680
     33 H12         5.7390   -8.9149    5.2458 H         1 <0>         0.0618
     34 H13         4.7744  -10.4733    7.6849 H         1 <0>         0.0666
     35 H14         6.3334  -10.7268    6.8670 H         1 <0>         0.0665
     36 H15         6.6488   -9.2549    8.8066 H         1 <0>         0.0750
     37 H16         6.9153   -8.3326    7.3074 H         1 <0>         0.0653
     38 H17         5.5209   -7.0037    8.8068 H         1 <0>         0.0844
     39 H18         4.3806   -8.3612    9.0002 H         1 <0>         0.0902
     40 H19         2.2398   -4.4458    3.6482 H         1 <0>         0.4155
@<TRIPOS>BOND
     1    1    2 1
     2    1   22 1
     3    1   23 1
     4    1   24 1
     5    2    3 1
     6    3    8 ar
     7    3    4 ar
     8    4    5 ar
     9    4   25 1
    10    5    6 ar
    11    5   26 1
    12    6    7 ar
    13    6    9 1
    14    7    8 ar
    15    7   27 1
    16    8   28 1
    17    9   13 1
    18    9   10 2
    19   10   11 1
    20   10   29 1
    21   11   12 1
    22   12   13 1
    23   12   14 2
    24   13   40 1
    25   14   15 1
    26   15   16 2
    27   16   21 1
    28   16   17 1
    29   17   18 1
    30   17   30 1
    31   17   31 1
    32   18   19 1
    33   18   32 1
    34   18   33 1
    35   19   20 1
    36   19   34 1
    37   19   35 1
    38   20   21 1
    39   20   36 1
    40   20   37 1
    41   21   38 1
    42   21   39 1
@<TRIPOS>MOLECULE
ZINC15830292
   35    37     0     0     0
SMALL
USER_CHARGES
(5R)-5-(4-chlorophenyl)-3-phenyl-4,5-dihydropyrazole-1-carbothioamide
@<TRIPOS>ATOM
      1 C1          2.0597   -4.6675   -0.0400 C.ar      1 <0>        -0.0944
      2 C2          0.7433   -4.2413   -0.0260 C.ar      1 <0>        -0.1230
      3 C3          0.4515   -2.8932   -0.0168 C.ar      1 <0>        -0.0762
      4 C4          1.4887   -1.9575   -0.0219 C.ar      1 <0>        -0.0475
      5 C5          2.8151   -2.3950   -0.0423 C.ar      1 <0>        -0.0824
      6 C6          3.0921   -3.7463   -0.0447 C.ar      1 <0>        -0.1210
      7 C7          1.1847   -0.5144   -0.0120 C.2       1 <0>         0.1741
      8 N1          0.0021   -0.0041    0.0020 N.2       1 <0>        -0.2737
      9 N2         -0.0168    1.3892    0.0097 N.pl3     1 <0>        -0.4332
     10 C8          1.3691    1.8838   -0.0009 C.3       1 <0>         0.1673
     11 H1          1.5581    2.4763   -0.8960 H         1 <0>         0.1198
     12 C9          2.2131    0.5939   -0.0159 C.3       1 <0>        -0.1330
     13 C10         1.6541    2.6897    1.2402 C.ar      1 <0>        -0.0755
     14 C11         1.1281    2.2950    2.4562 C.ar      1 <0>        -0.0899
     15 C12         1.3938    3.0305    3.5958 C.ar      1 <0>        -0.1057
     16 C13         2.1769    4.1684    3.5175 C.ar      1 <0>        -0.0262
     17 C14         2.6983    4.5661    2.2992 C.ar      1 <0>        -0.1044
     18 C15         2.4366    3.8265    1.1613 C.ar      1 <0>        -0.0716
     19 Cl1         2.5057    5.0964    4.9473 Cl        1 <0>        -0.0687
     20 C16        -1.1236    2.1581    0.0193 C.2       1 <0>         0.6032
     21 S1         -0.9806    3.8641    0.0273 S.2       1 <0>        -0.5964
     22 N3         -2.3430    1.5841    0.0228 N.pl3     1 <0>        -0.7900
     23 H2          2.2823   -5.7243   -0.0468 H         1 <0>         0.1290
     24 H3         -0.0575   -4.9658   -0.0221 H         1 <0>         0.1303
     25 H4         -0.5763   -2.5619   -0.0059 H         1 <0>         0.1311
     26 H5          3.6219   -1.6771   -0.0512 H         1 <0>         0.1316
     27 H6          4.1172   -4.0860   -0.0548 H         1 <0>         0.1322
     28 H7          2.8401    0.5369    0.8740 H         1 <0>         0.1173
     29 H8          2.8246    0.5450   -0.9169 H         1 <0>         0.1188
     30 H9          0.5132    1.4092    2.5165 H         1 <0>         0.1162
     31 H10         0.9865    2.7196    4.5465 H         1 <0>         0.1316
     32 H11         3.3100    5.4540    2.2375 H         1 <0>         0.1363
     33 H12         2.8439    4.1367    0.2103 H         1 <0>         0.1349
     34 H13        -2.4241    0.6175    0.0183 H         1 <0>         0.4059
     35 H14        -3.1396    2.1375    0.0297 H         1 <0>         0.4330
@<TRIPOS>BOND
     1    1    6 ar
     2    1    2 ar
     3    1   23 1
     4    2    3 ar
     5    2   24 1
     6    3    4 ar
     7    3   25 1
     8    4    5 ar
     9    4    7 1
    10    5    6 ar
    11    5   26 1
    12    6   27 1
    13    7   12 1
    14    7    8 2
    15    8    9 1
    16    9   10 1
    17    9   20 1
    18   10   11 1
    19   10   12 1
    20   10   13 1
    21   12   28 1
    22   12   29 1
    23   13   18 ar
    24   13   14 ar
    25   14   15 ar
    26   14   30 1
    27   15   16 ar
    28   15   31 1
    29   16   17 ar
    30   16   19 1
    31   17   18 ar
    32   17   32 1
    33   18   33 1
    34   20   21 2
    35   20   22 1
    36   22   34 1
    37   22   35 1
@<TRIPOS>MOLECULE
ZINC15830294
   35    37     0     0     0
SMALL
USER_CHARGES
(5S)-5-(4-chlorophenyl)-3-phenyl-4,5-dihydropyrazole-1-carbothioamide
@<TRIPOS>ATOM
      1 C1          1.1546    3.1669    0.0076 C.ar      1 <0>        -0.0944
      2 C2          1.1715    1.7833    0.0005 C.ar      1 <0>        -0.1230
      3 C3         -0.0126    1.0758    0.0080 C.ar      1 <0>        -0.0762
      4 C4         -1.2307    1.7594    0.0174 C.ar      1 <0>        -0.0474
      5 C5         -1.2400    3.1562    0.0314 C.ar      1 <0>        -0.0824
      6 C6         -0.0483    3.8507    0.0233 C.ar      1 <0>        -0.1210
      7 C7         -2.5009    1.0100    0.0189 C.2       1 <0>         0.1739
      8 N1         -2.6064   -0.2738    0.0124 N.2       1 <0>        -0.2736
      9 N2         -3.9205   -0.7371    0.0155 N.pl3     1 <0>        -0.4331
     10 C8         -4.8322    0.4180    0.0257 C.3       1 <0>         0.1670
     11 H1         -5.4502    0.4109    0.9235 H         1 <0>         0.1197
     12 C9         -3.8798    1.6301    0.0347 C.3       1 <0>        -0.1328
     13 C10        -5.6947    0.4237   -1.2100 C.ar      1 <0>        -0.0749
     14 C11        -5.1574    0.0559   -2.4294 C.ar      1 <0>        -0.0907
     15 C12        -5.9494    0.0555   -3.5621 C.ar      1 <0>        -0.1052
     16 C13        -7.2774    0.4342   -3.4773 C.ar      1 <0>        -0.0264
     17 C14        -7.8132    0.8076   -2.2576 C.ar      1 <0>        -0.1041
     18 C15        -7.0216    0.8022   -1.1247 C.ar      1 <0>        -0.0718
     19 Cl1        -8.2709    0.4414   -4.9009 Cl        1 <0>        -0.0687
     20 C16        -4.2953   -2.0317    0.0098 C.2       1 <0>         0.6032
     21 S1         -5.9575   -2.4416    0.0141 S.2       1 <0>        -0.5963
     22 N3         -3.3616   -3.0036    0.0005 N.pl3     1 <0>        -0.7900
     23 H2          2.0847    3.7158    0.0013 H         1 <0>         0.1290
     24 H3          2.1140    1.2561   -0.0114 H         1 <0>         0.1303
     25 H4          0.0021   -0.0041    0.0020 H         1 <0>         0.1311
     26 H5         -2.1782    3.6912    0.0433 H         1 <0>         0.1316
     27 H6         -0.0540    4.9306    0.0295 H         1 <0>         0.1322
     28 H7         -4.0216    2.2238    0.9378 H         1 <0>         0.1190
     29 H8         -4.0342    2.2417   -0.8542 H         1 <0>         0.1172
     30 H9         -4.1195   -0.2354   -2.4962 H         1 <0>         0.1161
     31 H10        -5.5306   -0.2360   -4.5139 H         1 <0>         0.1316
     32 H11        -8.8497    1.1037   -2.1909 H         1 <0>         0.1363
     33 H12        -7.4398    1.0933   -0.1724 H         1 <0>         0.1349
     34 H13        -2.4198   -2.7713   -0.0020 H         1 <0>         0.4059
     35 H14        -3.6313   -3.9353   -0.0036 H         1 <0>         0.4330
@<TRIPOS>BOND
     1    1    6 ar
     2    1    2 ar
     3    1   23 1
     4    2    3 ar
     5    2   24 1
     6    3    4 ar
     7    3   25 1
     8    4    5 ar
     9    4    7 1
    10    5    6 ar
    11    5   26 1
    12    6   27 1
    13    7   12 1
    14    7    8 2
    15    8    9 1
    16    9   10 1
    17    9   20 1
    18   10   11 1
    19   10   12 1
    20   10   13 1
    21   12   28 1
    22   12   29 1
    23   13   18 ar
    24   13   14 ar
    25   14   15 ar
    26   14   30 1
    27   15   16 ar
    28   15   31 1
    29   16   17 ar
    30   16   19 1
    31   17   18 ar
    32   17   32 1
    33   18   33 1
    34   20   21 2
    35   20   22 1
    36   22   34 1
    37   22   35 1
@<TRIPOS>MOLECULE
ZINC00453884
   37    39     0     0     0
SMALL
USER_CHARGES
7-[(3-chlorophenyl)methoxy]-3,4-dimethyl-chromen-2-one
@<TRIPOS>ATOM
      1 C1          1.4762    1.5784    2.4330 C.3       1 <0>        -0.1290
      2 C2         -0.0134    1.8021    2.3862 C.2       1 <0>         0.0295
      3 C3         -0.7181    1.5718    1.2479 C.2       1 <0>        -0.2309
      4 C4         -2.1103    1.7942    1.2277 C.2       1 <0>         0.5159
      5 O1         -2.7293    1.5882    0.1992 O.2       1 <0>        -0.4586
      6 O2         -2.7718    2.2223    2.3144 O.3       1 <0>        -0.2692
      7 C5         -2.1315    2.4699    3.4772 C.ar      1 <0>         0.1868
      8 C6         -0.7404    2.2742    3.5664 C.ar      1 <0>        -0.1857
      9 C7         -0.0728    2.5304    4.7692 C.ar      1 <0>        -0.0147
     10 C8         -0.7749    2.9693    5.8544 C.ar      1 <0>        -0.2263
     11 C9         -2.1519    3.1649    5.7721 C.ar      1 <0>         0.1871
     12 C10        -2.8289    2.9166    4.5890 C.ar      1 <0>        -0.1730
     13 O3         -2.8360    3.6018    6.8602 O.3       1 <0>        -0.2981
     14 C11        -2.0801    3.8393    8.0494 C.3       1 <0>         0.1005
     15 C12        -3.0009    4.3157    9.1431 C.ar      1 <0>        -0.0892
     16 C13        -3.6042    3.4008    9.9861 C.ar      1 <0>        -0.0890
     17 C14        -4.4482    3.8371   10.9900 C.ar      1 <0>        -0.1082
     18 C15        -4.6899    5.1885   11.1515 C.ar      1 <0>        -0.0971
     19 C16        -4.0870    6.1043   10.3081 C.ar      1 <0>        -0.0383
     20 C17        -3.2377    5.6673    9.3069 C.ar      1 <0>        -0.0851
     21 Cl1        -4.3896    7.8017   10.5107 Cl        1 <0>        -0.0625
     22 C18        -0.0127    1.0858    0.0080 C.3       1 <0>        -0.0963
     23 H1          1.9906    2.4971    2.1513 H         1 <0>         0.0911
     24 H2          1.7692    1.2930    3.4433 H         1 <0>         0.0801
     25 H3          1.7462    0.7831    1.7381 H         1 <0>         0.0859
     26 H4          0.9944    2.3803    4.8390 H         1 <0>         0.1443
     27 H5         -0.2595    3.1667    6.7828 H         1 <0>         0.1417
     28 H6         -3.8963    3.0709    4.5330 H         1 <0>         0.1529
     29 H7         -1.5933    2.9152    8.3612 H         1 <0>         0.0818
     30 H8         -1.3244    4.6000    7.8537 H         1 <0>         0.0804
     31 H9         -3.4156    2.3449    9.8603 H         1 <0>         0.1330
     32 H10        -4.9186    3.1220   11.6487 H         1 <0>         0.1380
     33 H11        -5.3491    5.5293   11.9362 H         1 <0>         0.1376
     34 H12        -2.7632    6.3822    8.6509 H         1 <0>         0.1366
     35 H13         0.0021   -0.0041    0.0020 H         1 <0>         0.0752
     36 H14         1.0099    1.4631    0.0003 H         1 <0>         0.0744
     37 H15        -0.5399    1.4469   -0.8751 H         1 <0>         0.0781
@<TRIPOS>BOND
     1    1    2 1
     2    1   23 1
     3    1   24 1
     4    1   25 1
     5    2    8 1
     6    2    3 2
     7    3    4 1
     8    3   22 1
     9    4    5 2
    10    4    6 1
    11    6    7 1
    12    7   12 ar
    13    7    8 ar
    14    8    9 ar
    15    9   10 ar
    16    9   26 1
    17   10   11 ar
    18   10   27 1
    19   11   12 ar
    20   11   13 1
    21   12   28 1
    22   13   14 1
    23   14   15 1
    24   14   29 1
    25   14   30 1
    26   15   20 ar
    27   15   16 ar
    28   16   17 ar
    29   16   31 1
    30   17   18 ar
    31   17   32 1
    32   18   19 ar
    33   18   33 1
    34   19   20 ar
    35   19   21 1
    36   20   34 1
    37   22   35 1
    38   22   36 1
    39   22   37 1
@<TRIPOS>MOLECULE
ZINC02576403
   35    37     0     0     0
SMALL
USER_CHARGES
7-ethoxy-3-(4-hydroxyphenyl)-chromen-4-one
@<TRIPOS>ATOM
      1 C1          8.2601   -1.4446   -0.0805 C.3       1 <0>        -0.1543
      2 C2          7.1258   -0.4179   -0.0652 C.3       1 <0>         0.0507
      3 O1          5.8686   -1.0971   -0.0578 O.3       1 <0>        -0.3054
      4 C3          4.7516   -0.3258   -0.0440 C.ar      1 <0>         0.1979
      5 C4          4.8713    1.0625   -0.0377 C.ar      1 <0>        -0.2342
      6 C5          3.7561    1.8504   -0.0233 C.ar      1 <0>         0.0127
      7 C6          2.4913    1.2604   -0.0149 C.ar      1 <0>        -0.2593
      8 C7          2.3595   -0.1392   -0.0211 C.ar      1 <0>         0.1876
      9 C8          3.5041   -0.9258   -0.0358 C.ar      1 <0>        -0.1829
     10 O2          1.1375   -0.7073   -0.0126 O.3       1 <0>        -0.2175
     11 C9          0.0021   -0.0041    0.0020 C.2       1 <0>         0.1351
     12 C10        -0.0163    1.3537    0.0095 C.2       1 <0>        -0.2446
     13 C11         1.2656    2.0790    0.0011 C.2       1 <0>         0.4320
     14 O3          1.3107    3.2971    0.0068 O.2       1 <0>        -0.4557
     15 C12        -1.3027    2.0923    0.0196 C.ar      1 <0>        -0.0355
     16 C13        -1.5200    3.1036    0.9539 C.ar      1 <0>        -0.0711
     17 C14        -2.7150    3.7924    0.9571 C.ar      1 <0>        -0.1428
     18 C15        -3.7050    3.4717    0.0385 C.ar      1 <0>         0.1093
     19 C16        -3.4939    2.4613   -0.8895 C.ar      1 <0>        -0.1439
     20 C17        -2.2988    1.7726   -0.9014 C.ar      1 <0>        -0.0951
     21 O4         -4.8838    4.1482    0.0481 O.3       1 <0>        -0.4992
     22 H1          8.1924   -2.0740    0.8068 H         1 <0>         0.0687
     23 H2          8.1768   -2.0647   -0.9731 H         1 <0>         0.0687
     24 H3          9.2191   -0.9265   -0.0862 H         1 <0>         0.0826
     25 H4          7.1935    0.2116   -0.9525 H         1 <0>         0.0687
     26 H5          7.2091    0.2022    0.8274 H         1 <0>         0.0687
     27 H6          5.8507    1.5175   -0.0446 H         1 <0>         0.1422
     28 H7          3.8524    2.9261   -0.0181 H         1 <0>         0.1463
     29 H8          3.4210   -2.0026   -0.0406 H         1 <0>         0.1532
     30 H9         -0.9379   -0.5359    0.0085 H         1 <0>         0.2041
     31 H10        -0.7519    3.3503    1.6720 H         1 <0>         0.1279
     32 H11        -2.8824    4.5789    1.6781 H         1 <0>         0.1319
     33 H12        -4.2660    2.2143   -1.6031 H         1 <0>         0.1323
     34 H13        -2.1352    0.9863   -1.6235 H         1 <0>         0.1288
     35 H14        -5.5589    3.7539    0.6173 H         1 <0>         0.3920
@<TRIPOS>BOND
     1    1    2 1
     2    1   22 1
     3    1   23 1
     4    1   24 1
     5    2    3 1
     6    2   25 1
     7    2   26 1
     8    3    4 1
     9    4    9 ar
    10    4    5 ar
    11    5    6 ar
    12    5   27 1
    13    6    7 ar
    14    6   28 1
    15    7   13 1
    16    7    8 ar
    17    8    9 ar
    18    8   10 1
    19    9   29 1
    20   10   11 1
    21   11   12 2
    22   11   30 1
    23   12   13 1
    24   12   15 1
    25   13   14 2
    26   15   20 ar
    27   15   16 ar
    28   16   17 ar
    29   16   31 1
    30   17   18 ar
    31   17   32 1
    32   18   19 ar
    33   18   21 1
    34   19   20 ar
    35   19   33 1
    36   20   34 1
    37   21   35 1
@<TRIPOS>MOLECULE
ZINC02576376
   38    40     0     0     0
SMALL
USER_CHARGES
7-(3-bromopropoxy)-3-(4-hydroxyphenyl)-chromen-4-one
@<TRIPOS>ATOM
      1 C1         -3.0780   -8.8211   -0.9470 C.ar      1 <0>        -0.0711
      2 C2         -3.3516  -10.1730   -0.9469 C.ar      1 <0>        -0.1428
      3 C3         -4.2380  -10.7032   -0.0196 C.ar      1 <0>         0.1097
      4 C4         -4.8484   -9.8759    0.9130 C.ar      1 <0>        -0.1439
      5 C5         -4.5750   -8.5240    0.9215 C.ar      1 <0>        -0.0949
      6 C6         -3.6850   -7.9887   -0.0081 C.ar      1 <0>        -0.0360
      7 C7         -3.3890   -6.5352   -0.0021 C.2       1 <0>        -0.2439
      8 C8         -4.3958   -5.6239    0.0129 C.2       1 <0>         0.1350
      9 O1         -4.1731   -4.3070    0.0179 O.3       1 <0>        -0.2172
     10 C9         -2.9392   -3.7653    0.0094 C.ar      1 <0>         0.1881
     11 C10        -2.7729   -2.3864    0.0157 C.ar      1 <0>        -0.1808
     12 C11        -1.4981   -1.8467    0.0064 C.ar      1 <0>         0.1972
     13 C12        -0.3773   -2.6744   -0.0145 C.ar      1 <0>        -0.2340
     14 C13        -0.5231   -4.0322   -0.0160 C.ar      1 <0>         0.0130
     15 C14        -1.8019   -4.5913   -0.0063 C.ar      1 <0>        -0.2578
     16 C15        -1.9976   -6.0523   -0.0128 C.2       1 <0>         0.4317
     17 O2         -1.0536   -6.8235   -0.0268 O.2       1 <0>        -0.4549
     18 O3         -1.3386   -0.4987    0.0122 O.3       1 <0>        -0.3016
     19 C16         0.0021   -0.0041    0.0020 C.3       1 <0>         0.0570
     20 C17        -0.0187    1.5258    0.0104 C.3       1 <0>        -0.1223
     21 C18         1.4167    2.0553   -0.0004 C.3       1 <0>        -0.0806
     22 Br1         1.3901    4.0211    0.0104 Br        1 <0>        -0.1450
     23 O4         -4.5091  -12.0349   -0.0251 O.3       1 <0>        -0.4992
     24 H1         -2.3911   -8.4086   -1.6712 H         1 <0>         0.1278
     25 H2         -2.8785  -10.8192   -1.6715 H         1 <0>         0.1320
     26 H3         -5.5379  -10.2913    1.6330 H         1 <0>         0.1324
     27 H4         -5.0502   -7.8809    1.6474 H         1 <0>         0.1289
     28 H5         -5.4161   -5.9779    0.0204 H         1 <0>         0.2045
     29 H6         -3.6358   -1.7370    0.0275 H         1 <0>         0.1540
     30 H7          0.6114   -2.2401   -0.0261 H         1 <0>         0.1419
     31 H8          0.3477   -4.6709   -0.0284 H         1 <0>         0.1467
     32 H9          0.5123   -0.3556   -0.8948 H         1 <0>         0.0727
     33 H10         0.5293   -0.3651    0.8851 H         1 <0>         0.0727
     34 H11        -0.5459    1.8868   -0.8726 H         1 <0>         0.0899
     35 H12        -0.5289    1.8773    0.9072 H         1 <0>         0.0899
     36 H13         1.9439    1.6943    0.8826 H         1 <0>         0.1043
     37 H14         1.9269    1.7038   -0.8972 H         1 <0>         0.1043
     38 H15        -5.2563  -12.2819   -0.5871 H         1 <0>         0.3921
@<TRIPOS>BOND
     1    1    6 ar
     2    1    2 ar
     3    1   24 1
     4    2    3 ar
     5    2   25 1
     6    3    4 ar
     7    3   23 1
     8    4    5 ar
     9    4   26 1
    10    5    6 ar
    11    5   27 1
    12    6    7 1
    13    7   16 1
    14    7    8 2
    15    8    9 1
    16    8   28 1
    17    9   10 1
    18   10   15 ar
    19   10   11 ar
    20   11   12 ar
    21   11   29 1
    22   12   13 ar
    23   12   18 1
    24   13   14 ar
    25   13   30 1
    26   14   15 ar
    27   14   31 1
    28   15   16 1
    29   16   17 2
    30   18   19 1
    31   19   20 1
    32   19   32 1
    33   19   33 1
    34   20   21 1
    35   20   34 1
    36   20   35 1
    37   21   22 1
    38   21   36 1
    39   21   37 1
    40   23   38 1
@<TRIPOS>MOLECULE
ZINC03872070
   29    31     0     0     0
SMALL
USER_CHARGES

@<TRIPOS>ATOM
      1 C1         -0.0167    1.3795    0.0096 C.ar      1 <0>        -0.0927
      2 C2          1.1683    2.0940    0.0021 C.ar      1 <0>        -0.1229
      3 C3          2.3774    1.4303   -0.0130 C.ar      1 <0>        -0.0794
      4 C4          2.4038    0.0341   -0.0208 C.ar      1 <0>        -0.0750
      5 C5          1.2040   -0.6806   -0.0131 C.ar      1 <0>        -0.0800
      6 C6          0.0021   -0.0041    0.0020 C.ar      1 <0>        -0.1206
      7 C7          3.6945   -0.6834   -0.0374 C.2       1 <0>         0.2076
      8 C8          3.6865   -2.0422   -0.0503 C.2       1 <0>        -0.3115
      9 C9          4.9147   -2.7475   -0.0669 C.2       1 <0>         0.4227
     10 O1          4.9453   -3.9673   -0.0791 O.2       1 <0>        -0.4538
     11 C10         6.1531   -1.9509   -0.0693 C.ar      1 <0>        -0.2663
     12 C11         7.4124   -2.5640   -0.0858 C.ar      1 <0>         0.2193
     13 C12         8.5511   -1.7802   -0.0879 C.ar      1 <0>        -0.2051
     14 C13         8.4449   -0.3935   -0.0739 C.ar      1 <0>         0.1922
     15 C14         7.2019    0.2199   -0.0571 C.ar      1 <0>        -0.1832
     16 C15         6.0486   -0.5493   -0.0551 C.ar      1 <0>         0.1831
     17 O2          4.8303    0.0319   -0.0449 O.3       1 <0>        -0.2180
     18 O3          9.5695    0.3668   -0.0761 O.3       1 <0>        -0.4872
     19 O4          7.5139   -3.9173   -0.0990 O.3       1 <0>        -0.4722
     20 H1         -0.9606    1.9042    0.0260 H         1 <0>         0.1309
     21 H2          1.1464    3.1738    0.0078 H         1 <0>         0.1326
     22 H3          3.3016    1.9892   -0.0192 H         1 <0>         0.1349
     23 H4          1.2173   -1.7605   -0.0194 H         1 <0>         0.1361
     24 H5         -0.9265   -0.5555    0.0079 H         1 <0>         0.1347
     25 H6          2.7503   -2.5805   -0.0475 H         1 <0>         0.1636
     26 H7          9.5256   -2.2457   -0.1002 H         1 <0>         0.1502
     27 H8          7.1320    1.2975   -0.0459 H         1 <0>         0.1533
     28 H9          9.8879    0.5955   -0.9601 H         1 <0>         0.4037
     29 H10         7.5357   -4.3014   -0.9862 H         1 <0>         0.4030
@<TRIPOS>BOND
     1    1    6 ar
     2    1    2 ar
     3    1   20 1
     4    2    3 ar
     5    2   21 1
     6    3    4 ar
     7    3   22 1
     8    4    5 ar
     9    4    7 1
    10    5    6 ar
    11    5   23 1
    12    6   24 1
    13    7   17 1
    14    7    8 2
    15    8    9 1
    16    8   25 1
    17    9   10 2
    18    9   11 1
    19   11   16 ar
    20   11   12 ar
    21   12   13 ar
    22   12   19 1
    23   13   14 ar
    24   13   26 1
    25   14   15 ar
    26   14   18 1
    27   15   16 ar
    28   15   27 1
    29   16   17 1
    30   18   28 1
    31   19   29 1
@<TRIPOS>MOLECULE
ZINC03872070
   28    30     0     0     0
SMALL
USER_CHARGES

@<TRIPOS>ATOM
      1 C1         -0.0167    1.3797    0.0096 C.ar      1 <0>        -0.1070
      2 C2          1.1682    2.0946    0.0022 C.ar      1 <0>        -0.1239
      3 C3          2.3774    1.4315   -0.0129 C.ar      1 <0>        -0.0844
      4 C4          2.4042    0.0344   -0.0206 C.ar      1 <0>        -0.0523
      5 C5          1.2037   -0.6807   -0.0130 C.ar      1 <0>        -0.0872
      6 C6          0.0021   -0.0041    0.0020 C.ar      1 <0>        -0.1230
      7 C7          3.6938   -0.6822   -0.0372 C.2       1 <0>         0.1725
      8 C8          3.6987   -2.0599   -0.0503 C.2       1 <0>        -0.2684
      9 C9          4.9147   -2.7500   -0.0661 C.2       1 <0>         0.3652
     10 C10         6.1116   -2.0009   -0.0682 C.2       1 <0>        -0.3412
     11 C11         7.3668   -2.6443   -0.0844 C.2       1 <0>         0.2654
     12 C12         8.5111   -1.9002   -0.0865 C.2       1 <0>        -0.3783
     13 C13         8.4435   -0.4975   -0.0722 C.2       1 <0>         0.3617
     14 O1          9.5678    0.2204   -0.0740 O.2       1 <0>        -0.6670
     15 C14         7.2040    0.1518   -0.0566 C.2       1 <0>        -0.3151
     16 C15         6.0392   -0.5896   -0.0543 C.2       1 <0>         0.2114
     17 O2          4.8365    0.0229   -0.0448 O.3       1 <0>        -0.2195
     18 O3          7.4365   -3.9993   -0.0974 O.3       1 <0>        -0.4477
     19 O4          4.9436   -4.1007   -0.0786 O.3       1 <0>        -0.5790
     20 H1         -0.9606    1.9042    0.0260 H         1 <0>         0.1247
     21 H2          1.1460    3.1743    0.0078 H         1 <0>         0.1280
     22 H3          3.3014    1.9906   -0.0191 H         1 <0>         0.1359
     23 H4          1.2169   -1.7606   -0.0192 H         1 <0>         0.1351
     24 H5         -0.9266   -0.5554    0.0079 H         1 <0>         0.1291
     25 H6          2.7663   -2.6050   -0.0479 H         1 <0>         0.1462
     26 H7          9.4725   -2.3921   -0.0990 H         1 <0>         0.1160
     27 H8          7.1585    1.2308   -0.0456 H         1 <0>         0.1202
     28 H9          8.3389   -4.3466   -0.1079 H         1 <0>         0.3827
@<TRIPOS>BOND
     1    1    6 ar
     2    1    2 ar
     3    1   20 1
     4    2    3 ar
     5    2   21 1
     6    3    4 ar
     7    3   22 1
     8    4    5 ar
     9    4    7 1
    10    5    6 ar
    11    5   23 1
    12    6   24 1
    13    7   17 1
    14    7    8 2
    15    8    9 1
    16    8   25 1
    17    9   10 2
    18    9   19 1
    19   10   16 1
    20   10   11 1
    21   11   12 2
    22   11   18 1
    23   12   13 1
    24   12   26 1
    25   13   14 2
    26   13   15 1
    27   15   16 2
    28   15   27 1
    29   16   17 1
    30   18   28 1
@<TRIPOS>MOLECULE
ZINC33404884
   38    39     0     0     0
SMALL
USER_CHARGES
(5Z)-3-(2-aminoethyl)-5-[(4-dimethylaminophenyl)methylene]thiazolidine-2,4-dione
@<TRIPOS>ATOM
      1 C1          0.3361   -2.8273   -0.3705 C.3       1 <0>         0.0745
      2 N1          1.5366   -2.0182   -0.1463 N.pl3     1 <0>        -0.6184
      3 C2          2.8357   -2.6703    0.0372 C.3       1 <0>         0.0742
      4 C3          1.4431   -0.6300   -0.1077 C.ar      1 <0>         0.2619
      5 C4          0.2290   -0.0082   -0.3869 C.ar      1 <0>        -0.2114
      6 C5          0.1321    1.3589   -0.3501 C.ar      1 <0>        -0.0099
      7 C6          1.2572    2.1303   -0.0312 C.ar      1 <0>        -0.1881
      8 C7          2.4767    1.5002    0.2485 C.ar      1 <0>        -0.0193
      9 C8          2.5640    0.1325    0.2097 C.ar      1 <0>        -0.2077
     10 C9          1.1587    3.5942    0.0090 C.2       1 <0>         0.1277
     11 C10         2.1934    4.3313    0.4881 C.2       1 <0>        -0.2730
     12 C11         2.3883    5.7941    0.4823 C.2       1 <0>         0.5645
     13 O1          1.5618    6.5472    0.0014 O.2       1 <0>        -0.4798
     14 N2          3.5063    6.2455    1.0255 N.am      1 <0>        -0.5768
     15 C12         4.4197    5.4076    1.5568 C.2       1 <0>         0.5149
     16 O2          5.4812    5.6826    2.0833 O.2       1 <0>        -0.4238
     17 S1          3.6903    3.7972    1.3063 S.3       1 <0>        -0.0073
     18 C13         3.7582    7.6885    1.0509 C.3       1 <0>         0.0626
     19 C14         3.1867    8.2832    2.3396 C.3       1 <0>        -0.0180
     20 N3          3.4393    9.7302    2.3652 N.4       1 <0>        -0.6797
     21 H1         -0.5355   -2.1661   -0.4850 H         1 <0>         0.0844
     22 H2          0.1789   -3.4959    0.4887 H         1 <0>         0.0659
     23 H3          0.4636   -3.4273   -1.2836 H         1 <0>         0.0657
     24 H4          3.6113   -1.9056    0.1914 H         1 <0>         0.0837
     25 H5          3.0779   -3.2631   -0.8572 H         1 <0>         0.0661
     26 H6          2.7932   -3.3317    0.9151 H         1 <0>         0.0656
     27 H7         -0.6378   -0.6037   -0.6326 H         1 <0>         0.1375
     28 H8         -0.8090    1.8405   -0.5708 H         1 <0>         0.1364
     29 H9          3.3466    2.0909    0.4951 H         1 <0>         0.1298
     30 H10         3.5036   -0.3541    0.4259 H         1 <0>         0.1365
     31 H11         0.2466    4.0941   -0.3490 H         1 <0>         0.1658
     32 H12         4.8420    7.8722    1.0113 H         1 <0>         0.1177
     33 H13         3.2744    8.1605    0.1831 H         1 <0>         0.1217
     34 H14         2.1029    8.0994    2.3791 H         1 <0>         0.1359
     35 H15         3.6705    7.8111    3.2074 H         1 <0>         0.1339
     36 H16         3.0284   10.1578    3.2917 H         1 <0>         0.4662
     37 H17         2.9555   10.2023    1.4974 H         1 <0>         0.4603
     38 H18         4.5231    9.9139    2.3257 H         1 <0>         0.4596
@<TRIPOS>BOND
     1    1    2 1
     2    1   21 1
     3    1   22 1
     4    1   23 1
     5    2    3 1
     6    2    4 1
     7    3   24 1
     8    3   25 1
     9    3   26 1
    10    4    9 ar
    11    4    5 ar
    12    5    6 ar
    13    5   27 1
    14    6    7 ar
    15    6   28 1
    16    7    8 ar
    17    7   10 1
    18    8    9 ar
    19    8   29 1
    20    9   30 1
    21   10   11 2
    22   10   31 1
    23   11   17 1
    24   11   12 1
    25   12   13 2
    26   12   14 am
    27   14   15 am
    28   14   18 1
    29   15   16 2
    30   15   17 1
    31   18   19 1
    32   18   32 1
    33   18   33 1
    34   19   20 1
    35   19   34 1
    36   19   35 1
    37   20   36 1
    38   20   37 1
    39   20   38 1
@<TRIPOS>MOLECULE
ZINC12136841
   28    29     0     0     0
SMALL
USER_CHARGES
3-[(5Z)-5-benzylidene-2,4-dioxo-thiazolidin-3-yl]propanenitrile
@<TRIPOS>ATOM
      1 C1         -0.0866    4.1519   -0.8354 C.ar      1 <0>        -0.0903
      2 C2          1.1098    3.5432   -0.4979 C.ar      1 <0>        -0.1237
      3 C3          1.1472    2.1925   -0.2241 C.ar      1 <0>        -0.0767
      4 C4         -0.0286    1.4368   -0.2885 C.ar      1 <0>        -0.1005
      5 C5         -1.2328    2.0586   -0.6365 C.ar      1 <0>        -0.0867
      6 C6         -1.2542    3.4114   -0.9017 C.ar      1 <0>        -0.1181
      7 C7          0.0021   -0.0041    0.0020 C.2       1 <0>         0.0802
      8 C8         -1.1573   -0.6984    0.1117 C.2       1 <0>        -0.2191
      9 C9         -1.3757   -2.1560    0.2265 C.2       1 <0>         0.5599
     10 O1         -0.4479   -2.9431    0.2345 O.2       1 <0>        -0.4646
     11 N1         -2.6312   -2.5605    0.3207 N.am      1 <0>        -0.5780
     12 C10        -3.6565   -1.6846    0.3119 C.2       1 <0>         0.5279
     13 O2         -4.8479   -1.9160    0.3904 O.2       1 <0>        -0.4133
     14 S1         -2.8418   -0.1025    0.1651 S.3       1 <0>        -0.0316
     15 C11        -2.9148   -3.9930    0.4376 C.3       1 <0>         0.0960
     16 C12        -2.9388   -4.3892    1.9152 C.3       1 <0>        -0.0387
     17 C13        -3.2238   -5.8285    2.0328 C.1       1 <0>         0.2065
     18 N2         -3.4437   -6.9393    2.1234 N.1       1 <0>        -0.4149
     19 H1         -0.1093    5.2105   -1.0484 H         1 <0>         0.1305
     20 H2          2.0165    4.1279   -0.4487 H         1 <0>         0.1322
     21 H3          2.0815    1.7190    0.0390 H         1 <0>         0.1349
     22 H4         -2.1438    1.4813   -0.6931 H         1 <0>         0.1345
     23 H5         -2.1836    3.8938   -1.1661 H         1 <0>         0.1326
     24 H6          0.9482   -0.5095    0.1281 H         1 <0>         0.1648
     25 H7         -3.8837   -4.2095   -0.0124 H         1 <0>         0.1099
     26 H8         -2.1398   -4.5601   -0.0780 H         1 <0>         0.1131
     27 H9         -1.9700   -4.1726    2.3653 H         1 <0>         0.1175
     28 H10        -3.7139   -3.8221    2.4309 H         1 <0>         0.1159
@<TRIPOS>BOND
     1    1    6 ar
     2    1    2 ar
     3    1   19 1
     4    2    3 ar
     5    2   20 1
     6    3    4 ar
     7    3   21 1
     8    4    5 ar
     9    4    7 1
    10    5    6 ar
    11    5   22 1
    12    6   23 1
    13    7    8 2
    14    7   24 1
    15    8   14 1
    16    8    9 1
    17    9   10 2
    18    9   11 am
    19   11   12 am
    20   11   15 1
    21   12   13 2
    22   12   14 1
    23   15   16 1
    24   15   25 1
    25   15   26 1
    26   16   17 1
    27   16   27 1
    28   16   28 1
    29   17   18 3
@<TRIPOS>MOLECULE
ZINC02022527
   54    55     0     0     0
SMALL
USER_CHARGES

@<TRIPOS>ATOM
      1 C1         -3.0730    2.2881   -4.2693 C.3       1 <0>        -0.1569
      2 C2         -2.3049    1.5870   -3.1471 C.3       1 <0>        -0.1270
      3 C3         -2.8110    2.0874   -1.7927 C.3       1 <0>        -0.1231
      4 C4         -2.0429    1.3862   -0.6705 C.3       1 <0>        -0.1174
      5 C5         -2.5490    1.8867    0.6839 C.3       1 <0>        -0.1006
      6 C6         -2.2117    3.3722    0.8391 C.3       1 <0>        -0.1451
      7 C7         -2.6658    3.8518    2.2196 C.3       1 <0>        -0.0114
      8 C8         -2.3347    1.6429    3.1595 C.3       1 <0>        -0.0001
      9 C9         -1.8707    1.0973    1.8070 C.3       1 <0>        -0.1442
     10 C10        -2.2939    3.5901    4.5974 C.3       1 <0>        -0.0052
     11 C11        -2.1583    5.1140    4.5919 C.3       1 <0>        -0.1459
     12 C12        -2.4764    5.6593    5.9856 C.3       1 <0>        -0.1543
     13 C13        -2.3428    7.1604    5.9803 C.2       1 <0>         0.3987
     14 O1         -2.0245    7.7371    4.9623 O.2       1 <0>        -0.4456
     15 C14        -2.5986    7.9263    7.2106 C.ar      1 <0>        -0.1885
     16 C15        -3.0878    7.2813    8.3513 C.ar      1 <0>        -0.0705
     17 C16        -3.3195    8.0047    9.5018 C.ar      1 <0>        -0.1389
     18 C17        -3.0801    9.3679    9.5265 C.ar      1 <0>        -0.0729
     19 C18        -2.6016   10.0143    8.4004 C.ar      1 <0>        -0.1345
     20 C19        -2.3594    9.3036    7.2436 C.ar      1 <0>        -0.0178
     21 C20        -1.8387   10.0095    6.0182 C.3       1 <0>        -0.1264
     22 H1         -4.1363    2.0676   -4.1746 H         1 <0>         0.0549
     23 H2         -2.9175    3.3647   -4.1985 H         1 <0>         0.0540
     24 H3         -2.7125    1.9316   -5.2342 H         1 <0>         0.0581
     25 H4         -1.2417    1.8075   -3.2417 H         1 <0>         0.0621
     26 H5         -2.4605    0.5104   -3.2179 H         1 <0>         0.0631
     27 H6         -3.8743    1.8669   -1.6981 H         1 <0>         0.0644
     28 H7         -2.6555    3.1639   -1.7219 H         1 <0>         0.0632
     29 H8         -2.1984    0.3097   -0.7413 H         1 <0>         0.0733
     30 H9         -0.9796    1.6067   -0.7651 H         1 <0>         0.0688
     31 H10        -3.6287    1.7492    0.7427 H         1 <0>         0.0884
     32 H11        -1.1354    3.5132    0.7407 H         1 <0>         0.0881
     33 H12        -2.7264    3.9447    0.0675 H         1 <0>         0.1133
     34 H13        -3.7442    3.7233    2.3122 H         1 <0>         0.1295
     35 H14        -2.4142    4.9057    2.3388 H         1 <0>         0.1342
     36 H15        -3.4146    1.5248    3.2476 H         1 <0>         0.1293
     37 H16        -1.8426    1.0924    3.9613 H         1 <0>         0.1282
     38 H17        -2.1418    0.0446    1.7270 H         1 <0>         0.1118
     39 H18        -0.7890    1.2025    1.7239 H         1 <0>         0.0880
     40 H19        -3.3133    3.3170    4.8704 H         1 <0>         0.1315
     41 H20        -1.5979    3.1659    5.3211 H         1 <0>         0.1302
     42 H21        -1.1389    5.3871    4.3190 H         1 <0>         0.0944
     43 H22        -2.8542    5.5382    3.8682 H         1 <0>         0.0968
     44 H23        -3.4115    5.4088    6.2361 H         1 <0>         0.0981
     45 H24        -1.7805    5.2352    6.7093 H         1 <0>         0.1100
     46 H25        -3.2793    6.2186    8.3321 H         1 <0>         0.1290
     47 H26        -3.6933    7.5074   10.3846 H         1 <0>         0.1322
     48 H27        -3.2682    9.9300   10.4293 H         1 <0>         0.1326
     49 H28        -2.4176   11.0782    8.4274 H         1 <0>         0.1332
     50 H29        -2.6709   10.2515    5.3572 H         1 <0>         0.0784
     51 H30        -1.3321   10.9277    6.3156 H         1 <0>         0.0652
     52 H31        -1.1365    9.3600    5.4956 H         1 <0>         0.0893
     53 N1         -1.9588    3.0696    3.2558 N.4       1 <0>        -0.3931
     54 H32        -0.9467    3.1581    3.1071 H         1 <0>         0.4272
@<TRIPOS>BOND
     1    1    2 1
     2    1   22 1
     3    1   23 1
     4    1   24 1
     5    2    3 1
     6    2   25 1
     7    2   26 1
     8    3    4 1
     9    3   27 1
    10    3   28 1
    11    4    5 1
    12    4   29 1
    13    4   30 1
    14    5    9 1
    15    5    6 1
    16    5   31 1
    17    6    7 1
    18    6   32 1
    19    6   33 1
    20    7   34 1
    21    7   35 1
    22    7   53 1
    23    8    9 1
    24    8   36 1
    25    8   37 1
    26    8   53 1
    27    9   38 1
    28    9   39 1
    29   10   11 1
    30   10   40 1
    31   10   41 1
    32   10   53 1
    33   11   12 1
    34   11   42 1
    35   11   43 1
    36   12   13 1
    37   12   44 1
    38   12   45 1
    39   13   14 2
    40   13   15 1
    41   15   20 ar
    42   15   16 ar
    43   16   17 ar
    44   16   46 1
    45   17   18 ar
    46   17   47 1
    47   18   19 ar
    48   18   48 1
    49   19   20 ar
    50   19   49 1
    51   20   21 1
    52   21   50 1
    53   21   51 1
    54   21   52 1
    55   53   54 1
@<TRIPOS>MOLECULE
ZINC40166166
   33    35     0     0     0
SMALL
USER_CHARGES

@<TRIPOS>ATOM
      1 C1         -0.3940    1.4865    0.0212 C.3       1 <0>        -0.0955
      2 C2         -0.2635   -0.0148    0.0084 C.2       1 <0>         0.0833
      3 C3         -0.3451   -0.7860   -1.0874 C.2       1 <0>        -0.2032
      4 C4         -0.1633   -2.1725   -0.6504 C.ar      1 <0>        -0.0870
      5 C5         -0.1456   -3.4022   -1.3117 C.ar      1 <0>        -0.0698
      6 C6          0.0549   -4.5630   -0.5888 C.ar      1 <0>         0.1122
      7 C7          0.2380   -4.5072    0.7923 C.ar      1 <0>        -0.1174
      8 C8          0.2222   -3.2999    1.4529 C.ar      1 <0>        -0.1097
      9 C9          0.0222   -2.1204    0.7427 C.ar      1 <0>         0.0858
     10 N1         -0.0384   -0.7929    1.1108 N.pl3     1 <0>        -0.5937
     11 H1          0.0608   -0.4607    2.0167 H         1 <0>         0.4141
     12 N2          0.0738   -5.7998   -1.2458 N.am      1 <0>        -0.6643
     13 C10         0.5626   -5.8900   -2.4986 C.2       1 <0>         0.5587
     14 O1          1.0746   -4.9199   -3.0225 O.2       1 <0>        -0.5102
     15 C11         0.4760   -7.1685   -3.2355 C.ar      1 <0>        -0.1232
     16 C12        -0.1166   -8.2828   -2.6387 C.ar      1 <0>        -0.0827
     17 C13        -0.1950   -9.4731   -3.3314 C.ar      1 <0>        -0.1116
     18 C14         0.3126   -9.5649   -4.6153 C.ar      1 <0>        -0.0824
     19 C15         0.9017   -8.4640   -5.2135 C.ar      1 <0>        -0.0430
     20 C16         0.9812   -7.2651   -4.5328 C.ar      1 <0>        -0.0497
     21 Cl1         1.5362   -8.5894   -6.8245 Cl        1 <0>        -0.0564
     22 H2          0.5882    1.9378   -0.1191 H         1 <0>         0.0788
     23 H3         -1.0567    1.8005   -0.7852 H         1 <0>         0.0863
     24 H4         -0.8080    1.8070    0.9773 H         1 <0>         0.0686
     25 H5         -0.5133   -0.4483   -2.0993 H         1 <0>         0.1470
     26 H6         -0.2881   -3.4460   -2.3813 H         1 <0>         0.1352
     27 H7          0.3933   -5.4197    1.3487 H         1 <0>         0.1297
     28 H8          0.3647   -3.2682    2.5230 H         1 <0>         0.1254
     29 H9         -0.2649   -6.5915   -0.7992 H         1 <0>         0.4092
     30 H10        -0.5127   -8.2131   -1.6363 H         1 <0>         0.1336
     31 H11        -0.6533  -10.3355   -2.8704 H         1 <0>         0.1421
     32 H12         0.2493  -10.4994   -5.1529 H         1 <0>         0.1410
     33 H13         1.4369   -6.4055   -5.0017 H         1 <0>         0.1491
@<TRIPOS>BOND
     1    1    2 1
     2    1   22 1
     3    1   23 1
     4    1   24 1
     5    2   10 1
     6    2    3 2
     7    3    4 1
     8    3   25 1
     9    4    9 ar
    10    4    5 ar
    11    5    6 ar
    12    5   26 1
    13    6    7 ar
    14    6   12 1
    15    7    8 ar
    16    7   27 1
    17    8    9 ar
    18    8   28 1
    19    9   10 1
    20   10   11 1
    21   12   13 am
    22   12   29 1
    23   13   14 2
    24   13   15 1
    25   15   20 ar
    26   15   16 ar
    27   16   17 ar
    28   16   30 1
    29   17   18 ar
    30   17   31 1
    31   18   19 ar
    32   18   32 1
    33   19   20 ar
    34   19   21 1
    35   20   33 1
@<TRIPOS>MOLECULE
ZINC06221937
   36    38     0     0     0
SMALL
USER_CHARGES

@<TRIPOS>ATOM
      1 C1         -0.0284    1.4058   -0.1894 C.ar      1 <0>        -0.0742
      2 C2          1.1580    2.1102   -0.2055 C.ar      1 <0>        -0.1132
      3 C3          2.3513    1.4552   -0.4577 C.ar      1 <0>        -0.0308
      4 C4          2.3611    0.0914   -0.6954 C.ar      1 <0>        -0.1101
      5 C5          1.1801   -0.6221   -0.6820 C.ar      1 <0>        -0.0915
      6 C6         -0.0240    0.0324   -0.4276 C.ar      1 <0>        -0.0179
      7 C7         -1.2962   -0.7298   -0.4110 C.2       1 <0>         0.1327
      8 C8         -1.2958   -2.0773   -0.6391 C.2       1 <0>        -0.2368
      9 S1         -3.0416   -2.4379   -0.5004 S.3       1 <0>         0.0457
     10 C9         -3.5874   -0.7710   -0.1560 C.2       1 <0>         0.3957
     11 N1         -2.4429   -0.1114   -0.1696 N.2       1 <0>        -0.5654
     12 N2         -4.8695   -0.2976    0.0708 N.pl3     1 <0>        -0.5284
     13 N3         -5.9568   -1.1807    0.0463 N.2       1 <0>        -0.2436
     14 C10        -7.1502   -0.7297    0.1528 C.2       1 <0>         0.1187
     15 C11        -7.4199    0.7588    0.1525 C.3       1 <0>        -0.1247
     16 C12        -8.5032    1.0574   -0.8891 C.3       1 <0>        -0.1114
     17 C13        -9.7334    0.1941   -0.6047 C.3       1 <0>        -0.1249
     18 C14        -9.3773   -1.2849   -0.7647 C.3       1 <0>        -0.1179
     19 C15        -8.3274   -1.6717    0.2758 C.3       1 <0>        -0.0605
     20 Cl1         3.8405    2.3472   -0.4766 Cl        1 <0>        -0.0688
     21 H1         -0.9583    1.9169    0.0119 H         1 <0>         0.1407
     22 H2          1.1556    3.1744   -0.0213 H         1 <0>         0.1357
     23 H3          3.2946   -0.4149   -0.8921 H         1 <0>         0.1377
     24 H4          1.1886   -1.6859   -0.8683 H         1 <0>         0.1359
     25 H5         -0.4693   -2.7409   -0.8462 H         1 <0>         0.1989
     26 H6         -5.0143    0.6453    0.2465 H         1 <0>         0.4052
     27 H7         -7.7651    1.0685    1.1389 H         1 <0>         0.0949
     28 H8         -6.5070    1.2962   -0.1043 H         1 <0>         0.0691
     29 H9         -8.7782    2.1108   -0.8359 H         1 <0>         0.0741
     30 H10        -8.1224    0.8307   -1.8850 H         1 <0>         0.0661
     31 H11       -10.0761    0.3760    0.4139 H         1 <0>         0.0687
     32 H12       -10.5276    0.4533   -1.3048 H         1 <0>         0.0704
     33 H13       -10.2717   -1.8915   -0.6234 H         1 <0>         0.0784
     34 H14        -8.9757   -1.4561   -1.7635 H         1 <0>         0.0677
     35 H15        -7.9973   -2.6953    0.0981 H         1 <0>         0.0885
     36 H16        -8.7581   -1.5910    1.2738 H         1 <0>         0.0953
@<TRIPOS>BOND
     1    1    6 ar
     2    1    2 ar
     3    1   21 1
     4    2    3 ar
     5    2   22 1
     6    3    4 ar
     7    3   20 1
     8    4    5 ar
     9    4   23 1
    10    5    6 ar
    11    5   24 1
    12    6    7 1
    13    7   11 1
    14    7    8 2
    15    8    9 1
    16    8   25 1
    17    9   10 1
    18   10   11 2
    19   10   12 1
    20   12   13 1
    21   12   26 1
    22   13   14 2
    23   14   19 1
    24   14   15 1
    25   15   16 1
    26   15   27 1
    27   15   28 1
    28   16   17 1
    29   16   29 1
    30   16   30 1
    31   17   18 1
    32   17   31 1
    33   17   32 1
    34   18   19 1
    35   18   33 1
    36   18   34 1
    37   19   35 1
    38   19   36 1
@<TRIPOS>MOLECULE
ZINC54362885
   36    38     0     0     0
SMALL
USER_CHARGES

@<TRIPOS>ATOM
      1 C1         -0.0285    1.4062   -0.1893 C.ar      1 <0>        -0.0573
      2 C2          1.1576    2.1110   -0.2053 C.ar      1 <0>        -0.1566
      3 C3          2.3518    1.4556   -0.4577 C.ar      1 <0>         0.1030
      4 C4          2.3612    0.0908   -0.6955 C.ar      1 <0>        -0.1533
      5 C5          1.1799   -0.6220   -0.6820 C.ar      1 <0>        -0.0743
      6 C6         -0.0240    0.0329   -0.4276 C.ar      1 <0>        -0.0339
      7 C7         -1.2964   -0.7293   -0.4110 C.2       1 <0>         0.1356
      8 C8         -1.2960   -2.0767   -0.6391 C.2       1 <0>        -0.2390
      9 S1         -3.0419   -2.4372   -0.5004 S.3       1 <0>         0.0447
     10 C9         -3.5875   -0.7703   -0.1560 C.2       1 <0>         0.3956
     11 N1         -2.4429   -0.1107   -0.1696 N.2       1 <0>        -0.5661
     12 N2         -4.8696   -0.2966    0.0702 N.pl3     1 <0>        -0.5285
     13 N3         -5.9572   -1.1795    0.0449 N.2       1 <0>        -0.2435
     14 C10        -7.1505   -0.7283    0.1508 C.2       1 <0>         0.1185
     15 C11        -7.4199    0.7603    0.1506 C.3       1 <0>        -0.1246
     16 C12        -8.5026    1.0593   -0.8916 C.3       1 <0>        -0.1114
     17 C13        -9.7331    0.1962   -0.6081 C.3       1 <0>        -0.1249
     18 C14        -9.3772   -1.2828   -0.7682 C.3       1 <0>        -0.1179
     19 C15        -8.3279   -1.6701    0.2729 C.3       1 <0>        -0.0605
     20 F1          3.5108    2.1497   -0.4724 F         1 <0>        -0.1384
     21 H1         -0.9585    1.9171    0.0119 H         1 <0>         0.1414
     22 H2          1.1550    3.1751   -0.0211 H         1 <0>         0.1378
     23 H3          3.2944   -0.4159   -0.8922 H         1 <0>         0.1399
     24 H4          1.1880   -1.6858   -0.8682 H         1 <0>         0.1367
     25 H5         -0.4696   -2.7404   -0.8462 H         1 <0>         0.1987
     26 H6         -5.0144    0.6463    0.2460 H         1 <0>         0.4051
     27 H7         -7.7656    1.0698    1.1369 H         1 <0>         0.0948
     28 H8         -6.5067    1.2975   -0.1056 H         1 <0>         0.0692
     29 H9         -8.7773    2.1128   -0.8384 H         1 <0>         0.0741
     30 H10        -8.1212    0.8328   -1.8873 H         1 <0>         0.0661
     31 H11       -10.0763    0.3780    0.4104 H         1 <0>         0.0687
     32 H12       -10.5269    0.4557   -1.3086 H         1 <0>         0.0704
     33 H13       -10.2719   -1.8893   -0.6274 H         1 <0>         0.0783
     34 H14        -8.9751   -1.4539   -1.7668 H         1 <0>         0.0677
     35 H15        -7.9980   -2.6936    0.0952 H         1 <0>         0.0885
     36 H16        -8.7593   -1.5895    1.2707 H         1 <0>         0.0952
@<TRIPOS>BOND
     1    1    6 ar
     2    1    2 ar
     3    1   21 1
     4    2    3 ar
     5    2   22 1
     6    3    4 ar
     7    3   20 1
     8    4    5 ar
     9    4   23 1
    10    5    6 ar
    11    5   24 1
    12    6    7 1
    13    7   11 1
    14    7    8 2
    15    8    9 1
    16    8   25 1
    17    9   10 1
    18   10   11 2
    19   10   12 1
    20   12   13 1
    21   12   26 1
    22   13   14 2
    23   14   19 1
    24   14   15 1
    25   15   16 1
    26   15   27 1
    27   15   28 1
    28   16   17 1
    29   16   29 1
    30   16   30 1
    31   17   18 1
    32   17   31 1
    33   17   32 1
    34   18   19 1
    35   18   33 1
    36   18   34 1
    37   19   35 1
    38   19   36 1
@<TRIPOS>MOLECULE
ZINC27529339
   42    44     0     0     0
SMALL
USER_CHARGES
N-[(4-methylcyclohexylidene)amino]-4-(p-tolyl)thiazol-2-amine
@<TRIPOS>ATOM
      1 C1         -0.0270    5.7512    0.4828 C.3       1 <0>        -0.1229
      2 C2         -0.0074    4.2444    0.4673 C.ar      1 <0>        -0.0719
      3 C3          1.1757    3.5733    0.2153 C.ar      1 <0>        -0.1122
      4 C4          1.1995    2.1936    0.1994 C.ar      1 <0>        -0.1069
      5 C5          0.0284    1.4762    0.4380 C.ar      1 <0>        -0.0497
      6 C6         -1.1620    2.1578    0.6857 C.ar      1 <0>        -0.0860
      7 C7         -1.1727    3.5377    0.7048 C.ar      1 <0>        -0.1141
      8 C8          0.0476   -0.0067    0.4223 C.2       1 <0>         0.1387
      9 C9         -1.0974   -0.7137    0.6608 C.2       1 <0>        -0.2184
     10 S1         -0.4895   -2.3890    0.5152 S.3       1 <0>        -0.0026
     11 C10         1.2144   -1.9785    0.1639 C.2       1 <0>         0.3859
     12 N1          1.1762   -0.6582    0.1823 N.pl3     1 <0>        -0.5922
     13 N2          2.2895   -2.8212   -0.0665 N.2       1 <0>        -0.4211
     14 N3          2.1091   -4.2103   -0.0399 N.2       1 <0>        -0.3526
     15 C11         3.1190   -4.9893   -0.1499 C.2       1 <0>         0.1644
     16 C12         4.5268   -4.4361   -0.1683 C.3       1 <0>        -0.1202
     17 C13         5.3582   -5.1973    0.8761 C.3       1 <0>        -0.1066
     18 C14         5.2679   -6.6987    0.5985 C.3       1 <0>        -0.0953
     19 C15         3.8237   -7.1721    0.7712 C.3       1 <0>        -0.1101
     20 C16         2.9349   -6.4858   -0.2713 C.3       1 <0>        -0.0695
     21 C17         6.1706   -7.4521    1.5775 C.3       1 <0>        -0.1494
     22 H1          0.9834    6.1332    0.2751 H         1 <0>         0.0683
     23 H2         -0.3561    6.1034    1.4715 H         1 <0>         0.0745
     24 H3         -0.7226    6.1168   -0.2869 H         1 <0>         0.0746
     25 H4          2.0825    4.1302    0.0309 H         1 <0>         0.1294
     26 H5          2.1236    1.6706    0.0021 H         1 <0>         0.1200
     27 H6         -2.0732    1.6071    0.8667 H         1 <0>         0.1326
     28 H7         -2.0935    4.0669    0.9007 H         1 <0>         0.1312
     29 H8         -2.0944   -0.3587    0.8761 H         1 <0>         0.2035
     30 H9          4.9616   -4.5733   -1.1694 H         1 <0>         0.0778
     31 H10         4.5028   -3.3641    0.0772 H         1 <0>         0.0845
     32 H11         6.4080   -4.8743    0.8153 H         1 <0>         0.0665
     33 H12         4.9669   -4.9849    1.8820 H         1 <0>         0.0610
     34 H13         5.5936   -6.8969   -0.4333 H         1 <0>         0.0736
     35 H14         3.7763   -8.2624    0.6336 H         1 <0>         0.0730
     36 H15         3.4716   -6.9143    1.7809 H         1 <0>         0.0653
     37 H16         1.8802   -6.7412   -0.0915 H         1 <0>         0.0826
     38 H17         3.2235   -6.8100   -1.2821 H         1 <0>         0.0880
     39 H18         6.1063   -8.5321    1.3786 H         1 <0>         0.0563
     40 H19         5.8440   -7.2489    2.6080 H         1 <0>         0.0543
     41 H20         7.2105   -7.1169    1.4496 H         1 <0>         0.0550
     42 H21         2.1045   -0.0991   -0.0064 H         1 <0>         0.4408
@<TRIPOS>BOND
     1    1    2 1
     2    1   22 1
     3    1   23 1
     4    1   24 1
     5    2    7 ar
     6    2    3 ar
     7    3    4 ar
     8    3   25 1
     9    4    5 ar
    10    4   26 1
    11    5    6 ar
    12    5    8 1
    13    6    7 ar
    14    6   27 1
    15    7   28 1
    16    8   12 1
    17    8    9 2
    18    9   10 1
    19    9   29 1
    20   10   11 1
    21   11   12 1
    22   11   13 2
    23   12   42 1
    24   13   14 1
    25   14   15 2
    26   15   20 1
    27   15   16 1
    28   16   17 1
    29   16   30 1
    30   16   31 1
    31   17   18 1
    32   17   32 1
    33   17   33 1
    34   18   19 1
    35   18   21 1
    36   18   34 1
    37   19   20 1
    38   19   35 1
    39   19   36 1
    40   20   37 1
    41   20   38 1
    42   21   39 1
    43   21   40 1
    44   21   41 1
@<TRIPOS>MOLECULE
ZINC27529346
   43    45     0     0     0
SMALL
USER_CHARGES
4-(4-methoxyphenyl)-N-[(4-methylcyclohexylidene)amino]thiazol-2-amine
@<TRIPOS>ATOM
      1 C1          3.3370    9.0531    1.6907 C.3       1 <0>        -0.1494
      2 C2          3.1325    7.9094    0.6952 C.3       1 <0>        -0.0956
      3 C3          4.2712    6.8987    0.8411 C.3       1 <0>        -0.1110
      4 C4          4.1170    5.8017   -0.2177 C.3       1 <0>        -0.0696
      5 C5          2.7331    5.2039   -0.0927 C.2       1 <0>         0.1652
      6 N1          2.5709    3.9373   -0.0013 N.2       1 <0>        -0.3524
      7 N2          1.2803    3.3929   -0.0244 N.2       1 <0>        -0.4210
      8 C6          1.0970    2.0359    0.1861 C.2       1 <0>         0.3878
      9 N3         -0.0237    1.3365    0.2040 N.pl3     1 <0>        -0.5926
     10 C7         -0.0146    0.0299    0.4231 C.2       1 <0>         0.1442
     11 C8          1.1759   -0.6067    0.6346 C.2       1 <0>        -0.2246
     12 S1          2.3140    0.7663    0.5057 S.3       1 <0>        -0.0031
     13 C9         -1.2854   -0.7352    0.4382 C.ar      1 <0>        -0.0828
     14 C10        -1.2698   -2.1108    0.6629 C.ar      1 <0>        -0.0477
     15 C11        -2.4535   -2.8186    0.6811 C.ar      1 <0>        -0.2021
     16 C12        -3.6586   -2.1642    0.4658 C.ar      1 <0>         0.1419
     17 C13        -3.6770   -0.7953    0.2361 C.ar      1 <0>        -0.1429
     18 C14        -2.4971   -0.0810    0.2219 C.ar      1 <0>        -0.0702
     19 O1         -4.8229   -2.8652    0.4796 O.3       1 <0>        -0.3133
     20 C15        -4.7312   -4.2705    0.7220 C.3       1 <0>         0.0205
     21 C16         1.5453    6.1406   -0.0849 C.3       1 <0>        -0.1199
     22 C17         1.7931    7.2256    0.9747 C.3       1 <0>        -0.1066
     23 H1          4.3000    9.5456    1.4906 H         1 <0>         0.0562
     24 H2          3.3361    8.6522    2.7150 H         1 <0>         0.0543
     25 H3          2.5219    9.7838    1.5822 H         1 <0>         0.0550
     26 H4          3.1298    8.3070   -0.3304 H         1 <0>         0.0736
     27 H5          5.2352    7.4100    0.7025 H         1 <0>         0.0727
     28 H6          4.2357    6.4486    1.8442 H         1 <0>         0.0650
     29 H7          4.2483    6.2376   -1.2191 H         1 <0>         0.0880
     30 H8          4.8777    5.0242   -0.0537 H         1 <0>         0.0824
     31 H9          1.3745   -1.6509    0.8263 H         1 <0>         0.2023
     32 H10        -0.3322   -2.6212    0.8267 H         1 <0>         0.1359
     33 H11        -2.4425   -3.8838    0.8592 H         1 <0>         0.1375
     34 H12        -4.6161   -0.2891    0.0686 H         1 <0>         0.1390
     35 H13        -2.5121    0.9840    0.0431 H         1 <0>         0.1277
     36 H14        -5.7387   -4.7118    0.7064 H         1 <0>         0.1057
     37 H15        -4.2703   -4.4436    1.7057 H         1 <0>         0.0599
     38 H16        -4.1140   -4.7379   -0.0595 H         1 <0>         0.0599
     39 H17         1.4351    6.6012   -1.0777 H         1 <0>         0.0778
     40 H18         0.6341    5.5753    0.1602 H         1 <0>         0.0847
     41 H19         1.8176    6.7657    1.9736 H         1 <0>         0.0611
     42 H20         0.9853    7.9711    0.9340 H         1 <0>         0.0665
     43 H21        -0.9879    1.8383    0.0350 H         1 <0>         0.4399
@<TRIPOS>BOND
     1    1    2 1
     2    1   23 1
     3    1   24 1
     4    1   25 1
     5    2   22 1
     6    2    3 1
     7    2   26 1
     8    3    4 1
     9    3   27 1
    10    3   28 1
    11    4    5 1
    12    4   29 1
    13    4   30 1
    14    5    6 2
    15    5   21 1
    16    6    7 1
    17    7    8 2
    18    8   12 1
    19    8    9 1
    20    9   10 1
    21    9   43 1
    22   10   11 2
    23   10   13 1
    24   11   12 1
    25   11   31 1
    26   13   18 ar
    27   13   14 ar
    28   14   15 ar
    29   14   32 1
    30   15   16 ar
    31   15   33 1
    32   16   17 ar
    33   16   19 1
    34   17   18 ar
    35   17   34 1
    36   18   35 1
    37   19   20 1
    38   20   36 1
    39   20   37 1
    40   20   38 1
    41   21   22 1
    42   21   39 1
    43   21   40 1
    44   22   41 1
    45   22   42 1
@<TRIPOS>MOLECULE
ZINC12336348
   24    25     0     0     0
SMALL
USER_CHARGES
(1-phenyltriazol-4-yl)methanamine
@<TRIPOS>ATOM
      1 C1         -4.7876    0.8703    5.9711 C.ar      1 <0>        -0.0912
      2 C2         -4.1281    2.0856    5.9709 C.ar      1 <0>        -0.0962
      3 C3         -3.2033    2.3708    4.9854 C.ar      1 <0>        -0.0894
      4 C4         -2.9359    1.4358    3.9948 C.ar      1 <0>         0.0882
      5 C5         -3.6031    0.2184    3.9949 C.ar      1 <0>        -0.1098
      6 C6         -4.5230   -0.0632    4.9860 C.ar      1 <0>        -0.0971
      7 N1         -1.9978    1.7227    2.9925 N.pl3     1 <0>        -0.2193
      8 C7         -1.6448    0.8980    1.9688 C.2       1 <0>        -0.0021
      9 C8         -0.7181    1.5718    1.2479 C.2       1 <0>        -0.1071
     10 N2         -0.5470    2.7514    1.8553 N.2       1 <0>        -0.2377
     11 N3         -1.3213    2.8122    2.8803 N.2       1 <0>        -0.0469
     12 C9         -0.0127    1.0858    0.0080 C.3       1 <0>         0.1062
     13 H1         -5.5106    0.6496    6.7425 H         1 <0>         0.1423
     14 H2         -4.3365    2.8127    6.7418 H         1 <0>         0.1458
     15 H3         -2.6885    3.3202    4.9857 H         1 <0>         0.1459
     16 H4         -3.4004   -0.5091    3.2229 H         1 <0>         0.1349
     17 H5         -5.0392   -1.0119    4.9891 H         1 <0>         0.1448
     18 H6         -2.0269   -0.0927    1.7715 H         1 <0>         0.2052
     19 H7          0.0021   -0.0041    0.0020 H         1 <0>         0.1529
     20 H8          1.0099    1.4631    0.0003 H         1 <0>         0.1510
     21 H9         -0.2694    1.2597   -2.0273 H         1 <0>         0.4445
     22 H10        -1.6917    1.2898   -1.1659 H         1 <0>         0.4361
     23 N4         -0.7207    1.5974   -1.1788 N.4       1 <0>        -0.6452
     24 H11        -0.6943    2.6238   -1.1711 H         1 <0>         0.4443
@<TRIPOS>BOND
     1    1    6 ar
     2    1    2 ar
     3    1   13 1
     4    2    3 ar
     5    2   14 1
     6    3    4 ar
     7    3   15 1
     8    4    5 ar
     9    4    7 1
    10    5    6 ar
    11    5   16 1
    12    6   17 1
    13    7   11 1
    14    7    8 1
    15    8    9 2
    16    8   18 1
    17    9   10 1
    18    9   12 1
    19   10   11 2
    20   12   19 1
    21   12   20 1
    22   12   23 1
    23   21   23 1
    24   22   23 1
    25   23   24 1
@<TRIPOS>MOLECULE
ZINC18847037
   33    35     0     0     0
SMALL
USER_CHARGES

@<TRIPOS>ATOM
      1 C1         -0.0173    1.4248    0.0099 C.3       1 <0>         0.0257
      2 O1          0.0021   -0.0041    0.0020 O.3       1 <0>        -0.3163
      3 C2          0.6259   -0.6184    1.0416 C.ar      1 <0>         0.1346
      4 C3          1.2017    0.1413    2.0505 C.ar      1 <0>        -0.2081
      5 C4          1.8351   -0.4792    3.1070 C.ar      1 <0>        -0.0652
      6 C5          1.8965   -1.8707    3.1609 C.ar      1 <0>        -0.0695
      7 C6          1.3173   -2.6308    2.1463 C.ar      1 <0>        -0.0470
      8 C7          0.6807   -2.0044    1.0951 C.ar      1 <0>        -0.1503
      9 C8          2.5773   -2.5411    4.2955 C.2       1 <0>        -0.2301
     10 C9          2.0898   -2.4416    5.5593 C.2       1 <0>         0.1222
     11 O2          2.6644   -3.0420    6.6041 O.3       1 <0>        -0.2153
     12 C10         3.9203   -3.5262    6.5411 C.ar      1 <0>         0.1758
     13 C11         4.6109   -3.8503    7.7004 C.ar      1 <0>        -0.1825
     14 C12         5.8988   -4.3556    7.6239 C.ar      1 <0>         0.1909
     15 C13         6.5160   -4.5473    6.3921 C.ar      1 <0>        -0.2036
     16 C14         5.8471   -4.2284    5.2249 C.ar      1 <0>         0.2177
     17 C15         4.5483   -3.7100    5.2959 C.ar      1 <0>        -0.2618
     18 C16         3.7998   -3.3401    4.0813 C.2       1 <0>         0.4315
     19 O3          4.1694   -3.6700    2.9673 O.2       1 <0>        -0.4364
     20 O4          6.4443   -4.4158    4.0209 O.3       1 <0>        -0.4758
     21 O5          6.5661   -4.6669    8.7643 O.3       1 <0>        -0.4882
     22 H1          1.0053    1.8021    0.0021 H         1 <0>         0.0568
     23 H2         -0.5445    1.7859   -0.8732 H         1 <0>         0.1019
     24 H3         -0.5275    1.7763    0.9067 H         1 <0>         0.0568
     25 H4          1.1541    1.2194    2.0079 H         1 <0>         0.1317
     26 H5          2.2833    0.1125    3.8915 H         1 <0>         0.1264
     27 H6          1.3632   -3.7091    2.1852 H         1 <0>         0.1304
     28 H7          0.2278   -2.5928    0.3108 H         1 <0>         0.1347
     29 H8          1.2005   -1.8518    5.7260 H         1 <0>         0.2010
     30 H9          4.1439   -3.7080    8.6637 H         1 <0>         0.1535
     31 H10         7.5190   -4.9453    6.3475 H         1 <0>         0.1500
     32 H11         6.2888   -5.2893    3.6365 H         1 <0>         0.4049
     33 H12         6.4352   -5.5781    9.0604 H         1 <0>         0.4038
@<TRIPOS>BOND
     1    1    2 1
     2    1   22 1
     3    1   23 1
     4    1   24 1
     5    2    3 1
     6    3    8 ar
     7    3    4 ar
     8    4    5 ar
     9    4   25 1
    10    5    6 ar
    11    5   26 1
    12    6    7 ar
    13    6    9 1
    14    7    8 ar
    15    7   27 1
    16    8   28 1
    17    9   18 1
    18    9   10 2
    19   10   11 1
    20   10   29 1
    21   11   12 1
    22   12   17 ar
    23   12   13 ar
    24   13   14 ar
    25   13   30 1
    26   14   15 ar
    27   14   21 1
    28   15   16 ar
    29   15   31 1
    30   16   17 ar
    31   16   20 1
    32   17   18 1
    33   18   19 2
    34   20   32 1
    35   21   33 1
@<TRIPOS>MOLECULE
ZINC37868688
   41    43     0     0     0
SMALL
USER_CHARGES

@<TRIPOS>ATOM
      1 C1         -0.0178    1.4608    0.0101 C.3       1 <0>         0.0745
      2 N1          0.0021   -0.0041    0.0020 N.pl3     1 <0>        -0.4070
      3 C2          0.0083   -0.8243   -1.1163 C.2       1 <0>        -0.1628
      4 C3          0.0290   -2.1309   -0.6416 C.2       1 <0>         0.3490
      5 N2          0.0345   -2.0710    0.6916 N.2       1 <0>        -0.5313
      6 C4          0.0238   -0.8154    1.0833 C.2       1 <0>         0.4815
      7 O1          0.0302   -0.4000    2.3696 O.3       1 <0>        -0.2864
      8 C5          0.0541   -1.4121    3.3781 C.3       1 <0>         0.0850
      9 C6          0.0581   -0.7552    4.7599 C.3       1 <0>        -0.0790
     10 C7          0.0833   -1.8226    5.8235 C.ar      1 <0>        -0.0883
     11 C8         -1.1021   -2.3330    6.3186 C.ar      1 <0>        -0.1109
     12 C9         -1.0790   -3.3121    7.2942 C.ar      1 <0>        -0.1179
     13 C10         0.1295   -3.7810    7.7743 C.ar      1 <0>        -0.1168
     14 C11         1.3149   -3.2712    7.2785 C.ar      1 <0>        -0.1179
     15 C12         1.2918   -2.2952    6.2998 C.ar      1 <0>        -0.1109
     16 N3          0.0400   -3.1731   -1.5543 N.am      1 <0>        -0.5091
     17 C13         0.0306   -2.9129   -2.8753 C.2       1 <0>         0.7086
     18 O2          0.0404   -3.8398   -3.6624 O.2       1 <0>        -0.5317
     19 N4          0.0101   -1.6538   -3.3455 N.am      1 <0>        -0.5513
     20 C14        -0.0012   -0.5984   -2.5052 C.2       1 <0>         0.5972
     21 O3         -0.0194    0.5382   -2.9442 O.2       1 <0>        -0.5129
     22 C15         0.0007   -1.4241   -4.7924 C.3       1 <0>         0.0831
     23 C16         0.0623   -4.5596   -1.0816 C.3       1 <0>         0.0883
     24 H1          1.0048    1.8381    0.0023 H         1 <0>         0.0862
     25 H2         -0.5450    1.8219   -0.8730 H         1 <0>         0.1029
     26 H3         -0.5280    1.8123    0.9069 H         1 <0>         0.0969
     27 H4         -0.8280   -2.0446    3.2790 H         1 <0>         0.0787
     28 H5          0.9517   -2.0195    3.2620 H         1 <0>         0.0786
     29 H6          0.9402   -0.1226    4.8590 H         1 <0>         0.0869
     30 H7         -0.8395   -0.1477    4.8760 H         1 <0>         0.0869
     31 H8         -2.0463   -1.9666    5.9435 H         1 <0>         0.1237
     32 H9         -2.0052   -3.7104    7.6816 H         1 <0>         0.1244
     33 H10         0.1475   -4.5455    8.5370 H         1 <0>         0.1235
     34 H11         2.2590   -3.6374    7.6538 H         1 <0>         0.1244
     35 H12         2.2179   -1.8996    5.9098 H         1 <0>         0.1237
     36 H13         0.0125   -2.3820   -5.3124 H         1 <0>         0.1056
     37 H14        -0.8987   -0.8728   -5.0668 H         1 <0>         0.0818
     38 H15         0.8811   -0.8467   -5.0743 H         1 <0>         0.0819
     39 H16        -0.9597   -4.9184   -0.9597 H         1 <0>         0.0743
     40 H17         0.5819   -5.1831   -1.8091 H         1 <0>         0.0949
     41 H18         0.5813   -4.6088   -0.1243 H         1 <0>         0.0918
@<TRIPOS>BOND
     1    1    2 1
     2    1   24 1
     3    1   25 1
     4    1   26 1
     5    2    6 1
     6    2    3 1
     7    3   20 1
     8    3    4 2
     9    4    5 1
    10    4   16 1
    11    5    6 2
    12    6    7 1
    13    7    8 1
    14    8    9 1
    15    8   27 1
    16    8   28 1
    17    9   10 1
    18    9   29 1
    19    9   30 1
    20   10   15 ar
    21   10   11 ar
    22   11   12 ar
    23   11   31 1
    24   12   13 ar
    25   12   32 1
    26   13   14 ar
    27   13   33 1
    28   14   15 ar
    29   14   34 1
    30   15   35 1
    31   16   17 am
    32   16   23 1
    33   17   18 2
    34   17   19 am
    35   19   20 am
    36   19   22 1
    37   20   21 2
    38   22   36 1
    39   22   37 1
    40   22   38 1
    41   23   39 1
    42   23   40 1
    43   23   41 1
@<TRIPOS>MOLECULE
ZINC18185774
   31    33     0     0     0
SMALL
USER_CHARGES

@<TRIPOS>ATOM
      1 C1         -0.0169    1.3929    0.0097 C.ar      1 <0>        -0.0705
      2 C2          1.1675    2.0983    0.0022 C.ar      1 <0>        -0.1309
      3 C3          2.3803    1.4240   -0.0135 C.ar      1 <0>         0.1099
      4 C4          2.4067    0.0300   -0.0212 C.ar      1 <0>         0.0792
      5 C5          1.2240   -0.6832   -0.0138 C.ar      1 <0>        -0.0904
      6 C6          0.0021   -0.0041    0.0020 C.ar      1 <0>        -0.0661
      7 C7         -1.2642   -0.7606    0.0105 C.2       1 <0>         0.2069
      8 C8         -2.4374   -0.0724    0.0203 C.2       1 <0>        -0.3067
      9 C9         -3.6620   -0.7813    0.0286 C.2       1 <0>         0.4226
     10 O1         -4.7331   -0.1964    0.0371 O.2       1 <0>        -0.4521
     11 C10        -3.5935   -2.2524    0.0260 C.ar      1 <0>        -0.2661
     12 C11        -4.7554   -3.0344    0.0332 C.ar      1 <0>         0.2196
     13 C12        -4.6484   -4.4128    0.0300 C.ar      1 <0>        -0.2046
     14 C13        -3.3955   -5.0163    0.0203 C.ar      1 <0>         0.1928
     15 C14        -2.2415   -4.2483    0.0131 C.ar      1 <0>        -0.1829
     16 C15        -2.3286   -2.8648    0.0157 C.ar      1 <0>         0.1832
     17 O2         -1.2147   -2.1022    0.0028 O.3       1 <0>        -0.2181
     18 O3         -3.3016   -6.3705    0.0182 O.3       1 <0>        -0.4872
     19 O4         -5.9771   -2.4436    0.0436 O.3       1 <0>        -0.4722
     20 O5          3.5971   -0.6274   -0.0366 O.3       1 <0>        -0.4831
     21 O6          3.5446    2.1239   -0.0217 O.3       1 <0>        -0.4848
     22 H1         -0.9593    1.9201    0.0260 H         1 <0>         0.1451
     23 H2          1.1515    3.1781    0.0081 H         1 <0>         0.1468
     24 H3          1.2430   -1.7630   -0.0205 H         1 <0>         0.1466
     25 H4         -2.4342    1.0076    0.0222 H         1 <0>         0.1649
     26 H5         -5.5400   -5.0224    0.0355 H         1 <0>         0.1504
     27 H6         -1.2739   -4.7281    0.0059 H         1 <0>         0.1535
     28 H7         -3.2809   -6.7620   -0.8658 H         1 <0>         0.4041
     29 H8         -6.3379   -2.2705   -0.8367 H         1 <0>         0.4034
     30 H9          3.9502   -0.8223    0.8423 H         1 <0>         0.3919
     31 H10         3.8907    2.3221    0.8592 H         1 <0>         0.3948
@<TRIPOS>BOND
     1    1    6 ar
     2    1    2 ar
     3    1   22 1
     4    2    3 ar
     5    2   23 1
     6    3    4 ar
     7    3   21 1
     8    4    5 ar
     9    4   20 1
    10    5    6 ar
    11    5   24 1
    12    6    7 1
    13    7   17 1
    14    7    8 2
    15    8    9 1
    16    8   25 1
    17    9   10 2
    18    9   11 1
    19   11   16 ar
    20   11   12 ar
    21   12   13 ar
    22   12   19 1
    23   13   14 ar
    24   13   26 1
    25   14   15 ar
    26   14   18 1
    27   15   16 ar
    28   15   27 1
    29   16   17 1
    30   18   28 1
    31   19   29 1
    32   20   30 1
    33   21   31 1
@<TRIPOS>MOLECULE
ZINC00014479
   25    26     0     0     0
SMALL
USER_CHARGES

@<TRIPOS>ATOM
      1 C1          0.1373    1.3229   -1.0128 C.ar      1 <0>        -0.1615
      2 C2          1.2729    2.0488   -0.7118 C.ar      1 <0>        -0.1419
      3 C3          2.4307    1.3943   -0.3172 C.ar      1 <0>         0.0608
      4 C4          2.4487    0.0102   -0.2245 C.ar      1 <0>        -0.0920
      5 C5          1.3139   -0.7171   -0.5252 C.ar      1 <0>        -0.1617
      6 C6          0.1545   -0.0626   -0.9199 C.ar      1 <0>         0.1893
      7 N1         -0.9958   -0.7988   -1.2242 N.pl3     1 <0>        -0.8803
      8 O1          3.5486    2.1098   -0.0214 O.3       1 <0>        -0.2618
      9 C7          3.4836    3.4638   -0.1181 C.ar      1 <0>         0.0945
     10 C8          3.1054    4.2214    0.9811 C.ar      1 <0>        -0.1153
     11 C9          3.0405    5.5976    0.8809 C.ar      1 <0>        -0.0964
     12 C10         3.3523    6.2206   -0.3146 C.ar      1 <0>        -0.0365
     13 C11         3.7293    5.4669   -1.4121 C.ar      1 <0>        -0.0965
     14 C12         3.8010    4.0909   -1.3144 C.ar      1 <0>        -0.1153
     15 Cl1         3.2700    7.9503   -0.4379 Cl        1 <0>        -0.0616
     16 H1         -0.7651    1.8328   -1.3160 H         1 <0>         0.1241
     17 H2          1.2597    3.1263   -0.7840 H         1 <0>         0.1261
     18 H3          3.3505   -0.4986    0.0824 H         1 <0>         0.1331
     19 H4          1.3283   -1.7946   -0.4537 H         1 <0>         0.1296
     20 H5         -1.8055   -0.3415   -1.5002 H         1 <0>         0.3982
     21 H6         -0.9836   -1.7666   -1.1592 H         1 <0>         0.3986
     22 H7          2.8615    3.7355    1.9143 H         1 <0>         0.1414
     23 H8          2.7457    6.1876    1.7361 H         1 <0>         0.1418
     24 H9          3.9720    5.9551   -2.3444 H         1 <0>         0.1419
     25 H10         4.1000    3.5033   -2.1698 H         1 <0>         0.1414
@<TRIPOS>BOND
     1    1    6 ar
     2    1    2 ar
     3    1   16 1
     4    2    3 ar
     5    2   17 1
     6    3    4 ar
     7    3    8 1
     8    4    5 ar
     9    4   18 1
    10    5    6 ar
    11    5   19 1
    12    6    7 1
    13    7   20 1
    14    7   21 1
    15    8    9 1
    16    9   14 ar
    17    9   10 ar
    18   10   11 ar
    19   10   22 1
    20   11   12 ar
    21   11   23 1
    22   12   13 ar
    23   12   15 1
    24   13   14 ar
    25   13   24 1
    26   14   25 1
@<TRIPOS>MOLECULE
ZINC22222987
   30    32     0     0     0
SMALL
USER_CHARGES
5-benzyloxyindoline-2,3-dione
@<TRIPOS>ATOM
      1 C1         -0.0167    1.3781    0.0096 C.ar      1 <0>        -0.1072
      2 C2          1.1709    2.0855    0.0021 C.ar      1 <0>        -0.1230
      3 C3          2.3773    1.4107   -0.0141 C.ar      1 <0>        -0.0945
      4 C4          2.3960    0.0285   -0.0217 C.ar      1 <0>        -0.1010
      5 C5          1.2084   -0.6789   -0.0136 C.ar      1 <0>        -0.0944
      6 C6          0.0021   -0.0041    0.0020 C.ar      1 <0>        -0.1230
      7 C7          3.7112   -0.7071   -0.0392 C.3       1 <0>         0.0990
      8 O1          4.1132   -0.9320   -1.3920 O.3       1 <0>        -0.3032
      9 C8          5.2879   -1.5891   -1.5858 C.ar      1 <0>         0.0984
     10 C9          6.0407   -2.0036   -0.4946 C.ar      1 <0>        -0.1356
     11 C10         7.2341   -2.6762   -0.6770 C.ar      1 <0>        -0.1077
     12 C11         7.7016   -2.9381   -1.9581 C.ar      1 <0>         0.1505
     13 C12         6.9436   -2.5147   -3.0611 C.ar      1 <0>        -0.2024
     14 C13         5.7372   -1.8404   -2.8712 C.ar      1 <0>        -0.0372
     15 C14         7.6848   -2.9297   -4.2668 C.2       1 <0>         0.3907
     16 O2          7.3705   -2.7540   -5.4257 O.2       1 <0>        -0.3634
     17 C15         8.9125   -3.6161   -3.7460 C.2       1 <0>         0.5023
     18 O3          9.7957   -4.1106   -4.4146 O.2       1 <0>        -0.4512
     19 N1          8.8556   -3.5837   -2.4034 N.am      1 <0>        -0.6614
     20 H1         -0.9592    1.9054    0.0170 H         1 <0>         0.1254
     21 H2          1.1563    3.1654    0.0081 H         1 <0>         0.1263
     22 H3          3.3051    1.9634   -0.0207 H         1 <0>         0.1248
     23 H4          1.2231   -1.7587   -0.0199 H         1 <0>         0.1248
     24 H5         -0.9258   -0.5567    0.0079 H         1 <0>         0.1263
     25 H6          4.4749   -0.1051    0.4750 H         1 <0>         0.0753
     26 H7          3.5981   -1.6729    0.4751 H         1 <0>         0.0754
     27 H8          5.6881   -1.8016    0.5060 H         1 <0>         0.1440
     28 H9          7.8073   -2.9964    0.1805 H         1 <0>         0.1414
     29 H10         5.1569   -1.5158   -3.7222 H         1 <0>         0.1473
     30 H11         9.5760   -3.9863   -1.6761 H         1 <0>         0.4530
@<TRIPOS>BOND
     1    1    6 ar
     2    1    2 ar
     3    1   20 1
     4    2    3 ar
     5    2   21 1
     6    3    4 ar
     7    3   22 1
     8    4    5 ar
     9    4    7 1
    10    5    6 ar
    11    5   23 1
    12    6   24 1
    13    7    8 1
    14    7   25 1
    15    7   26 1
    16    8    9 1
    17    9   14 ar
    18    9   10 ar
    19   10   11 ar
    20   10   27 1
    21   11   12 ar
    22   11   28 1
    23   12   19 1
    24   12   13 ar
    25   13   14 ar
    26   13   15 1
    27   14   29 1
    28   15   16 2
    29   15   17 1
    30   17   18 2
    31   17   19 am
    32   19   30 1
@<TRIPOS>MOLECULE
ZINC22210961
   27    29     0     0     0
SMALL
USER_CHARGES
5-phenoxyindoline-2,3-dione
@<TRIPOS>ATOM
      1 C1          1.1780    1.7895   -0.0698 C.ar      1 <0>        -0.1180
      2 C2          0.3768    1.8347   -1.1959 C.ar      1 <0>        -0.1031
      3 C3         -0.8265    2.5121   -1.1622 C.ar      1 <0>        -0.1406
      4 C4         -1.2359    3.1391    0.0061 C.ar      1 <0>         0.0802
      5 C5         -0.4300    3.0922    1.1348 C.ar      1 <0>        -0.1196
      6 C6          0.7747    2.4175    1.0942 C.ar      1 <0>        -0.1023
      7 O1         -2.4213    3.8021    0.0433 O.3       1 <0>        -0.2511
      8 C7         -3.5643    3.0722   -0.0543 C.ar      1 <0>         0.0883
      9 C8         -3.5041    1.6843   -0.0652 C.ar      1 <0>        -0.1192
     10 C9         -4.6582    0.9301   -0.1587 C.ar      1 <0>        -0.1104
     11 C10        -5.8959    1.5527   -0.2535 C.ar      1 <0>         0.1588
     12 C11        -5.9568    2.9553   -0.2484 C.ar      1 <0>        -0.2059
     13 C12        -4.7891    3.7117   -0.1487 C.ar      1 <0>        -0.0305
     14 C13        -7.3825    3.3162   -0.3602 C.2       1 <0>         0.3917
     15 O2         -7.8637    4.4297   -0.3914 O.2       1 <0>        -0.3624
     16 C14        -8.1068    2.0045   -0.4276 C.2       1 <0>         0.5028
     17 O3         -9.3064    1.8519   -0.5246 O.2       1 <0>        -0.4494
     18 N1         -7.1846    1.0289   -0.3606 N.am      1 <0>        -0.6614
     19 H1          2.1205    1.2631   -0.0996 H         1 <0>         0.1299
     20 H2          0.6943    1.3436   -2.1039 H         1 <0>         0.1316
     21 H3         -1.4500    2.5506   -2.0432 H         1 <0>         0.1315
     22 H4         -0.7442    3.5831    2.0440 H         1 <0>         0.1344
     23 H5          1.4023    2.3807    1.9724 H         1 <0>         0.1334
     24 H6         -2.5463    1.1900    0.0038 H         1 <0>         0.1450
     25 H7         -4.5972   -0.1481   -0.1615 H         1 <0>         0.1428
     26 H8         -4.8398    4.7905   -0.1454 H         1 <0>         0.1496
     27 H9         -7.3356   -0.0605   -0.3805 H         1 <0>         0.4538
@<TRIPOS>BOND
     1    1    6 ar
     2    1    2 ar
     3    1   19 1
     4    2    3 ar
     5    2   20 1
     6    3    4 ar
     7    3   21 1
     8    4    5 ar
     9    4    7 1
    10    5    6 ar
    11    5   22 1
    12    6   23 1
    13    7    8 1
    14    8   13 ar
    15    8    9 ar
    16    9   10 ar
    17    9   24 1
    18   10   11 ar
    19   10   25 1
    20   11   18 1
    21   11   12 ar
    22   12   13 ar
    23   12   14 1
    24   13   26 1
    25   14   15 2
    26   14   16 1
    27   16   17 2
    28   16   18 am
    29   18   27 1
@<TRIPOS>MOLECULE
ZINC16948211
   26    28     0     0     0
SMALL
USER_CHARGES
5-phenylindoline-2,3-dione
@<TRIPOS>ATOM
      1 C1          1.0826    6.3526    0.0238 C.ar      1 <0>        -0.1162
      2 C2         -0.1015    5.6375    0.0313 C.ar      1 <0>        -0.1156
      3 C3         -0.0773    4.2576    0.0244 C.ar      1 <0>        -0.1109
      4 C4          1.1430    3.5848    0.0097 C.ar      1 <0>        -0.0458
      5 C5          2.3328    4.3103    0.0080 C.ar      1 <0>        -0.1117
      6 C6          2.2967    5.6900    0.0088 C.ar      1 <0>        -0.1145
      7 C7          1.1754    2.1015    0.0021 C.ar      1 <0>        -0.0762
      8 C8         -0.0166    1.3754    0.0096 C.ar      1 <0>        -0.0361
      9 C9          0.0021   -0.0041    0.0020 C.ar      1 <0>        -0.1430
     10 C10         1.2108   -0.6906   -0.0132 C.ar      1 <0>         0.1914
     11 C11         2.4126    0.0377   -0.0207 C.ar      1 <0>        -0.2338
     12 C12         2.3941    1.4303   -0.0135 C.ar      1 <0>         0.0027
     13 C13         3.5055   -0.9531   -0.0365 C.2       1 <0>         0.3901
     14 O1          4.6997   -0.7380   -0.0467 O.2       1 <0>        -0.3651
     15 C14         2.8154   -2.2848   -0.0370 C.2       1 <0>         0.4948
     16 O2          3.3543   -3.3715   -0.0480 O.2       1 <0>        -0.4439
     17 N1          1.4913   -2.0547   -0.0232 N.am      1 <0>        -0.6502
     18 H1          1.0590    7.4324    0.0293 H         1 <0>         0.1243
     19 H2         -1.0466    6.1600    0.0430 H         1 <0>         0.1261
     20 H3         -1.0023    3.7003    0.0299 H         1 <0>         0.1264
     21 H4          3.2813    3.7939    0.0012 H         1 <0>         0.1263
     22 H5          3.2181    6.2533    0.0027 H         1 <0>         0.1263
     23 H6         -0.9618    1.8979    0.0169 H         1 <0>         0.1437
     24 H7         -0.9276   -0.5537    0.0076 H         1 <0>         0.1415
     25 H8          3.3203    1.9858   -0.0196 H         1 <0>         0.1426
     26 H9          0.8160   -2.7510   -0.0200 H         1 <0>         0.4269
@<TRIPOS>BOND
     1    1    6 ar
     2    1    2 ar
     3    1   18 1
     4    2    3 ar
     5    2   19 1
     6    3    4 ar
     7    3   20 1
     8    4    5 ar
     9    4    7 1
    10    5    6 ar
    11    5   21 1
    12    6   22 1
    13    7   12 ar
    14    7    8 ar
    15    8    9 ar
    16    8   23 1
    17    9   10 ar
    18    9   24 1
    19   10   17 1
    20   10   11 ar
    21   11   12 ar
    22   11   13 1
    23   12   25 1
    24   13   14 2
    25   13   15 1
    26   15   16 2
    27   15   17 am
    28   17   26 1
@<TRIPOS>MOLECULE
ZINC05162286
   28    29     0     0     0
SMALL
USER_CHARGES

@<TRIPOS>ATOM
      1 C1         -0.0167    1.3796    0.0096 C.ar      1 <0>        -0.1194
      2 C2          1.1681    2.0945    0.0022 C.ar      1 <0>        -0.1193
      3 C3          2.3774    1.4315   -0.0134 C.ar      1 <0>        -0.1078
      4 C4          2.4042    0.0344   -0.0212 C.ar      1 <0>        -0.0581
      5 C5          1.2038   -0.6807   -0.0131 C.ar      1 <0>        -0.1139
      6 C6          0.0021   -0.0041    0.0020 C.ar      1 <0>        -0.1188
      7 C7          3.6925   -0.6814   -0.0384 C.2       1 <0>        -0.1038
      8 C8          3.7146   -2.0236   -0.0458 C.2       1 <0>        -0.1073
      9 C9          5.0030   -2.7395   -0.0629 C.ar      1 <0>        -0.0105
     10 C10         6.2035   -2.0234   -0.0657 C.ar      1 <0>        -0.1706
     11 C11         7.4076   -2.6962   -0.0818 C.ar      1 <0>        -0.0700
     12 C12         7.4327   -4.0786   -0.0953 C.ar      1 <0>        -0.1973
     13 C13         6.2448   -4.8008   -0.0926 C.ar      1 <0>         0.2158
     14 C14         5.0289   -4.1352   -0.0707 C.ar      1 <0>        -0.1872
     15 N1          6.2765   -6.1973   -0.1067 N.pl3     1 <0>        -0.8799
     16 H1         -0.9606    1.9041    0.0260 H         1 <0>         0.1224
     17 H2          1.1458    3.1742    0.0082 H         1 <0>         0.1241
     18 H3          3.3013    1.9907   -0.0200 H         1 <0>         0.1247
     19 H4          1.2169   -1.7606   -0.0194 H         1 <0>         0.1245
     20 H5         -0.9266   -0.5554    0.0079 H         1 <0>         0.1235
     21 H6          4.6188   -0.1261   -0.0449 H         1 <0>         0.1252
     22 H7          2.7883   -2.5789   -0.0392 H         1 <0>         0.1217
     23 H8          6.1883   -0.9435   -0.0556 H         1 <0>         0.1215
     24 H9          8.3341   -2.1412   -0.0843 H         1 <0>         0.1230
     25 H10         8.3788   -4.5994   -0.1082 H         1 <0>         0.1194
     26 H11         4.1050   -4.6945   -0.0638 H         1 <0>         0.1211
     27 H12         7.1273   -6.6631   -0.1184 H         1 <0>         0.3986
     28 H13         5.4477   -6.7012   -0.1049 H         1 <0>         0.3982
@<TRIPOS>BOND
     1    1    6 ar
     2    1    2 ar
     3    1   16 1
     4    2    3 ar
     5    2   17 1
     6    3    4 ar
     7    3   18 1
     8    4    5 ar
     9    4    7 1
    10    5    6 ar
    11    5   19 1
    12    6   20 1
    13    7    8 2
    14    7   21 1
    15    8    9 1
    16    8   22 1
    17    9   14 ar
    18    9   10 ar
    19   10   11 ar
    20   10   23 1
    21   11   12 ar
    22   11   24 1
    23   12   13 ar
    24   12   25 1
    25   13   14 ar
    26   13   15 1
    27   14   26 1
    28   15   27 1
    29   15   28 1
@<TRIPOS>MOLECULE
ZINC13140780
   37    39     0     0     0
SMALL
USER_CHARGES
N-[4-[(E)-(4-oxochroman-3-ylidene)methyl]phenyl]acetamide
@<TRIPOS>ATOM
      1 C1         -4.3467    0.0809   -1.5014 C.3       1 <0>        -0.1706
      2 C2         -3.1158    0.9410   -1.3740 C.2       1 <0>         0.5109
      3 O1         -2.7289    1.5902   -2.3225 O.2       1 <0>        -0.5225
      4 N1         -2.4449    0.9888   -0.2061 N.am      1 <0>        -0.6751
      5 C3         -1.2531    1.7070   -0.1154 C.ar      1 <0>         0.1584
      6 C4         -0.2215    1.2401    0.6941 C.ar      1 <0>        -0.1448
      7 C5          0.9584    1.9425    0.7823 C.ar      1 <0>        -0.0701
      8 C6          1.1183    3.1320    0.0604 C.ar      1 <0>        -0.0983
      9 C7          0.0754    3.6008   -0.7482 C.ar      1 <0>        -0.0869
     10 C8         -1.1009    2.8917   -0.8302 C.ar      1 <0>        -0.1219
     11 C9          2.3761    3.8851    0.1509 C.2       1 <0>         0.0053
     12 C10         2.3647    5.2339    0.0572 C.2       1 <0>        -0.2511
     13 C11         1.0785    6.0423    0.0274 C.3       1 <0>         0.1042
     14 O2          1.1680    7.0665    1.0178 O.3       1 <0>        -0.3064
     15 C12         2.2857    7.8246    1.1007 C.ar      1 <0>         0.1799
     16 C13         2.2083    9.0879    1.6772 C.ar      1 <0>        -0.1631
     17 C14         3.3379    9.8728    1.7839 C.ar      1 <0>        -0.0516
     18 C15         4.5621    9.4172    1.3216 C.ar      1 <0>        -0.1644
     19 C16         4.6600    8.1692    0.7423 C.ar      1 <0>        -0.0284
     20 C17         3.5232    7.3726    0.6248 C.ar      1 <0>        -0.2422
     21 C18         3.6046    6.0396   -0.0181 C.2       1 <0>         0.4410
     22 O3          4.6150    5.6399   -0.5682 O.2       1 <0>        -0.4396
     23 H1         -4.5374   -0.4230   -0.5539 H         1 <0>         0.0798
     24 H2         -5.2016    0.7060   -1.7590 H         1 <0>         0.1010
     25 H3         -4.1912   -0.6623   -2.2834 H         1 <0>         0.1013
     26 H4         -2.7911    0.5235    0.5715 H         1 <0>         0.4143
     27 H5         -0.3458    0.3228    1.2503 H         1 <0>         0.1324
     28 H6          1.7600    1.5769    1.4069 H         1 <0>         0.1345
     29 H7          0.1941    4.5178   -1.3064 H         1 <0>         0.1337
     30 H8         -1.9057    3.2525   -1.4535 H         1 <0>         0.1446
     31 H9          3.3101    3.3615    0.2922 H         1 <0>         0.1389
     32 H10         0.9509    6.4933   -0.9567 H         1 <0>         0.0807
     33 H11         0.2312    5.3925    0.2467 H         1 <0>         0.1316
     34 H12         1.2608    9.4558    2.0421 H         1 <0>         0.1388
     35 H13         3.2671   10.8528    2.2322 H         1 <0>         0.1357
     36 H14         5.4399   10.0393    1.4152 H         1 <0>         0.1332
     37 H15         5.6131    7.8115    0.3817 H         1 <0>         0.1369
@<TRIPOS>BOND
     1    1    2 1
     2    1   23 1
     3    1   24 1
     4    1   25 1
     5    2    3 2
     6    2    4 am
     7    4    5 1
     8    4   26 1
     9    5   10 ar
    10    5    6 ar
    11    6    7 ar
    12    6   27 1
    13    7    8 ar
    14    7   28 1
    15    8    9 ar
    16    8   11 1
    17    9   10 ar
    18    9   29 1
    19   10   30 1
    20   11   12 2
    21   11   31 1
    22   12   21 1
    23   12   13 1
    24   13   14 1
    25   13   32 1
    26   13   33 1
    27   14   15 1
    28   15   20 ar
    29   15   16 ar
    30   16   17 ar
    31   16   34 1
    32   17   18 ar
    33   17   35 1
    34   18   19 ar
    35   18   36 1
    36   19   20 ar
    37   19   37 1
    38   20   21 1
    39   21   22 2
@<TRIPOS>MOLECULE
ZINC13135445
   32    34     0     0     0
SMALL
USER_CHARGES
(3E)-3-[(3,4-dihydroxyphenyl)methylene]chroman-4-one
@<TRIPOS>ATOM
      1 C1          0.7416    2.2350    0.5105 C.ar      1 <0>        -0.1637
      2 C2          1.9982    1.6990    0.2790 C.ar      1 <0>        -0.0508
      3 C3          2.1556    0.3484    0.0455 C.ar      1 <0>        -0.1622
      4 C4          1.0494   -0.4944    0.0389 C.ar      1 <0>         0.1793
      5 C5         -0.2180    0.0505    0.2820 C.ar      1 <0>        -0.2427
      6 C6         -0.3680    1.4157    0.5153 C.ar      1 <0>        -0.0284
      7 C7         -1.4000   -0.8484    0.2985 C.2       1 <0>         0.4413
      8 O1         -2.5086   -0.4696    0.6311 O.2       1 <0>        -0.4370
      9 C8         -1.1250   -2.2413   -0.1217 C.2       1 <0>        -0.2427
     10 C9         -2.0317   -2.9963   -0.7819 C.2       1 <0>        -0.0016
     11 C10        -1.7677   -4.4219   -1.0185 C.ar      1 <0>        -0.0729
     12 C11        -1.0509   -5.1691   -0.0761 C.ar      1 <0>        -0.0994
     13 C12        -0.8053   -6.5056   -0.3004 C.ar      1 <0>        -0.1291
     14 C13        -1.2668   -7.1153   -1.4598 C.ar      1 <0>         0.0973
     15 C14        -1.9815   -6.3779   -2.4035 C.ar      1 <0>         0.0829
     16 C15        -2.2371   -5.0388   -2.1846 C.ar      1 <0>        -0.1030
     17 O2         -2.4310   -6.9791   -3.5374 O.3       1 <0>        -0.4852
     18 O3         -1.0217   -8.4336   -1.6750 O.3       1 <0>        -0.4858
     19 C16         0.2562   -2.7558    0.2479 C.3       1 <0>         0.1035
     20 O4          1.2248   -1.8127   -0.2107 O.3       1 <0>        -0.3051
     21 H1          0.6310    3.2946    0.6877 H         1 <0>         0.1337
     22 H2          2.8635    2.3453    0.2813 H         1 <0>         0.1363
     23 H3          3.1412   -0.0557   -0.1325 H         1 <0>         0.1395
     24 H4         -1.3487    1.8311    0.6945 H         1 <0>         0.1372
     25 H5         -2.9501   -2.5513   -1.1353 H         1 <0>         0.1417
     26 H6         -0.6905   -4.6976    0.8262 H         1 <0>         0.1380
     27 H7         -0.2526   -7.0811    0.4274 H         1 <0>         0.1416
     28 H8         -2.7943   -4.4679   -2.9125 H         1 <0>         0.1411
     29 H9         -3.3158   -7.3608   -3.4561 H         1 <0>         0.3909
     30 H10        -1.7056   -9.0226   -1.3280 H         1 <0>         0.3922
     31 H11         0.3309   -2.8621    1.3301 H         1 <0>         0.0824
     32 H12         0.4282   -3.7209   -0.2286 H         1 <0>         0.1307
@<TRIPOS>BOND
     1    1    6 ar
     2    1    2 ar
     3    1   21 1
     4    2    3 ar
     5    2   22 1
     6    3    4 ar
     7    3   23 1
     8    4   20 1
     9    4    5 ar
    10    5    6 ar
    11    5    7 1
    12    6   24 1
    13    7    8 2
    14    7    9 1
    15    9   10 2
    16    9   19 1
    17   10   11 1
    18   10   25 1
    19   11   16 ar
    20   11   12 ar
    21   12   13 ar
    22   12   26 1
    23   13   14 ar
    24   13   27 1
    25   14   15 ar
    26   14   18 1
    27   15   16 ar
    28   15   17 1
    29   16   28 1
    30   17   29 1
    31   18   30 1
    32   19   20 1
    33   19   31 1
    34   19   32 1
@<TRIPOS>MOLECULE
ZINC00360347
   27    29     0     0     0
SMALL
USER_CHARGES
5-phenoxyisoindoline-1,3-dione
@<TRIPOS>ATOM
      1 C1         -6.4135    0.7227    3.3641 C.ar      1 <0>        -0.1457
      2 C2         -7.2144    0.9874    2.2684 C.ar      1 <0>        -0.0816
      3 C3         -6.6842    1.6193    1.1604 C.ar      1 <0>        -0.1382
      4 C4         -5.3466    1.9884    1.1475 C.ar      1 <0>         0.1120
      5 C5         -4.5439    1.7169    2.2463 C.ar      1 <0>        -0.1943
      6 C6         -5.0804    1.0895    3.3539 C.ar      1 <0>        -0.0806
      7 O1         -4.8225    2.6097    0.0586 O.3       1 <0>        -0.2508
      8 C7         -3.4850    2.8384    0.0379 C.ar      1 <0>         0.1178
      9 C8         -3.0057    4.1402    0.0976 C.ar      1 <0>        -0.0986
     10 C9         -1.6450    4.3869    0.0769 C.ar      1 <0>        -0.0220
     11 C10        -0.7528    3.3271   -0.0037 C.ar      1 <0>        -0.1466
     12 C11        -1.2369    2.0035   -0.0696 C.ar      1 <0>        -0.1230
     13 C12        -2.5994    1.7658   -0.0427 C.ar      1 <0>        -0.0674
     14 C13        -0.0397    1.1388   -0.1416 C.2       1 <0>         0.5792
     15 O2         -0.0435   -0.0738   -0.2086 O.2       1 <0>        -0.4543
     16 N1          1.0543    1.9215   -0.1263 N.am      1 <0>        -0.6781
     17 C14         0.7185    3.2215   -0.0466 C.2       1 <0>         0.5794
     18 O3          1.4969    4.1537   -0.0151 O.2       1 <0>        -0.4563
     19 H1         -6.8300    0.2283    4.2293 H         1 <0>         0.1281
     20 H2         -8.2553    0.6996    2.2788 H         1 <0>         0.1344
     21 H3         -7.3100    1.8255    0.3047 H         1 <0>         0.1355
     22 H4         -3.5015    1.9991    2.2370 H         1 <0>         0.1273
     23 H5         -4.4570    0.8816    4.2110 H         1 <0>         0.1287
     24 H6         -3.6998    4.9652    0.1603 H         1 <0>         0.1554
     25 H7         -1.2778    5.4015    0.1236 H         1 <0>         0.1551
     26 H8         -2.9749    0.7542   -0.0887 H         1 <0>         0.1512
     27 H9          1.9656    1.5916   -0.1669 H         1 <0>         0.4334
@<TRIPOS>BOND
     1    1    6 ar
     2    1    2 ar
     3    1   19 1
     4    2    3 ar
     5    2   20 1
     6    3    4 ar
     7    3   21 1
     8    4    5 ar
     9    4    7 1
    10    5    6 ar
    11    5   22 1
    12    6   23 1
    13    7    8 1
    14    8   13 ar
    15    8    9 ar
    16    9   10 ar
    17    9   24 1
    18   10   11 ar
    19   10   25 1
    20   11   17 1
    21   11   12 ar
    22   12   13 ar
    23   12   14 1
    24   13   26 1
    25   14   15 2
    26   14   16 am
    27   16   17 am
    28   16   27 1
    29   17   18 2
@<TRIPOS>MOLECULE
ZINC04579107
   24    25     0     0     0
SMALL
USER_CHARGES
(5E)-5-benzylidene-3-methyl-2-thioxo-thiazolidin-4-one
@<TRIPOS>ATOM
      1 C1          2.2327    1.1671    1.2489 C.3       1 <0>         0.0505
      2 N1          1.0050    1.8744    0.8767 N.am      1 <0>        -0.5241
      3 C2         -0.1029    1.1819    0.6725 C.2       1 <0>         0.5368
      4 O1         -0.1300   -0.0294    0.7849 O.2       1 <0>        -0.4451
      5 C3         -1.3056    1.9545    0.2946 C.2       1 <0>        -0.2517
      6 C4         -2.5613    1.5211    0.0219 C.2       1 <0>         0.1023
      7 C5         -2.8325    0.0810   -0.0957 C.ar      1 <0>        -0.1089
      8 C6         -1.9051   -0.7607   -0.7198 C.ar      1 <0>        -0.0435
      9 C7         -2.1644   -2.1110   -0.8209 C.ar      1 <0>        -0.1284
     10 C8         -3.3435   -2.6327   -0.3173 C.ar      1 <0>        -0.0890
     11 C9         -4.2686   -1.8060    0.2964 C.ar      1 <0>        -0.1320
     12 C10        -4.0219   -0.4544    0.4107 C.ar      1 <0>        -0.0785
     13 S1         -0.6495    3.6174    0.2978 S.3       1 <0>         0.0713
     14 C11         1.0306    3.2167    0.7506 C.2       1 <0>         0.2778
     15 S2          2.3543    4.2798    0.9707 S.2       1 <0>        -0.3292
     16 H1          2.7817    0.8933    0.3480 H         1 <0>         0.0883
     17 H2          2.8520    1.8155    1.8688 H         1 <0>         0.1079
     18 H3          1.9780    0.2661    1.8070 H         1 <0>         0.0994
     19 H4         -3.3621    2.2338   -0.1088 H         1 <0>         0.1611
     20 H5         -0.9867   -0.3544   -1.1172 H         1 <0>         0.1210
     21 H6         -1.4478   -2.7627   -1.2986 H         1 <0>         0.1270
     22 H7         -3.5425   -3.6907   -0.4034 H         1 <0>         0.1270
     23 H8         -5.1860   -2.2209    0.6870 H         1 <0>         0.1295
     24 H9         -4.7449    0.1894    0.8895 H         1 <0>         0.1305
@<TRIPOS>BOND
     1    1    2 1
     2    1   16 1
     3    1   17 1
     4    1   18 1
     5    2   14 1
     6    2    3 am
     7    3    4 2
     8    3    5 1
     9    5    6 2
    10    5   13 1
    11    6    7 1
    12    6   19 1
    13    7   12 ar
    14    7    8 ar
    15    8    9 ar
    16    8   20 1
    17    9   10 ar
    18    9   21 1
    19   10   11 ar
    20   10   22 1
    21   11   12 ar
    22   11   23 1
    23   12   24 1
    24   13   14 1
    25   14   15 2
@<TRIPOS>MOLECULE
ZINC15118974
   25    27     0     0     0
SMALL
USER_CHARGES
1,5-dihydroxyxanthen-9-one
@<TRIPOS>ATOM
      1 C1         -0.0126    1.0758    0.0080 C.ar      1 <0>        -0.1350
      2 C2          1.1725    1.7788    0.0004 C.ar      1 <0>        -0.0351
      3 C3          1.1498    3.1738    0.0077 C.ar      1 <0>        -0.2154
      4 C4          2.4064    3.9517    0.0003 C.2       1 <0>         0.4382
      5 O1          3.4947    3.4063   -0.0122 O.2       1 <0>        -0.4318
      6 C5          2.2777    5.4200    0.0094 C.ar      1 <0>        -0.2653
      7 C6          3.4125    6.2410    0.0029 C.ar      1 <0>         0.2040
      8 C7          3.2581    7.6172    0.0113 C.ar      1 <0>        -0.1832
      9 C8          1.9905    8.1733    0.0263 C.ar      1 <0>        -0.0324
     10 C9          0.8671    7.3722    0.0323 C.ar      1 <0>        -0.1579
     11 C10         0.9935    5.9876    0.0242 C.ar      1 <0>         0.1800
     12 O2         -0.1091    5.2114    0.0297 O.3       1 <0>        -0.2207
     13 C11        -0.0710    3.8629    0.0226 C.ar      1 <0>         0.1363
     14 C12        -1.2605    3.1324    0.0295 C.ar      1 <0>         0.0826
     15 C13        -1.2236    1.7504    0.0174 C.ar      1 <0>        -0.0788
     16 O3         -2.4560    3.7804    0.0440 O.3       1 <0>        -0.4808
     17 O4          4.6532    5.6923   -0.0109 O.3       1 <0>        -0.4770
     18 H1          0.0021   -0.0041    0.0020 H         1 <0>         0.1438
     19 H2          2.1152    1.2520   -0.0107 H         1 <0>         0.1463
     20 H3          4.1278    8.2575    0.0064 H         1 <0>         0.1442
     21 H4          1.8794    9.2475    0.0331 H         1 <0>         0.1474
     22 H5         -0.1145    7.8225    0.0437 H         1 <0>         0.1475
     23 H6         -2.1474    1.1908    0.0190 H         1 <0>         0.1489
     24 H7         -2.8098    3.9725   -0.8352 H         1 <0>         0.3929
     25 H8          5.0049    5.5374   -0.8983 H         1 <0>         0.4013
@<TRIPOS>BOND
     1    1   15 ar
     2    1    2 ar
     3    1   18 1
     4    2    3 ar
     5    2   19 1
     6    3   13 ar
     7    3    4 1
     8    4    5 2
     9    4    6 1
    10    6   11 ar
    11    6    7 ar
    12    7    8 ar
    13    7   17 1
    14    8    9 ar
    15    8   20 1
    16    9   10 ar
    17    9   21 1
    18   10   11 ar
    19   10   22 1
    20   11   12 1
    21   12   13 1
    22   13   14 ar
    23   14   15 ar
    24   14   16 1
    25   15   23 1
    26   16   24 1
    27   17   25 1
@<TRIPOS>MOLECULE
ZINC05732370
   30    32     0     0     0
SMALL
USER_CHARGES
1,5,8-trihydroxy-3-methoxy-xanthen-9-one
@<TRIPOS>ATOM
      1 C1         -0.0127    1.0858    0.0080 C.3       1 <0>         0.0173
      2 O1         -0.6816    1.5467    1.1837 O.3       1 <0>        -0.2994
      3 C2         -0.7872    2.8900    1.3460 C.ar      1 <0>         0.2477
      4 C3         -0.2540    3.7431    0.3861 C.ar      1 <0>        -0.3004
      5 C4         -0.3577    5.1127    0.5434 C.ar      1 <0>         0.3074
      6 C5         -1.0026    5.6323    1.6747 C.ar      1 <0>        -0.3697
      7 C6         -1.5412    4.7691    2.6442 C.ar      1 <0>         0.2501
      8 C7         -1.4306    3.3974    2.4640 C.ar      1 <0>        -0.2313
      9 O2         -2.1635    5.2548    3.7378 O.3       1 <0>        -0.2092
     10 C8         -2.3163    6.5731    3.9832 C.ar      1 <0>         0.1658
     11 C9         -2.9734    6.9936    5.1388 C.ar      1 <0>         0.0900
     12 C10        -3.1327    8.3433    5.3958 C.ar      1 <0>        -0.0969
     13 C11        -2.6450    9.2939    4.5148 C.ar      1 <0>        -0.1647
     14 C12        -1.9889    8.9004    3.3613 C.ar      1 <0>         0.2304
     15 C13        -1.8226    7.5365    3.0913 C.ar      1 <0>        -0.2954
     16 C14        -1.1281    7.0866    1.8698 C.2       1 <0>         0.4742
     17 O3         -0.6796    7.8799    1.0618 O.2       1 <0>        -0.4924
     18 O4         -1.5098    9.8311    2.4967 O.3       1 <0>        -0.5050
     19 O5         -3.4588    6.0738    6.0162 O.3       1 <0>        -0.4982
     20 O6          0.1608    5.9486   -0.3910 O.3       1 <0>        -0.5004
     21 H1          0.0021   -0.0141    0.0020 H         1 <0>         0.1105
     22 H2          1.0193    1.4665    0.0003 H         1 <0>         0.0653
     23 H3         -0.5447    1.4503   -0.8832 H         1 <0>         0.0653
     24 H4          0.2411    3.3356   -0.4829 H         1 <0>         0.1501
     25 H5         -1.8437    2.7230    3.1995 H         1 <0>         0.1548
     26 H6         -3.6433    8.6593    6.2934 H         1 <0>         0.1531
     27 H7         -2.7768   10.3444    4.7281 H         1 <0>         0.1474
     28 H8         -0.9889    9.5146    1.5810 H         1 <0>         0.4459
     29 H9         -3.9774    6.4040    6.9283 H         1 <0>         0.4380
     30 H10         0.0762    7.0378   -0.2622 H         1 <0>         0.4495
@<TRIPOS>BOND
     1    1    2 1
     2    1   21 1
     3    1   22 1
     4    1   23 1
     5    2    3 1
     6    3    8 ar
     7    3    4 ar
     8    4    5 ar
     9    4   24 1
    10    5    6 ar
    11    5   20 1
    12    6   16 1
    13    6    7 ar
    14    7    8 ar
    15    7    9 1
    16    8   25 1
    17    9   10 1
    18   10   15 ar
    19   10   11 ar
    20   11   12 ar
    21   11   19 1
    22   12   13 ar
    23   12   26 1
    24   13   14 ar
    25   13   27 1
    26   14   15 ar
    27   14   18 1
    28   15   16 1
    29   16   17 2
    30   18   28 1
    31   19   29 1
    32   20   30 1
@<TRIPOS>MOLECULE
ZINC03979037
   24    26     0     0     0
SMALL
USER_CHARGES

@<TRIPOS>ATOM
      1 C1         -0.0166    1.3738    0.0096 C.ar      1 <0>        -0.1506
      2 C2          1.1737    2.0860    0.0021 C.ar      1 <0>        -0.0525
      3 C3          2.3869    1.4325   -0.0159 C.ar      1 <0>        -0.1445
      4 C4          2.4308    0.0413   -0.0254 C.ar      1 <0>         0.1577
      5 C5          1.2236   -0.6753   -0.0126 C.ar      1 <0>        -0.2275
      6 C6          0.0021   -0.0041    0.0020 C.ar      1 <0>        -0.0281
      7 C7          1.2823   -2.1526   -0.0057 C.2       1 <0>         0.4393
      8 O1          0.3009   -2.8397   -0.2206 O.2       1 <0>        -0.4416
      9 C8          2.6077   -2.7432    0.2791 C.ar      1 <0>        -0.2107
     10 C9          2.7413   -4.0988    0.5743 C.ar      1 <0>        -0.0551
     11 C10         3.9946   -4.6178    0.8412 C.ar      1 <0>         0.0768
     12 C11         5.1112   -3.7880    0.8143 C.ar      1 <0>        -0.0785
     13 C12         4.9856   -2.4478    0.5213 C.ar      1 <0>        -0.1265
     14 C13         3.7334   -1.9053    0.2472 C.ar      1 <0>         0.1505
     15 O2          3.6183   -0.5952   -0.0510 O.3       1 <0>        -0.2262
     16 O3          4.1360   -5.9389    1.1303 O.3       1 <0>        -0.4911
     17 H1         -0.9596    1.9000    0.0259 H         1 <0>         0.1385
     18 H2          1.1494    3.1657    0.0100 H         1 <0>         0.1420
     19 H3          3.3052    2.0008   -0.0229 H         1 <0>         0.1447
     20 H4         -0.9237   -0.5602    0.0074 H         1 <0>         0.1424
     21 H5          1.8718   -4.7392    0.5948 H         1 <0>         0.1484
     22 H6          6.0873   -4.1992    1.0258 H         1 <0>         0.1482
     23 H7          5.8614   -1.8160    0.5042 H         1 <0>         0.1500
     24 H8          4.2868   -6.4972    0.3553 H         1 <0>         0.3945
@<TRIPOS>BOND
     1    1    6 ar
     2    1    2 ar
     3    1   17 1
     4    2    3 ar
     5    2   18 1
     6    3    4 ar
     7    3   19 1
     8    4   15 1
     9    4    5 ar
    10    5    6 ar
    11    5    7 1
    12    6   20 1
    13    7    8 2
    14    7    9 1
    15    9   14 ar
    16    9   10 ar
    17   10   11 ar
    18   10   21 1
    19   11   12 ar
    20   11   16 1
    21   12   13 ar
    22   12   22 1
    23   13   14 ar
    24   13   23 1
    25   14   15 1
    26   16   24 1
@<TRIPOS>MOLECULE
ZINC04783187
   27    29     0     0     0
SMALL
USER_CHARGES

@<TRIPOS>ATOM
      1 C1         -0.0173    1.4248    0.0099 C.3       1 <0>         0.0227
      2 O1          0.0021   -0.0041    0.0020 O.3       1 <0>        -0.3063
      3 C2         -1.1986   -0.6366    0.0101 C.ar      1 <0>         0.1963
      4 C3         -2.3731    0.1130    0.0196 C.ar      1 <0>        -0.2376
      5 C4         -3.5873   -0.5125    0.0234 C.ar      1 <0>         0.0143
      6 C5         -3.6483   -1.9065    0.0189 C.ar      1 <0>        -0.2663
      7 C6         -2.4706   -2.6738    0.0171 C.ar      1 <0>         0.2011
      8 C7         -1.2445   -2.0206    0.0031 C.ar      1 <0>        -0.1859
      9 O2         -2.5165   -4.0207    0.0308 O.3       1 <0>        -0.2253
     10 C8         -3.6421   -4.6988   -0.2700 C.ar      1 <0>         0.1557
     11 C9         -3.5773   -6.0566   -0.5684 C.ar      1 <0>        -0.1429
     12 C10        -4.7272   -6.7538   -0.8707 C.ar      1 <0>        -0.0546
     13 C11        -5.9601   -6.1186   -0.8821 C.ar      1 <0>        -0.1497
     14 C12        -6.0480   -4.7741   -0.5923 C.ar      1 <0>        -0.0298
     15 C13        -4.8910   -4.0588   -0.2886 C.ar      1 <0>        -0.2245
     16 C14        -4.9456   -2.6116    0.0118 C.2       1 <0>         0.4424
     17 O3         -5.9947   -2.0376    0.2394 O.2       1 <0>        -0.4492
     18 H1          1.0053    1.8021    0.0021 H         1 <0>         0.1074
     19 H2         -0.5445    1.7859   -0.8732 H         1 <0>         0.0622
     20 H3         -0.5275    1.7763    0.9067 H         1 <0>         0.0624
     21 H4         -2.3232    1.1918    0.0243 H         1 <0>         0.1431
     22 H5         -4.4969    0.0697    0.0303 H         1 <0>         0.1457
     23 H6         -0.3279   -2.5917   -0.0088 H         1 <0>         0.1526
     24 H7         -2.6244   -6.5647   -0.5634 H         1 <0>         0.1446
     25 H8         -4.6674   -7.8071   -1.1018 H         1 <0>         0.1417
     26 H9         -6.8527   -6.6784   -1.1188 H         1 <0>         0.1380
     27 H10        -7.0072   -4.2778   -0.6007 H         1 <0>         0.1421
@<TRIPOS>BOND
     1    1    2 1
     2    1   18 1
     3    1   19 1
     4    1   20 1
     5    2    3 1
     6    3    8 ar
     7    3    4 ar
     8    4    5 ar
     9    4   21 1
    10    5    6 ar
    11    5   22 1
    12    6   16 1
    13    6    7 ar
    14    7    8 ar
    15    7    9 1
    16    8   23 1
    17    9   10 1
    18   10   15 ar
    19   10   11 ar
    20   11   12 ar
    21   11   24 1
    22   12   13 ar
    23   12   25 1
    24   13   14 ar
    25   13   26 1
    26   14   15 ar
    27   14   27 1
    28   15   16 1
    29   16   17 2
@<TRIPOS>MOLECULE
ZINC03979039
   27    29     0     0     0
SMALL
USER_CHARGES

@<TRIPOS>ATOM
      1 C1         -0.0173    1.4248    0.0099 C.3       1 <0>         0.0237
      2 O1          0.0021   -0.0041    0.0020 O.3       1 <0>        -0.3111
      3 C2          0.6061   -0.6074   -1.0562 C.ar      1 <0>         0.1003
      4 C3          1.1747    0.1637   -2.0654 C.ar      1 <0>        -0.1420
      5 C4          1.7883   -0.4318   -3.1455 C.ar      1 <0>        -0.1014
      6 C5          1.8485   -1.8191   -3.2396 C.ar      1 <0>         0.1210
      7 C6          1.2788   -2.5951   -2.2180 C.ar      1 <0>        -0.1860
      8 C7          0.6604   -1.9870   -1.1269 C.ar      1 <0>        -0.0637
      9 C8          1.3645   -4.0678   -2.3217 C.2       1 <0>         0.4398
     10 O2          0.7095   -4.8053   -1.6087 O.2       1 <0>        -0.4395
     11 C9          2.2952   -4.5881   -3.3458 C.ar      1 <0>        -0.2288
     12 C10         2.6643   -5.9321   -3.3656 C.ar      1 <0>        -0.0273
     13 C11         3.5383   -6.3831   -4.3309 C.ar      1 <0>        -0.1527
     14 C12         4.0467   -5.5033   -5.2752 C.ar      1 <0>        -0.0522
     15 C13         3.6870   -4.1730   -5.2659 C.ar      1 <0>        -0.1468
     16 C14         2.8035   -3.6950   -4.3023 C.ar      1 <0>         0.1608
     17 O3          2.4438   -2.3963   -4.3031 O.3       1 <0>        -0.2266
     18 H1          1.0053    1.8021    0.0021 H         1 <0>         0.0583
     19 H2         -0.5445    1.7859   -0.8732 H         1 <0>         0.0585
     20 H3         -0.5275    1.7763    0.9067 H         1 <0>         0.1050
     21 H4          1.1341    1.2410   -2.0013 H         1 <0>         0.1465
     22 H5          2.2238    0.1798   -3.9219 H         1 <0>         0.1483
     23 H6          0.2233   -2.5893   -0.3442 H         1 <0>         0.1508
     24 H7          2.2677   -6.6156   -2.6295 H         1 <0>         0.1421
     25 H8          3.8281   -7.4233   -4.3521 H         1 <0>         0.1379
     26 H9          4.7331   -5.8651   -6.0264 H         1 <0>         0.1412
     27 H10         4.0916   -3.5001   -6.0074 H         1 <0>         0.1439
@<TRIPOS>BOND
     1    1    2 1
     2    1   18 1
     3    1   19 1
     4    1   20 1
     5    2    3 1
     6    3    8 ar
     7    3    4 ar
     8    4    5 ar
     9    4   21 1
    10    5    6 ar
    11    5   22 1
    12    6   17 1
    13    6    7 ar
    14    7    8 ar
    15    7    9 1
    16    8   23 1
    17    9   10 2
    18    9   11 1
    19   11   16 ar
    20   11   12 ar
    21   12   13 ar
    22   12   24 1
    23   13   14 ar
    24   13   25 1
    25   14   15 ar
    26   14   26 1
    27   15   16 ar
    28   15   27 1
    29   16   17 1
@<TRIPOS>MOLECULE
ZINC03860823
   23    25     0     0     0
SMALL
USER_CHARGES

@<TRIPOS>ATOM
      1 C1         -0.0166    1.3748    0.0096 C.ar      1 <0>        -0.1464
      2 C2          1.1726    2.0887    0.0021 C.ar      1 <0>        -0.0583
      3 C3          2.3885    1.4379   -0.0172 C.ar      1 <0>        -0.1394
      4 C4          2.4313    0.0495   -0.0281 C.ar      1 <0>         0.1478
      5 C5          1.2233   -0.6703   -0.0128 C.ar      1 <0>        -0.2212
      6 C6          0.0021   -0.0041    0.0020 C.ar      1 <0>        -0.0326
      7 C7          1.3054   -2.1497   -0.0022 C.2       1 <0>         0.4409
      8 O1          0.3955   -2.8627   -0.3829 O.2       1 <0>        -0.4375
      9 C8          2.5870   -2.6893    0.5095 C.ar      1 <0>        -0.2216
     10 C9          2.6869   -3.9792    1.0209 C.ar      1 <0>        -0.0324
     11 C10         3.9031   -4.4292    1.4899 C.ar      1 <0>        -0.1466
     12 C11         5.0151   -3.6010    1.4516 C.ar      1 <0>        -0.0581
     13 C12         4.9278   -2.3216    0.9434 C.ar      1 <0>        -0.1396
     14 C13         3.7133   -1.8489    0.4621 C.ar      1 <0>         0.1482
     15 O2          3.6127   -0.6065   -0.0607 O.3       1 <0>        -0.2322
     16 H1         -0.9600    1.9003    0.0260 H         1 <0>         0.1381
     17 H2          1.1461    3.1683    0.0110 H         1 <0>         0.1412
     18 H3          3.3063    2.0071   -0.0241 H         1 <0>         0.1441
     19 H4         -0.9228   -0.5616    0.0078 H         1 <0>         0.1411
     20 H5          1.8197   -4.6223    1.0506 H         1 <0>         0.1411
     21 H6          3.9901   -5.4294    1.8878 H         1 <0>         0.1381
     22 H7          5.9620   -3.9628    1.8243 H         1 <0>         0.1411
     23 H8          5.8022   -1.6881    0.9201 H         1 <0>         0.1442
@<TRIPOS>BOND
     1    1    6 ar
     2    1    2 ar
     3    1   16 1
     4    2    3 ar
     5    2   17 1
     6    3    4 ar
     7    3   18 1
     8    4   15 1
     9    4    5 ar
    10    5    6 ar
    11    5    7 1
    12    6   19 1
    13    7    8 2
    14    7    9 1
    15    9   14 ar
    16    9   10 ar
    17   10   11 ar
    18   10   20 1
    19   11   12 ar
    20   11   21 1
    21   12   13 ar
    22   12   22 1
    23   13   14 ar
    24   13   23 1
    25   14   15 1
@<TRIPOS>MOLECULE
ZINC05998778
   30    32     0     0     0
SMALL
USER_CHARGES
1,2,8-trihydroxy-6-methoxy-xanthen-9-one
@<TRIPOS>ATOM
      1 C1         -3.7658   -6.0893    0.0008 C.3       1 <0>         0.0173
      2 O1         -3.7528   -4.6604    0.0096 O.3       1 <0>        -0.2993
      3 C2         -2.5380   -4.0553    0.0025 C.ar      1 <0>         0.2477
      4 C3         -1.3835   -4.8301   -0.0127 C.ar      1 <0>        -0.3004
      5 C4         -0.1422   -4.2214   -0.0204 C.ar      1 <0>         0.3072
      6 C5         -0.0578   -2.8220   -0.0129 C.ar      1 <0>        -0.3690
      7 C6         -1.2252   -2.0398    0.0024 C.ar      1 <0>         0.2515
      8 C7         -2.4611   -2.6712    0.0100 C.ar      1 <0>        -0.2322
      9 O2         -1.1589   -0.6926    0.0098 O.3       1 <0>        -0.2201
     10 C8          0.0021   -0.0041    0.0020 C.ar      1 <0>         0.1637
     11 C9         -0.0168    1.3853    0.0097 C.ar      1 <0>        -0.1463
     12 C10         1.1651    2.0985    0.0022 C.ar      1 <0>        -0.0533
     13 C11         2.3884    1.4442   -0.0138 C.ar      1 <0>         0.0876
     14 C12         2.4328    0.0559   -0.0212 C.ar      1 <0>         0.1763
     15 C13         1.2374   -0.6709   -0.0134 C.ar      1 <0>        -0.2936
     16 C14         1.2505   -2.1462   -0.0215 C.2       1 <0>         0.4728
     17 O3          2.2935   -2.7750   -0.0351 O.2       1 <0>        -0.4953
     18 O4          3.6267   -0.5906   -0.0365 O.3       1 <0>        -0.5132
     19 O5          3.5443    2.1622   -0.0221 O.3       1 <0>        -0.5016
     20 O6          0.9870   -4.9735   -0.0347 O.3       1 <0>        -0.5005
     21 H1         -4.8061   -6.4465    0.0079 H         1 <0>         0.1107
     22 H2         -3.2426   -6.4662    0.8920 H         1 <0>         0.0654
     23 H3         -3.2587   -6.4550   -0.9042 H         1 <0>         0.0654
     24 H4         -1.4565   -5.9076   -0.0180 H         1 <0>         0.1500
     25 H5         -3.3662   -2.0821    0.0215 H         1 <0>         0.1551
     26 H6         -0.9608    1.9098    0.0170 H         1 <0>         0.1537
     27 H7          1.1372    3.1781    0.0082 H         1 <0>         0.1551
     28 H8          3.6567   -1.6902   -0.0423 H         1 <0>         0.4527
     29 H9          4.5141    1.6432   -0.0348 H         1 <0>         0.4434
     30 H10         1.9728   -4.4855   -0.0408 H         1 <0>         0.4492
@<TRIPOS>BOND
     1    1    2 1
     2    1   21 1
     3    1   22 1
     4    1   23 1
     5    2    3 1
     6    3    8 ar
     7    3    4 ar
     8    4    5 ar
     9    4   24 1
    10    5    6 ar
    11    5   20 1
    12    6   16 1
    13    6    7 ar
    14    7    8 ar
    15    7    9 1
    16    8   25 1
    17    9   10 1
    18   10   15 ar
    19   10   11 ar
    20   11   12 ar
    21   11   26 1
    22   12   13 ar
    23   12   27 1
    24   13   14 ar
    25   13   19 1
    26   14   15 ar
    27   14   18 1
    28   15   16 1
    29   16   17 2
    30   18   28 1
    31   19   29 1
    32   20   30 1
@<TRIPOS>MOLECULE
ZINC05934968
   24    26     0     0     0
SMALL
USER_CHARGES

@<TRIPOS>ATOM
      1 C1         -0.0166    1.3740    0.0096 C.ar      1 <0>        -0.1497
      2 C2          1.1736    2.0860    0.0021 C.ar      1 <0>        -0.0545
      3 C3          2.3867    1.4321   -0.0164 C.ar      1 <0>        -0.1436
      4 C4          2.4301    0.0410   -0.0256 C.ar      1 <0>         0.1540
      5 C5          1.2233   -0.6752   -0.0124 C.ar      1 <0>        -0.2250
      6 C6          0.0021   -0.0041    0.0020 C.ar      1 <0>        -0.0294
      7 C7          1.2815   -2.1533   -0.0060 C.2       1 <0>         0.4399
      8 O1          0.2993   -2.8400   -0.2197 O.2       1 <0>        -0.4347
      9 C8          2.6044   -2.7437    0.2750 C.ar      1 <0>        -0.2607
     10 C9          2.7404   -4.1058    0.5657 C.ar      1 <0>         0.2014
     11 C10         3.9971   -4.6212    0.8382 C.ar      1 <0>        -0.1806
     12 C11         5.1053   -3.7918    0.8194 C.ar      1 <0>        -0.0359
     13 C12         4.9802   -2.4490    0.5275 C.ar      1 <0>        -0.1567
     14 C13         3.7312   -1.9057    0.2477 C.ar      1 <0>         0.1746
     15 O2          3.6178   -0.5961   -0.0511 O.3       1 <0>        -0.2262
     16 O3          1.6511   -4.9144    0.5810 O.3       1 <0>        -0.4801
     17 H1         -0.9596    1.9003    0.0259 H         1 <0>         0.1383
     18 H2          1.1496    3.1657    0.0104 H         1 <0>         0.1418
     19 H3          3.3052    2.0001   -0.0240 H         1 <0>         0.1444
     20 H4         -0.9237   -0.5602    0.0076 H         1 <0>         0.1422
     21 H5          4.1123   -5.6706    1.0659 H         1 <0>         0.1439
     22 H6          6.0808   -4.2012    1.0363 H         1 <0>         0.1466
     23 H7          5.8561   -1.8172    0.5168 H         1 <0>         0.1468
     24 H8          1.4508   -5.3206   -0.2734 H         1 <0>         0.4031
@<TRIPOS>BOND
     1    1    6 ar
     2    1    2 ar
     3    1   17 1
     4    2    3 ar
     5    2   18 1
     6    3    4 ar
     7    3   19 1
     8    4   15 1
     9    4    5 ar
    10    5    6 ar
    11    5    7 1
    12    6   20 1
    13    7    8 2
    14    7    9 1
    15    9   14 ar
    16    9   10 ar
    17   10   11 ar
    18   10   16 1
    19   11   12 ar
    20   11   21 1
    21   12   13 ar
    22   12   22 1
    23   13   14 ar
    24   13   23 1
    25   14   15 1
    26   16   24 1
@<TRIPOS>MOLECULE
ZINC05998783
   28    30     0     0     0
SMALL
USER_CHARGES
1-hydroxy-3-methoxy-xanthen-9-one
@<TRIPOS>ATOM
      1 C1         -1.2817    6.2457    0.0482 C.3       1 <0>         0.0177
      2 O1         -0.0095    5.5951    0.0326 O.3       1 <0>        -0.3005
      3 C2         -0.0116    4.2380    0.0249 C.ar      1 <0>         0.2434
      4 C3         -1.2210    3.5517    0.0328 C.ar      1 <0>        -0.2988
      5 C4         -1.2321    2.1694    0.0197 C.ar      1 <0>         0.3052
      6 C5         -0.0179    1.4678    0.0101 C.ar      1 <0>        -0.3700
      7 C6          1.2040    2.1627    0.0022 C.ar      1 <0>         0.2458
      8 C7          1.1920    3.5503    0.0097 C.ar      1 <0>        -0.2310
      9 O2          2.3795    1.5014   -0.0126 O.3       1 <0>        -0.2252
     10 C8          2.4770    0.1563   -0.0208 C.ar      1 <0>         0.1661
     11 C9          3.7299   -0.4487   -0.0364 C.ar      1 <0>        -0.1449
     12 C10         3.8342   -1.8230   -0.0439 C.ar      1 <0>        -0.0482
     13 C11         2.6989   -2.6194   -0.0369 C.ar      1 <0>        -0.1524
     14 C12         1.4481   -2.0414   -0.0223 C.ar      1 <0>        -0.0255
     15 C13         1.3305   -0.6518   -0.0142 C.ar      1 <0>        -0.2278
     16 C14         0.0021   -0.0041    0.0020 C.2       1 <0>         0.4577
     17 O3         -1.0261   -0.6564    0.0087 O.2       1 <0>        -0.4742
     18 O4         -2.4098    1.4959    0.0217 O.3       1 <0>        -0.5027
     19 H1         -1.1359    7.3360    0.0530 H         1 <0>         0.1101
     20 H2         -1.8358    5.9458    0.9499 H         1 <0>         0.0650
     21 H3         -1.8526    5.9561   -0.8463 H         1 <0>         0.0649
     22 H4         -2.1520    4.0989    0.0442 H         1 <0>         0.1491
     23 H5          2.1237    4.0965    0.0041 H         1 <0>         0.1534
     24 H6          4.6222    0.1596   -0.0428 H         1 <0>         0.1466
     25 H7          4.8105   -2.2847   -0.0557 H         1 <0>         0.1435
     26 H8          2.7952   -3.6951   -0.0433 H         1 <0>         0.1391
     27 H9          0.5637   -2.6611   -0.0175 H         1 <0>         0.1440
     28 H10        -2.4144    0.3960    0.0112 H         1 <0>         0.4498
@<TRIPOS>BOND
     1    1    2 1
     2    1   19 1
     3    1   20 1
     4    1   21 1
     5    2    3 1
     6    3    8 ar
     7    3    4 ar
     8    4    5 ar
     9    4   22 1
    10    5    6 ar
    11    5   18 1
    12    6   16 1
    13    6    7 ar
    14    7    8 ar
    15    7    9 1
    16    8   23 1
    17    9   10 1
    18   10   15 ar
    19   10   11 ar
    20   11   12 ar
    21   11   24 1
    22   12   13 ar
    23   12   25 1
    24   13   14 ar
    25   13   26 1
    26   14   15 ar
    27   14   27 1
    28   15   16 1
    29   16   17 2
    30   18   28 1
@<TRIPOS>MOLECULE
ZINC13681144
   37    38     0     0     0
SMALL
USER_CHARGES
N-(7-acetonyloxy-8-methoxy-2-oxo-chromen-3-yl)acetamide
@<TRIPOS>ATOM
      1 C1         -1.3682    2.2201    0.1024 C.3       1 <0>        -0.1859
      2 C2         -0.0505    1.4891    0.0851 C.2       1 <0>         0.3502
      3 O1          0.9849    2.1107    0.0820 O.2       1 <0>        -0.4256
      4 C3         -0.0248   -0.0176    0.0654 C.3       1 <0>         0.0117
      5 O2          1.3303   -0.4707    0.0450 O.3       1 <0>        -0.2784
      6 C4          1.5312   -1.8146    0.0255 C.ar      1 <0>         0.1576
      7 C5          0.4385   -2.6768    0.0262 C.ar      1 <0>        -0.2105
      8 C6          0.6243   -4.0290    0.0068 C.ar      1 <0>        -0.0174
      9 C7          1.9219   -4.5569   -0.0140 C.ar      1 <0>        -0.1540
     10 C8          2.1350   -6.0057   -0.0344 C.2       1 <0>        -0.0316
     11 C9          3.4158   -6.4708   -0.0542 C.2       1 <0>         0.0080
     12 C10         4.5204   -5.5138   -0.0528 C.2       1 <0>         0.5172
     13 O3          5.6679   -5.9209   -0.0696 O.2       1 <0>        -0.4488
     14 O4          4.2870   -4.1924   -0.0338 O.3       1 <0>        -0.2444
     15 C11         3.0314   -3.6941   -0.0148 C.ar      1 <0>         0.1486
     16 C12         2.8245   -2.3177   -0.0006 C.ar      1 <0>         0.0547
     17 O5          3.8873   -1.4678   -0.0071 O.3       1 <0>        -0.3081
     18 C13         4.4137   -1.0776    1.2628 C.3       1 <0>         0.0341
     19 N1          3.6703   -7.8481   -0.0741 N.am      1 <0>        -0.6466
     20 C14         2.7448   -8.6974   -0.5626 C.2       1 <0>         0.5128
     21 O6          1.7352   -8.2641   -1.0767 O.2       1 <0>        -0.5261
     22 C15         2.9642  -10.1855   -0.4700 C.3       1 <0>        -0.1682
     23 H1         -2.1171    1.5574    0.0982 H         1 <0>         0.0761
     24 H2         -1.4313    2.8341    1.0008 H         1 <0>         0.1004
     25 H3         -1.4418    2.8572   -0.7790 H         1 <0>         0.1012
     26 H4         -0.4816   -0.3695    0.8824 H         1 <0>         0.0907
     27 H5         -0.5420   -0.3782   -0.8238 H         1 <0>         0.1036
     28 H6         -0.5632   -2.2732    0.0425 H         1 <0>         0.1475
     29 H7         -0.2286   -4.6916    0.0071 H         1 <0>         0.1501
     30 H8          1.2981   -6.6883   -0.0345 H         1 <0>         0.1744
     31 H9          5.2554   -0.4011    1.1149 H         1 <0>         0.0998
     32 H10         3.6380   -0.5722    1.8380 H         1 <0>         0.0494
     33 H11         4.7494   -1.9621    1.8043 H         1 <0>         0.0464
     34 H12         4.5126   -8.1906    0.2637 H         1 <0>         0.4214
     35 H13         3.9183  -10.3824    0.0189 H         1 <0>         0.0822
     36 H14         2.1589  -10.6361    0.1102 H         1 <0>         0.1039
     37 H15         2.9740  -10.6144   -1.4720 H         1 <0>         0.1034
@<TRIPOS>BOND
     1    1    2 1
     2    1   23 1
     3    1   24 1
     4    1   25 1
     5    2    3 2
     6    2    4 1
     7    4    5 1
     8    4   26 1
     9    4   27 1
    10    5    6 1
    11    6   16 ar
    12    6    7 ar
    13    7    8 ar
    14    7   28 1
    15    8    9 ar
    16    8   29 1
    17    9   15 ar
    18    9   10 1
    19   10   11 2
    20   10   30 1
    21   11   12 1
    22   11   19 1
    23   12   13 2
    24   12   14 1
    25   14   15 1
    26   15   16 ar
    27   16   17 1
    28   17   18 1
    29   18   31 1
    30   18   32 1
    31   18   33 1
    32   19   20 am
    33   19   34 1
    34   20   21 2
    35   20   22 1
    36   22   35 1
    37   22   36 1
    38   22   37 1
@<TRIPOS>MOLECULE
ZINC28651405
   34    34     0     0     0
SMALL
USER_CHARGES
(2S)-1-(4-propylsulfanylphenyl)propan-2-amine
@<TRIPOS>ATOM
      1 C1          2.6910   -7.4130   -1.6891 C.3       1 <0>        -0.1504
      2 C2          1.3929   -6.9465   -2.3511 C.3       1 <0>        -0.1130
      3 C3          1.2956   -5.4220   -2.2647 C.3       1 <0>        -0.1110
      4 S1         -0.2435   -4.8689   -3.0495 S.3       1 <0>        -0.0953
      5 C4         -0.2077   -3.1165   -2.8699 C.ar      1 <0>        -0.0685
      6 C5         -1.2512   -2.3440   -3.3658 C.ar      1 <0>        -0.0913
      7 C6         -1.2195   -0.9709   -3.2236 C.ar      1 <0>        -0.0825
      8 C7         -0.1511   -0.3642   -2.5887 C.ar      1 <0>        -0.1373
      9 C8          0.8919   -1.1292   -2.0990 C.ar      1 <0>        -0.1173
     10 C9          0.8643   -2.5033   -2.2325 C.ar      1 <0>        -0.1294
     11 C10        -0.1202    1.1347   -2.4355 C.3       1 <0>        -0.0984
     12 C11        -0.7955    1.5269   -1.1198 C.3       1 <0>         0.0438
     13 H1         -1.7995    1.0824   -1.0536 H         1 <0>         0.1347
     14 C12        -0.8757    3.0517   -1.0224 C.3       1 <0>        -0.1853
     15 N1         -0.0116    1.0048    0.0076 N.4       1 <0>        -0.6892
     16 H2          2.7609   -8.5090   -1.7512 H         1 <0>         0.0684
     17 H3          2.6955   -7.1045   -0.6332 H         1 <0>         0.0578
     18 H4          3.5497   -6.9608   -2.2069 H         1 <0>         0.0588
     19 H5          1.3884   -7.2550   -3.4070 H         1 <0>         0.0775
     20 H6          0.5342   -7.3987   -1.8333 H         1 <0>         0.0767
     21 H7          1.3002   -5.1136   -1.2088 H         1 <0>         0.0898
     22 H8          2.1543   -4.9698   -2.7825 H         1 <0>         0.0913
     23 H9         -2.0860   -2.8171   -3.8614 H         1 <0>         0.1368
     24 H10        -2.0302   -0.3700   -3.6083 H         1 <0>         0.1344
     25 H11         1.7267   -0.6517   -1.6077 H         1 <0>         0.1249
     26 H12         1.6769   -3.1005   -1.8460 H         1 <0>         0.1303
     27 H13         0.9238    1.4812   -2.4294 H         1 <0>         0.0970
     28 H14        -0.6561    1.6003   -3.2758 H         1 <0>         0.1180
     29 H15        -1.3612    3.3336   -0.0765 H         1 <0>         0.0826
     30 H16        -1.4626    3.4427   -1.8666 H         1 <0>         0.1052
     31 H17         0.1391    3.4750   -1.0541 H         1 <0>         0.0822
     32 H18        -0.4971    1.2868    0.9535 H         1 <0>         0.4565
     33 H19         1.0032    1.4282   -0.0242 H         1 <0>         0.4497
     34 H20         0.0461   -0.0915   -0.0624 H         1 <0>         0.4524
@<TRIPOS>BOND
     1    1    2 1
     2    1   16 1
     3    1   17 1
     4    1   18 1
     5    2    3 1
     6    2   19 1
     7    2   20 1
     8    3    4 1
     9    3   21 1
    10    3   22 1
    11    4    5 1
    12    5   10 ar
    13    5    6 ar
    14    6    7 ar
    15    6   23 1
    16    7    8 ar
    17    7   24 1
    18    8    9 ar
    19    8   11 1
    20    9   10 ar
    21    9   25 1
    22   10   26 1
    23   11   12 1
    24   11   27 1
    25   11   28 1
    26   12   13 1
    27   12   14 1
    28   12   15 1
    29   14   29 1
    30   14   30 1
    31   14   31 1
    32   15   32 1
    33   15   33 1
    34   15   34 1
@<TRIPOS>MOLECULE
ZINC28951701
   33    35     0     0     0
SMALL
USER_CHARGES
4-(4-chlorophenyl)-N-(cyclopentylideneamino)thiazol-2-amine
@<TRIPOS>ATOM
      1 C1         -1.2447   -2.1634   -0.0045 C.ar      1 <0>        -0.0916
      2 C2         -2.4292   -2.8711    0.0069 C.ar      1 <0>        -0.1101
      3 C3         -3.6396   -2.1992    0.0222 C.ar      1 <0>        -0.0310
      4 C4         -3.6684   -0.8151    0.0313 C.ar      1 <0>        -0.1133
      5 C5         -2.4895   -0.0981    0.0249 C.ar      1 <0>        -0.0742
      6 C6         -1.2682   -0.7698    0.0095 C.ar      1 <0>        -0.0176
      7 C7          0.0021   -0.0041    0.0020 C.2       1 <0>         0.1338
      8 C8          1.2017   -0.6586   -0.0130 C.2       1 <0>        -0.2386
      9 S1          2.3346    0.7248   -0.0163 S.3       1 <0>         0.0386
     10 C9          1.1041    2.0211    0.0024 C.2       1 <0>         0.4021
     11 N1         -0.0159    1.3208    0.0093 N.2       1 <0>        -0.5679
     12 N2          1.2787    3.3955    0.0072 N.pl3     1 <0>        -0.5366
     13 N3          2.5706    3.9375   -0.0020 N.2       1 <0>        -0.2336
     14 C10         2.7319    5.2075    0.0025 C.2       1 <0>         0.1047
     15 C11         1.6349    6.2515    0.0108 C.3       1 <0>        -0.1364
     16 C12         2.3287    7.6295    0.0075 C.3       1 <0>        -0.1209
     17 C13         3.7230    7.3357   -0.6022 C.3       1 <0>        -0.1182
     18 C14         4.0586    5.9461   -0.0061 C.3       1 <0>        -0.0622
     19 Cl1        -5.1264   -3.0954    0.0292 Cl        1 <0>        -0.0690
     20 H1         -0.3010   -2.6884   -0.0205 H         1 <0>         0.1358
     21 H2         -2.4121   -3.9509   -0.0001 H         1 <0>         0.1376
     22 H3         -4.6152   -0.2957    0.0432 H         1 <0>         0.1356
     23 H4         -2.5130    0.9816    0.0313 H         1 <0>         0.1408
     24 H5          1.4083   -1.7186   -0.0206 H         1 <0>         0.1981
     25 H6          0.4031    4.0612    0.0182 H         1 <0>         0.4263
     26 H7          1.0059    6.1295   -0.8833 H         1 <0>         0.0845
     27 H8          1.0178    6.1278    0.9129 H         1 <0>         0.0839
     28 H9          1.7450    8.3324   -0.6051 H         1 <0>         0.0760
     29 H10         2.3953    8.0090    1.0378 H         1 <0>         0.0751
     30 H11         3.6483    7.3242   -1.6996 H         1 <0>         0.0765
     31 H12         4.4314    8.1176   -0.2911 H         1 <0>         0.0837
     32 H13         4.4427    6.0220    1.0219 H         1 <0>         0.0986
     33 H14         4.7805    5.3960   -0.6276 H         1 <0>         0.0897
@<TRIPOS>BOND
     1    1    6 ar
     2    1    2 ar
     3    1   20 1
     4    2    3 ar
     5    2   21 1
     6    3    4 ar
     7    3   19 1
     8    4    5 ar
     9    4   22 1
    10    5    6 ar
    11    5   23 1
    12    6    7 1
    13    7   11 1
    14    7    8 2
    15    8    9 1
    16    8   24 1
    17    9   10 1
    18   10   11 2
    19   10   12 1
    20   12   13 1
    21   12   25 1
    22   13   14 2
    23   14   18 1
    24   14   15 1
    25   15   16 1
    26   15   26 1
    27   15   27 1
    28   16   17 1
    29   16   28 1
    30   16   29 1
    31   17   18 1
    32   17   30 1
    33   17   31 1
    34   18   32 1
    35   18   33 1
@<TRIPOS>MOLECULE
ZINC00192778
   35    37     0     0     0
SMALL
USER_CHARGES

@<TRIPOS>ATOM
      1 C1         -0.0168    1.3898    0.0097 C.ar      1 <0>        -0.0887
      2 C2          1.1703    2.0933    0.0021 C.ar      1 <0>        -0.0557
      3 C3          2.3776    1.4180   -0.0130 C.ar      1 <0>        -0.0485
      4 C4          2.4024    0.0349   -0.0212 C.ar      1 <0>        -0.0522
      5 C5          1.2216   -0.6792   -0.0137 C.ar      1 <0>        -0.1064
      6 C6          0.0021   -0.0041    0.0020 C.ar      1 <0>         0.0351
      7 C7         -1.2703   -0.7658    0.0106 C.2       1 <0>         0.1177
      8 C8         -1.2561   -2.1330    0.0082 C.2       1 <0>        -0.2248
      9 S1         -3.0095   -2.4831    0.0211 S.3       1 <0>         0.0645
     10 C9         -3.5758   -0.7878    0.0282 C.2       1 <0>         0.3983
     11 N1         -2.4313   -0.1279    0.0260 N.2       1 <0>        -0.5654
     12 N2         -4.8706   -0.2964    0.0389 N.pl3     1 <0>        -0.5252
     13 N3         -5.9560   -1.1823    0.0462 N.2       1 <0>        -0.2385
     14 C10        -7.1529   -0.7281    0.0561 C.2       1 <0>         0.1142
     15 C11        -7.5592    0.7308    0.0544 C.3       1 <0>        -0.1350
     16 C12        -9.1014    0.7656    0.0779 C.3       1 <0>        -0.1192
     17 C13        -9.4917   -0.6070    0.6826 C.3       1 <0>        -0.1234
     18 C14        -8.4281   -1.5524    0.0650 C.3       1 <0>        -0.0662
     19 N4          3.6537    2.1819   -0.0211 N.pl3     1 <0>         0.0309
     20 O1          3.6346    3.3907   -0.0144 O.2       1 <0>        -0.1577
     21 O2          4.7101    1.5940   -0.0344 O.3       1 <0>        -0.1570
     22 H1         -0.9587    1.9180    0.0260 H         1 <0>         0.1550
     23 H2          1.1569    3.1732    0.0077 H         1 <0>         0.1554
     24 H3          3.3478   -0.4871   -0.0337 H         1 <0>         0.1575
     25 H4          1.2422   -1.7590   -0.0204 H         1 <0>         0.1505
     26 H5         -0.4175   -2.8134    0.0004 H         1 <0>         0.2025
     27 H6         -5.0261    0.6610    0.0412 H         1 <0>         0.4063
     28 H7         -7.1619    1.2292    0.9386 H         1 <0>         0.0858
     29 H8         -7.1893    1.2195   -0.8470 H         1 <0>         0.0858
     30 H9         -9.4566    1.5782    0.7117 H         1 <0>         0.0774
     31 H10        -9.4977    0.8654   -0.9326 H         1 <0>         0.0765
     32 H11        -9.4141   -0.5878    1.7697 H         1 <0>         0.0762
     33 H12       -10.4945   -0.8976    0.3695 H         1 <0>         0.0841
     34 H13        -8.7077   -1.8322   -0.9507 H         1 <0>         0.0996
     35 H14        -8.3030   -2.4404    0.6847 H         1 <0>         0.0903
@<TRIPOS>BOND
     1    1    6 ar
     2    1    2 ar
     3    1   22 1
     4    2    3 ar
     5    2   23 1
     6    3    4 ar
     7    3   19 1
     8    4    5 ar
     9    4   24 1
    10    5    6 ar
    11    5   25 1
    12    6    7 1
    13    7   11 1
    14    7    8 2
    15    8    9 1
    16    8   26 1
    17    9   10 1
    18   10   11 2
    19   10   12 1
    20   12   13 1
    21   12   27 1
    22   13   14 2
    23   14   18 1
    24   14   15 1
    25   15   16 1
    26   15   28 1
    27   15   29 1
    28   16   17 1
    29   16   30 1
    30   16   31 1
    31   17   18 1
    32   17   32 1
    33   17   33 1
    34   18   34 1
    35   18   35 1
    36   19   20 2
    37   19   21 1
@<TRIPOS>MOLECULE
ZINC18847046
   29    31     0     0     0
SMALL
USER_CHARGES

@<TRIPOS>ATOM
      1 C1         -0.0184    1.5028    0.0103 C.3       1 <0>        -0.1424
      2 C2          0.0021   -0.0041    0.0020 C.ar      1 <0>         0.1556
      3 C3          0.0057   -0.6865   -1.2084 C.ar      1 <0>         0.1146
      4 C4          0.0254   -2.0919   -1.1857 C.ar      1 <0>         0.0189
      5 C5          0.0408   -2.7431    0.0474 C.ar      1 <0>        -0.0789
      6 C6          0.0361   -1.9836    1.1979 C.ar      1 <0>         0.0838
      7 N1          0.0219   -0.6634    1.1422 N.ar      1 <0>        -0.4304
      8 C7          0.0239   -2.5347   -2.5884 C.ar      1 <0>        -0.1673
      9 C8          0.0375   -3.7874   -3.2002 C.ar      1 <0>         0.0049
     10 C9          0.0309   -3.8808   -4.5734 C.ar      1 <0>        -0.2172
     11 C10         0.0111   -2.7283   -5.3537 C.ar      1 <0>         0.2058
     12 C11        -0.0026   -1.4801   -4.7588 C.ar      1 <0>        -0.1848
     13 C12         0.0034   -1.3698   -3.3723 C.ar      1 <0>         0.2065
     14 N2         -0.0072   -0.2742   -2.5278 N.pl3     1 <0>        -0.5835
     15 H1         -0.0219    0.6508   -2.8196 H         1 <0>         0.4355
     16 O1          0.0057   -2.8305   -6.7086 O.3       1 <0>        -0.3026
     17 C13         0.0210   -4.1488   -7.2598 C.3       1 <0>         0.0197
     18 H2          1.0042    1.8801    0.0026 H         1 <0>         0.1154
     19 H3         -0.5455    1.8639   -0.8728 H         1 <0>         0.1057
     20 H4         -0.5286    1.8543    0.9071 H         1 <0>         0.1048
     21 H5          0.0557   -3.8217    0.1000 H         1 <0>         0.1843
     22 H6          0.0478   -2.4751    2.1595 H         1 <0>         0.2108
     23 H7          0.0536   -4.6834   -2.5974 H         1 <0>         0.1456
     24 H8          0.0415   -4.8513   -5.0470 H         1 <0>         0.1504
     25 H9         -0.0176   -0.5905   -5.3710 H         1 <0>         0.1490
     26 H10         0.9199   -4.6699   -6.9305 H         1 <0>         0.0657
     27 H11        -0.8598   -4.6944   -6.9214 H         1 <0>         0.0657
     28 H12         0.0146   -4.0877   -8.3481 H         1 <0>         0.1130
     29 H13         0.0229   -0.1610    1.9720 H         1 <0>         0.4514
@<TRIPOS>BOND
     1    1    2 1
     2    1   18 1
     3    1   19 1
     4    1   20 1
     5    2    7 ar
     6    2    3 ar
     7    3   14 1
     8    3    4 ar
     9    4    5 ar
    10    4    8 1
    11    5    6 ar
    12    5   21 1
    13    6    7 ar
    14    6   22 1
    15    7   29 1
    16    8   13 ar
    17    8    9 ar
    18    9   10 ar
    19    9   23 1
    20   10   11 ar
    21   10   24 1
    22   11   12 ar
    23   11   16 1
    24   12   13 ar
    25   12   25 1
    26   13   14 1
    27   14   15 1
    28   16   17 1
    29   17   26 1
    30   17   27 1
    31   17   28 1
@<TRIPOS>MOLECULE
ZINC04175523
   29    30     0     0     0
SMALL
USER_CHARGES

@<TRIPOS>ATOM
      1 C1         -0.0167    1.3799    0.0096 C.ar      1 <0>        -0.1046
      2 C2          1.1681    2.0956    0.0022 C.ar      1 <0>        -0.1230
      3 C3          2.3775    1.4337   -0.0130 C.ar      1 <0>        -0.0921
      4 C4          2.4050    0.0351   -0.0208 C.ar      1 <0>        -0.0848
      5 C5          1.2032   -0.6808   -0.0131 C.ar      1 <0>        -0.0984
      6 C6          0.0021   -0.0041    0.0020 C.ar      1 <0>        -0.1230
      7 C7          3.6911   -0.6791   -0.0374 C.2       1 <0>        -0.0089
      8 C8          3.7136   -2.0291   -0.0449 C.2       1 <0>        -0.2384
      9 C9          4.9924   -2.7393   -0.0614 C.2       1 <0>         0.4257
     10 O1          6.0365   -2.1130   -0.0684 O.2       1 <0>        -0.4588
     11 C10         5.0170   -4.2158   -0.0696 C.ar      1 <0>        -0.1716
     12 C11         3.8195   -4.9366   -0.0673 C.ar      1 <0>        -0.0556
     13 C12         3.8467   -6.3132   -0.0749 C.ar      1 <0>        -0.1593
     14 C13         5.0631   -6.9862   -0.0849 C.ar      1 <0>         0.1386
     15 C14         6.2565   -6.2730   -0.0871 C.ar      1 <0>        -0.1582
     16 C15         6.2378   -4.8962   -0.0854 C.ar      1 <0>        -0.0446
     17 O2          5.0857   -8.3431   -0.0919 O.3       1 <0>        -0.4980
     18 H1         -0.9608    1.9042    0.0260 H         1 <0>         0.1259
     19 H2          1.1451    3.1753    0.0078 H         1 <0>         0.1278
     20 H3          3.3010    1.9935   -0.0191 H         1 <0>         0.1290
     21 H4          1.2162   -1.7607   -0.0194 H         1 <0>         0.1277
     22 H5         -0.9266   -0.5553    0.0083 H         1 <0>         0.1273
     23 H6          4.6173   -0.1235   -0.0436 H         1 <0>         0.1359
     24 H7          2.7875   -2.5847   -0.0387 H         1 <0>         0.1346
     25 H8          2.8741   -4.4145   -0.0593 H         1 <0>         0.1363
     26 H9          2.9218   -6.8709   -0.0729 H         1 <0>         0.1366
     27 H10         7.1994   -6.7995   -0.0945 H         1 <0>         0.1367
     28 H11         7.1653   -4.3429   -0.0917 H         1 <0>         0.1394
     29 H12         5.0876   -8.7319   -0.9773 H         1 <0>         0.3974
@<TRIPOS>BOND
     1    1    6 ar
     2    1    2 ar
     3    1   18 1
     4    2    3 ar
     5    2   19 1
     6    3    4 ar
     7    3   20 1
     8    4    5 ar
     9    4    7 1
    10    5    6 ar
    11    5   21 1
    12    6   22 1
    13    7    8 2
    14    7   23 1
    15    8    9 1
    16    8   24 1
    17    9   10 2
    18    9   11 1
    19   11   16 ar
    20   11   12 ar
    21   12   13 ar
    22   12   25 1
    23   13   14 ar
    24   13   26 1
    25   14   15 ar
    26   14   17 1
    27   15   16 ar
    28   15   27 1
    29   16   28 1
    30   17   29 1
@<TRIPOS>MOLECULE
ZINC05934541
   28    30     0     0     0
SMALL
USER_CHARGES

@<TRIPOS>ATOM
      1 C1         -0.0167    1.3795    0.0096 C.ar      1 <0>        -0.0923
      2 C2          1.1683    2.0940    0.0021 C.ar      1 <0>        -0.1232
      3 C3          2.3774    1.4304   -0.0129 C.ar      1 <0>        -0.0789
      4 C4          2.4038    0.0341   -0.0206 C.ar      1 <0>        -0.0759
      5 C5          1.2040   -0.6806   -0.0130 C.ar      1 <0>        -0.0795
      6 C6          0.0021   -0.0041    0.0020 C.ar      1 <0>        -0.1209
      7 C7          3.6945   -0.6833   -0.0372 C.2       1 <0>         0.2119
      8 C8          3.6864   -2.0428   -0.0500 C.2       1 <0>        -0.3154
      9 C9          4.9135   -2.7479   -0.0665 C.2       1 <0>         0.4230
     10 O1          4.9439   -3.9675   -0.0787 O.2       1 <0>        -0.4683
     11 C10         6.1539   -1.9500   -0.0690 C.ar      1 <0>        -0.2334
     12 C11         7.4083   -2.5603   -0.0853 C.ar      1 <0>        -0.0124
     13 C12         8.5367   -1.7906   -0.0876 C.ar      1 <0>        -0.1723
     14 C13         8.4412   -0.4007   -0.0732 C.ar      1 <0>         0.1743
     15 C14         7.2031    0.2197   -0.0569 C.ar      1 <0>        -0.1715
     16 C15         6.0480   -0.5488   -0.0549 C.ar      1 <0>         0.1661
     17 O2          4.8301    0.0320   -0.0447 O.3       1 <0>        -0.2194
     18 O3          9.5711    0.3517   -0.0747 O.3       1 <0>        -0.4905
     19 H1         -0.9606    1.9042    0.0260 H         1 <0>         0.1309
     20 H2          1.1464    3.1738    0.0078 H         1 <0>         0.1326
     21 H3          3.3015    1.9893   -0.0191 H         1 <0>         0.1348
     22 H4          1.2172   -1.7605   -0.0192 H         1 <0>         0.1363
     23 H5         -0.9265   -0.5555    0.0079 H         1 <0>         0.1348
     24 H6          2.7500   -2.5809   -0.0472 H         1 <0>         0.1633
     25 H7          7.4870   -3.6374   -0.0958 H         1 <0>         0.1487
     26 H8          9.5083   -2.2620   -0.1003 H         1 <0>         0.1440
     27 H9          7.1371    1.2976   -0.0454 H         1 <0>         0.1509
     28 H10         9.8916    0.5784   -0.9585 H         1 <0>         0.4023
@<TRIPOS>BOND
     1    1    6 ar
     2    1    2 ar
     3    1   19 1
     4    2    3 ar
     5    2   20 1
     6    3    4 ar
     7    3   21 1
     8    4    5 ar
     9    4    7 1
    10    5    6 ar
    11    5   22 1
    12    6   23 1
    13    7   17 1
    14    7    8 2
    15    8    9 1
    16    8   24 1
    17    9   10 2
    18    9   11 1
    19   11   16 ar
    20   11   12 ar
    21   12   13 ar
    22   12   25 1
    23   13   14 ar
    24   13   26 1
    25   14   15 ar
    26   14   18 1
    27   15   16 ar
    28   15   27 1
    29   16   17 1
    30   18   28 1
@<TRIPOS>MOLECULE
ZINC05934541
   27    29     0     0     0
SMALL
USER_CHARGES

@<TRIPOS>ATOM
      1 C1         -0.0167    1.3797    0.0096 C.ar      1 <0>        -0.1062
      2 C2          1.1682    2.0946    0.0022 C.ar      1 <0>        -0.1241
      3 C3          2.3774    1.4316   -0.0130 C.ar      1 <0>        -0.0838
      4 C4          2.4042    0.0345   -0.0208 C.ar      1 <0>        -0.0541
      5 C5          1.2037   -0.6807   -0.0131 C.ar      1 <0>        -0.0863
      6 C6          0.0021   -0.0041    0.0020 C.ar      1 <0>        -0.1233
      7 C7          3.6937   -0.6820   -0.0374 C.2       1 <0>         0.1780
      8 C8          3.6984   -2.0609   -0.0505 C.2       1 <0>        -0.2742
      9 C9          4.9130   -2.7505   -0.0664 C.2       1 <0>         0.3657
     10 C10         6.1125   -1.9994   -0.0685 C.2       1 <0>        -0.3233
     11 C11         7.3627   -2.6405   -0.0848 C.2       1 <0>         0.0150
     12 C12         8.5035   -1.9030   -0.0870 C.2       1 <0>        -0.2685
     13 C13         8.4409   -0.4969   -0.0730 C.2       1 <0>         0.3395
     14 O1          9.5670    0.2177   -0.0758 O.2       1 <0>        -0.6664
     15 C14         7.2041    0.1540   -0.0569 C.2       1 <0>        -0.3089
     16 C15         6.0387   -0.5887   -0.0545 C.2       1 <0>         0.1953
     17 O2          4.8359    0.0230   -0.0450 O.3       1 <0>        -0.2202
     18 O3          4.9420   -4.1010   -0.0790 O.3       1 <0>        -0.6063
     19 H1         -0.9606    1.9042    0.0260 H         1 <0>         0.1250
     20 H2          1.1460    3.1744    0.0078 H         1 <0>         0.1282
     21 H3          3.3014    1.9908   -0.0192 H         1 <0>         0.1358
     22 H4          1.2169   -1.7606   -0.0194 H         1 <0>         0.1353
     23 H5         -0.9266   -0.5554    0.0083 H         1 <0>         0.1294
     24 H6          2.7660   -2.6059   -0.0482 H         1 <0>         0.1462
     25 H7          7.4166   -3.7191   -0.0951 H         1 <0>         0.1211
     26 H8          9.4633   -2.3980   -0.0991 H         1 <0>         0.1128
     27 H9          7.1594    1.2330   -0.0459 H         1 <0>         0.1184
@<TRIPOS>BOND
     1    1    6 ar
     2    1    2 ar
     3    1   19 1
     4    2    3 ar
     5    2   20 1
     6    3    4 ar
     7    3   21 1
     8    4    5 ar
     9    4    7 1
    10    5    6 ar
    11    5   22 1
    12    6   23 1
    13    7   17 1
    14    7    8 2
    15    8    9 1
    16    8   24 1
    17    9   10 2
    18    9   18 1
    19   10   16 1
    20   10   11 1
    21   11   12 2
    22   11   25 1
    23   12   13 1
    24   12   26 1
    25   13   14 2
    26   13   15 1
    27   15   16 2
    28   15   27 1
    29   16   17 1
@<TRIPOS>MOLECULE
ZINC03871576
   30    32     0     0     0
SMALL
USER_CHARGES

@<TRIPOS>ATOM
      1 C1         -0.0169    1.3935    0.0097 C.ar      1 <0>        -0.0604
      2 C2          1.1676    2.0963    0.0022 C.ar      1 <0>        -0.1497
      3 C3          2.3803    1.4179   -0.0135 C.ar      1 <0>         0.1360
      4 C4          2.4038    0.0284   -0.0212 C.ar      1 <0>        -0.1474
      5 C5          1.2241   -0.6823   -0.0133 C.ar      1 <0>        -0.0612
      6 C6          0.0021   -0.0041    0.0020 C.ar      1 <0>        -0.0853
      7 C7         -1.2639   -0.7610    0.0105 C.2       1 <0>         0.2092
      8 C8         -1.2134   -2.1203    0.0083 C.2       1 <0>        -0.3116
      9 C9         -2.4177   -2.8631    0.0169 C.2       1 <0>         0.4226
     10 O1         -2.4099   -4.0836    0.0156 O.2       1 <0>        -0.4538
     11 C10        -3.6809   -2.1061    0.0279 C.ar      1 <0>        -0.2659
     12 C11        -4.9199   -2.7591    0.0374 C.ar      1 <0>         0.2192
     13 C12        -6.0832   -2.0121    0.0480 C.ar      1 <0>        -0.2049
     14 C13        -6.0212   -0.6227    0.0493 C.ar      1 <0>         0.1922
     15 C14        -4.7984    0.0300    0.0400 C.ar      1 <0>        -0.1830
     16 C15        -3.6212   -0.7020    0.0293 C.ar      1 <0>         0.1830
     17 O2         -2.4220   -0.0821    0.0257 O.3       1 <0>        -0.2182
     18 O3         -7.1695    0.1013    0.0593 O.3       1 <0>        -0.4872
     19 O4         -4.9782   -4.1150    0.0356 O.3       1 <0>        -0.4722
     20 O5          3.5455    2.1145   -0.0218 O.3       1 <0>        -0.4965
     21 H1         -0.9589    1.9215    0.0260 H         1 <0>         0.1404
     22 H2          1.1538    3.1762    0.0081 H         1 <0>         0.1393
     23 H3          3.3485   -0.4949   -0.0338 H         1 <0>         0.1414
     24 H4          1.2432   -1.7622   -0.0196 H         1 <0>         0.1415
     25 H5         -0.2608   -2.6290   -0.0002 H         1 <0>         0.1637
     26 H6         -7.0423   -2.5086    0.0550 H         1 <0>         0.1502
     27 H7         -4.7627    1.1094    0.0411 H         1 <0>         0.1534
     28 H8         -7.4952    0.3100    0.9456 H         1 <0>         0.4037
     29 H9         -4.9875   -4.5094    0.9185 H         1 <0>         0.4031
     30 H10         3.8920    2.3119    0.8591 H         1 <0>         0.3984
@<TRIPOS>BOND
     1    1    6 ar
     2    1    2 ar
     3    1   21 1
     4    2    3 ar
     5    2   22 1
     6    3    4 ar
     7    3   20 1
     8    4    5 ar
     9    4   23 1
    10    5    6 ar
    11    5   24 1
    12    6    7 1
    13    7   17 1
    14    7    8 2
    15    8    9 1
    16    8   25 1
    17    9   10 2
    18    9   11 1
    19   11   16 ar
    20   11   12 ar
    21   12   13 ar
    22   12   19 1
    23   13   14 ar
    24   13   26 1
    25   14   15 ar
    26   14   18 1
    27   15   16 ar
    28   15   27 1
    29   16   17 1
    30   18   28 1
    31   19   29 1
    32   20   30 1
@<TRIPOS>MOLECULE
ZINC03871576
   29    31     0     0     0
SMALL
USER_CHARGES

@<TRIPOS>ATOM
      1 C1         -0.0169    1.3945    0.0097 C.ar      1 <0>        -0.0666
      2 C2          1.1672    2.0969    0.0022 C.ar      1 <0>        -0.1480
      3 C3          2.3804    1.4183   -0.0135 C.ar      1 <0>         0.1175
      4 C4          2.4042    0.0284   -0.0212 C.ar      1 <0>        -0.1471
      5 C5          1.2251   -0.6825   -0.0138 C.ar      1 <0>        -0.0696
      6 C6          0.0021   -0.0041    0.0020 C.ar      1 <0>        -0.0607
      7 C7         -1.2623   -0.7603    0.0105 C.2       1 <0>         0.1733
      8 C8         -1.2238   -2.1392    0.0085 C.2       1 <0>        -0.2675
      9 C9         -2.4161   -2.8666    0.0170 C.2       1 <0>         0.3649
     10 C10        -3.6370   -2.1554    0.0275 C.2       1 <0>        -0.3407
     11 C11        -4.8707   -2.8387    0.0369 C.2       1 <0>         0.2653
     12 C12        -6.0384   -2.1317    0.0475 C.2       1 <0>        -0.3780
     13 C13        -6.0158   -0.7277    0.0485 C.2       1 <0>         0.3615
     14 O1         -7.1627   -0.0461    0.0589 O.2       1 <0>        -0.6669
     15 C14        -4.7977   -0.0391    0.0393 C.2       1 <0>        -0.3147
     16 C15        -3.6098   -0.7430    0.0291 C.2       1 <0>         0.2111
     17 O2         -2.4272   -0.0920    0.0257 O.3       1 <0>        -0.2196
     18 O3         -4.8969   -4.1953    0.0351 O.3       1 <0>        -0.4477
     19 O4         -2.4024   -4.2178    0.0147 O.3       1 <0>        -0.5784
     20 O5          3.5452    2.1149   -0.0218 O.3       1 <0>        -0.4988
     21 H1         -0.9589    1.9225    0.0260 H         1 <0>         0.1416
     22 H2          1.1536    3.1768    0.0081 H         1 <0>         0.1349
     23 H3          3.3490   -0.4946   -0.0334 H         1 <0>         0.1360
     24 H4          1.2446   -1.7623   -0.0201 H         1 <0>         0.1407
     25 H5         -0.2747   -2.6546   -0.0001 H         1 <0>         0.1464
     26 H6         -6.9835   -2.6543    0.0547 H         1 <0>         0.1160
     27 H7         -4.7867    1.0408    0.0398 H         1 <0>         0.1203
     28 H8         -5.7877   -4.5715    0.0420 H         1 <0>         0.3828
     29 H9          3.8917    2.3124    0.8591 H         1 <0>         0.3921
@<TRIPOS>BOND
     1    1    6 ar
     2    1    2 ar
     3    1   21 1
     4    2    3 ar
     5    2   22 1
     6    3    4 ar
     7    3   20 1
     8    4    5 ar
     9    4   23 1
    10    5    6 ar
    11    5   24 1
    12    6    7 1
    13    7   17 1
    14    7    8 2
    15    8    9 1
    16    8   25 1
    17    9   10 2
    18    9   19 1
    19   10   16 1
    20   10   11 1
    21   11   12 2
    22   11   18 1
    23   12   13 1
    24   12   26 1
    25   13   14 2
    26   13   15 1
    27   15   16 2
    28   15   27 1
    29   16   17 1
    30   18   28 1
    31   20   29 1
@<TRIPOS>MOLECULE
ZINC01667098
   30    31     0     0     0
SMALL
USER_CHARGES

@<TRIPOS>ATOM
      1 C1         -0.0184    1.5028    0.0103 C.3       1 <0>        -0.1089
      2 C2          0.0021   -0.0041    0.0020 C.2       1 <0>         0.2145
      3 N1          0.0056   -0.6462   -1.1190 N.2       1 <0>        -0.5190
      4 C3          0.0091   -2.1038   -1.1802 C.3       1 <0>         0.0413
      5 C4          0.8474   -2.7026   -0.0519 C.3       1 <0>        -0.1069
      6 C5          0.4355   -2.0866    1.2599 C.ar      1 <0>        -0.0594
      7 C6          0.0243   -0.7504    1.2729 C.ar      1 <0>        -0.1131
      8 C7         -0.3584   -0.1516    2.4718 C.ar      1 <0>        -0.1363
      9 C8         -0.3226   -0.8861    3.6434 C.ar      1 <0>         0.0934
     10 C9          0.0939   -2.2159    3.6219 C.ar      1 <0>         0.1204
     11 C10         0.4637   -2.8118    2.4277 C.ar      1 <0>        -0.1721
     12 O1          0.1275   -2.9328    4.7753 O.3       1 <0>        -0.3025
     13 C11         0.5643   -4.2903    4.6829 C.3       1 <0>         0.0239
     14 O2         -0.6940   -0.3096    4.8178 O.3       1 <0>        -0.3047
     15 C12        -1.1095    1.0567    4.7671 C.3       1 <0>         0.0237
     16 H1          1.0042    1.8801    0.0026 H         1 <0>         0.0842
     17 H2         -0.5455    1.8639   -0.8728 H         1 <0>         0.0828
     18 H3         -0.5286    1.8543    0.9071 H         1 <0>         0.0749
     19 H4         -1.0150   -2.4674   -1.0960 H         1 <0>         0.0777
     20 H5          0.4216   -2.4202   -2.1383 H         1 <0>         0.0962
     21 H6          0.6881   -3.7802   -0.0133 H         1 <0>         0.0876
     22 H7          1.9022   -2.4973   -0.2345 H         1 <0>         0.0834
     23 H8         -0.6805    0.8791    2.4861 H         1 <0>         0.1453
     24 H9          0.7859   -3.8426    2.4167 H         1 <0>         0.1404
     25 H10        -0.0987   -4.8406    4.0153 H         1 <0>         0.0566
     26 H11         1.5808   -4.3191    4.2905 H         1 <0>         0.0567
     27 H12         0.5438   -4.7467    5.6726 H         1 <0>         0.1039
     28 H13        -0.2940    1.6705    4.3845 H         1 <0>         0.0567
     29 H14        -1.9736    1.1495    4.1092 H         1 <0>         0.0560
     30 H15        -1.3778    1.3923    5.7688 H         1 <0>         0.1032
@<TRIPOS>BOND
     1    1    2 1
     2    1   16 1
     3    1   17 1
     4    1   18 1
     5    2    7 1
     6    2    3 2
     7    3    4 1
     8    4    5 1
     9    4   19 1
    10    4   20 1
    11    5    6 1
    12    5   21 1
    13    5   22 1
    14    6   11 ar
    15    6    7 ar
    16    7    8 ar
    17    8    9 ar
    18    8   23 1
    19    9   10 ar
    20    9   14 1
    21   10   11 ar
    22   10   12 1
    23   11   24 1
    24   12   13 1
    25   13   25 1
    26   13   26 1
    27   13   27 1
    28   14   15 1
    29   15   28 1
    30   15   29 1
    31   15   30 1
@<TRIPOS>MOLECULE
ZINC00162733
   28    30     0     0     0
SMALL
USER_CHARGES
7-hydroxy-4-phenyl-chromen-2-one
@<TRIPOS>ATOM
      1 C1          7.3931    1.4241   -0.0601 C.ar      1 <0>        -0.1023
      2 C2          7.1810    0.4091    0.8561 C.ar      1 <0>        -0.1173
      3 C3          5.9819   -0.2729    0.8691 C.ar      1 <0>        -0.0902
      4 C4          4.9816    0.0628   -0.0445 C.ar      1 <0>        -0.0740
      5 C5          5.2042    1.0838   -0.9698 C.ar      1 <0>        -0.0972
      6 C6          6.4056    1.7619   -0.9685 C.ar      1 <0>        -0.1183
      7 C7          3.6932   -0.6644   -0.0362 C.2       1 <0>         0.0774
      8 C8          3.6540   -2.0459   -0.0428 C.2       1 <0>        -0.2439
      9 C9          2.4121   -2.7033   -0.0345 C.2       1 <0>         0.5125
     10 O1          2.3867   -3.9215   -0.0400 O.2       1 <0>        -0.4590
     11 O2          1.2530   -2.0265   -0.0203 O.3       1 <0>        -0.2712
     12 C10         1.2148   -0.6767   -0.0132 C.ar      1 <0>         0.1700
     13 C11         2.4117    0.0604   -0.0206 C.ar      1 <0>        -0.1577
     14 C12         2.3756    1.4566   -0.0128 C.ar      1 <0>        -0.0390
     15 C13         1.1734    2.1047    0.0022 C.ar      1 <0>        -0.1648
     16 C14        -0.0167    1.3813    0.0096 C.ar      1 <0>         0.1694
     17 C15         0.0021   -0.0041    0.0020 C.ar      1 <0>        -0.1653
     18 O3         -1.2045    2.0387    0.0188 O.3       1 <0>        -0.4902
     19 H1          8.3334    1.9552   -0.0659 H         1 <0>         0.1284
     20 H2          7.9557    0.1505    1.5627 H         1 <0>         0.1307
     21 H3          5.8174   -1.0647    1.5849 H         1 <0>         0.1299
     22 H4          4.4360    1.3452   -1.6825 H         1 <0>         0.1296
     23 H5          6.5774    2.5551   -1.6810 H         1 <0>         0.1307
     24 H6          4.5712   -2.6161   -0.0539 H         1 <0>         0.1669
     25 H7          3.2956    2.0222   -0.0189 H         1 <0>         0.1462
     26 H8          1.1455    3.1844    0.0082 H         1 <0>         0.1438
     27 H9         -0.9248   -0.5584    0.0082 H         1 <0>         0.1527
     28 H10        -1.5444    2.2244    0.9048 H         1 <0>         0.4024
@<TRIPOS>BOND
     1    1    6 ar
     2    1    2 ar
     3    1   19 1
     4    2    3 ar
     5    2   20 1
     6    3    4 ar
     7    3   21 1
     8    4    5 ar
     9    4    7 1
    10    5    6 ar
    11    5   22 1
    12    6   23 1
    13    7   13 1
    14    7    8 2
    15    8    9 1
    16    8   24 1
    17    9   10 2
    18    9   11 1
    19   11   12 1
    20   12   17 ar
    21   12   13 ar
    22   13   14 ar
    23   14   15 ar
    24   14   25 1
    25   15   16 ar
    26   15   26 1
    27   16   17 ar
    28   16   18 1
    29   17   27 1
    30   18   28 1
@<TRIPOS>MOLECULE
ZINC02047514
   16    17     0     0     0
SMALL
USER_CHARGES

@<TRIPOS>ATOM
      1 C1         -0.0166    1.3758    0.0096 C.ar      1 <0>        -0.1544
      2 C2          1.1724    2.0861    0.0021 C.ar      1 <0>        -0.0427
      3 C3          2.3876    1.4275   -0.0130 C.ar      1 <0>        -0.1500
      4 C4          2.4298    0.0393   -0.0208 C.ar      1 <0>         0.1900
      5 C5          1.2228   -0.6785   -0.0132 C.ar      1 <0>        -0.2404
      6 C6          0.0021   -0.0041    0.0020 C.ar      1 <0>        -0.0048
      7 C7          1.5829   -2.1085   -0.0242 C.2       1 <0>         0.3891
      8 O1          0.8312   -3.0612   -0.0225 O.2       1 <0>        -0.3673
      9 C8          3.0827   -2.1263   -0.0386 C.2       1 <0>         0.4940
     10 O2          3.7881   -3.1131   -0.0512 O.2       1 <0>        -0.4456
     11 N1          3.5025   -0.8493   -0.0358 N.am      1 <0>        -0.6519
     12 H1         -0.9594    1.9024    0.0259 H         1 <0>         0.1397
     13 H2          1.1499    3.1658    0.0077 H         1 <0>         0.1407
     14 H3          3.3070    1.9941   -0.0191 H         1 <0>         0.1378
     15 H4         -0.9243   -0.5592    0.0075 H         1 <0>         0.1399
     16 H5          4.4345   -0.5805   -0.0435 H         1 <0>         0.4262
@<TRIPOS>BOND
     1    1    6 ar
     2    1    2 ar
     3    1   12 1
     4    2    3 ar
     5    2   13 1
     6    3    4 ar
     7    3   14 1
     8    4   11 1
     9    4    5 ar
    10    5    6 ar
    11    5    7 1
    12    6   15 1
    13    7    8 2
    14    7    9 1
    15    9   10 2
    16    9   11 am
    17   11   16 1
