@<TRIPOS>MOLECULE
ZINC00013748
   28    30     0     0     0
SMALL
USER_CHARGES

@<TRIPOS>ATOM
      1 C1         -0.0167    1.3777    0.0096 C.ar      1 <0>        -0.0954
      2 C2          1.1697    2.0876    0.0021 C.ar      1 <0>        -0.1049
      3 C3          2.3784    1.4177   -0.0116 C.ar      1 <0>        -0.0981
      4 C4          2.4042    0.0310   -0.0192 C.ar      1 <0>         0.0329
      5 C5          1.2117   -0.6826   -0.0141 C.ar      1 <0>         0.0460
      6 C6          0.0021   -0.0041    0.0020 C.ar      1 <0>        -0.1042
      7 O1          1.2143   -2.0435   -0.0292 O.3       1 <0>        -0.2831
      8 C7          2.4407   -2.6888    0.3305 C.3       1 <0>         0.0319
      9 C8          3.5869   -1.9932   -0.4162 C.3       1 <0>         0.0648
     10 H1          3.4262   -2.0716   -1.4914 H         1 <0>         0.1391
     11 O2          3.6023   -0.6148   -0.0295 O.3       1 <0>        -0.2941
     12 C9          4.8981   -2.6394   -0.0500 C.cat     1 <0>         0.5242
     13 N1          5.2975   -2.7671    1.1936 N.pl3     1 <0>        -0.6146
     14 C10         6.6089   -3.4350    1.2165 C.3       1 <0>         0.0552
     15 C11         6.9063   -3.6783   -0.2777 C.3       1 <0>         0.0574
     16 N2          5.7221   -3.1209   -0.9509 N.pl3     1 <0>        -0.6160
     17 H2         -0.9596    1.9040    0.0259 H         1 <0>         0.1440
     18 H3          1.1518    3.1674    0.0066 H         1 <0>         0.1437
     19 H4          3.3037    1.9746   -0.0169 H         1 <0>         0.1411
     20 H5         -0.9261   -0.5562    0.0086 H         1 <0>         0.1448
     21 H6          2.5984   -2.6053    1.4058 H         1 <0>         0.0891
     22 H7          2.4005   -3.7400    0.0450 H         1 <0>         0.1382
     23 H8          7.3641   -2.7849    1.6584 H         1 <0>         0.1328
     24 H9          6.5499   -4.3802    1.7561 H         1 <0>         0.1335
     25 H10         7.8099   -3.1496   -0.5812 H         1 <0>         0.1334
     26 H11         6.9957   -4.7449   -0.4835 H         1 <0>         0.1330
     27 H12         5.5747   -3.1096   -1.9095 H         1 <0>         0.4633
     28 H13         4.8062   -2.4679    1.9745 H         1 <0>         0.4621
@<TRIPOS>BOND
     1    1    6 ar
     2    1    2 ar
     3    1   17 1
     4    2    3 ar
     5    2   18 1
     6    3    4 ar
     7    3   19 1
     8    4   11 1
     9    4    5 ar
    10    5    6 ar
    11    5    7 1
    12    6   20 1
    13    7    8 1
    14    8    9 1
    15    8   21 1
    16    8   22 1
    17    9   10 1
    18    9   11 1
    19    9   12 1
    20   12   16 1
    21   12   13 2
    22   13   14 1
    23   13   28 1
    24   14   15 1
    25   14   23 1
    26   14   24 1
    27   15   16 1
    28   15   25 1
    29   15   26 1
    30   16   27 1
@<TRIPOS>MOLECULE
ZINC00900630
   28    30     0     0     0
SMALL
USER_CHARGES

@<TRIPOS>ATOM
      1 C1         -0.0167    1.3777    0.0096 C.ar      1 <0>        -0.0954
      2 C2          1.1697    2.0876    0.0021 C.ar      1 <0>        -0.1049
      3 C3          2.3783    1.4178   -0.0143 C.ar      1 <0>        -0.0981
      4 C4          2.4042    0.0310   -0.0230 C.ar      1 <0>         0.0329
      5 C5          1.2117   -0.6826   -0.0129 C.ar      1 <0>         0.0461
      6 C6          0.0021   -0.0041    0.0020 C.ar      1 <0>        -0.1042
      7 O1          1.2145   -2.0436   -0.0133 O.3       1 <0>        -0.2832
      8 C7          2.4336   -2.6847   -0.4041 C.3       1 <0>         0.0320
      9 C8          3.5941   -1.9974    0.3280 C.3       1 <0>         0.0648
     10 H1          3.4543   -2.0880    1.4052 H         1 <0>         0.1391
     11 O2          3.6022   -0.6147   -0.0433 O.3       1 <0>        -0.2941
     12 C9          4.8979   -2.6393   -0.0710 C.cat     1 <0>         0.5240
     13 N1          5.2782   -2.7429   -1.3227 N.pl3     1 <0>        -0.6144
     14 C10         6.5877   -3.4123   -1.3789 C.3       1 <0>         0.0552
     15 C11         6.9072   -3.6858    0.1054 C.3       1 <0>         0.0573
     16 N2          5.7392   -3.1309    0.8082 N.pl3     1 <0>        -0.6159
     17 H2         -0.9596    1.9040    0.0259 H         1 <0>         0.1440
     18 H3          1.1518    3.1674    0.0087 H         1 <0>         0.1437
     19 H4          3.3037    1.9746   -0.0208 H         1 <0>         0.1411
     20 H5         -0.9261   -0.5562    0.0079 H         1 <0>         0.1448
     21 H6          2.3988   -3.7390   -0.1298 H         1 <0>         0.1382
     22 H7          2.5703   -2.5889   -1.4813 H         1 <0>         0.0891
     23 H8          6.5187   -4.3466   -1.9362 H         1 <0>         0.1335
     24 H9          7.3374   -2.7549   -1.8192 H         1 <0>         0.1328
     25 H10         6.9977   -4.7565    0.2887 H         1 <0>         0.1335
     26 H11         7.8164   -3.1648    0.4057 H         1 <0>         0.1329
     27 H12         5.6106   -3.1302    1.7696 H         1 <0>         0.4633
     28 H13         4.7751   -2.4283   -2.0901 H         1 <0>         0.4621
@<TRIPOS>BOND
     1    1    6 ar
     2    1    2 ar
     3    1   17 1
     4    2    3 ar
     5    2   18 1
     6    3    4 ar
     7    3   19 1
     8    4   11 1
     9    4    5 ar
    10    5    6 ar
    11    5    7 1
    12    6   20 1
    13    7    8 1
    14    8    9 1
    15    8   21 1
    16    8   22 1
    17    9   10 1
    18    9   11 1
    19    9   12 1
    20   12   16 1
    21   12   13 2
    22   13   14 1
    23   13   28 1
    24   14   15 1
    25   14   23 1
    26   14   24 1
    27   15   16 1
    28   15   25 1
    29   15   26 1
    30   16   27 1
@<TRIPOS>MOLECULE
ZINC15206087
   33    35     0     0     0
SMALL
USER_CHARGES
(3E)-5,7-dihydroxy-3-[(4-hydroxyphenyl)methylene]chroman-4-one
@<TRIPOS>ATOM
      1 C1          2.3856    4.3070   -3.3521 C.ar      1 <0>        -0.0730
      2 C2          2.1069    5.6529   -3.4288 C.ar      1 <0>        -0.1450
      3 C3          1.8715    6.3837   -2.2698 C.ar      1 <0>         0.1232
      4 C4          1.9099    5.7590   -1.0283 C.ar      1 <0>        -0.1457
      5 C5          2.1819    4.4125   -0.9409 C.ar      1 <0>        -0.0903
      6 C6          2.4202    3.6720   -2.1049 C.ar      1 <0>        -0.0926
      7 C7          2.7116    2.2342   -2.0174 C.2       1 <0>         0.0030
      8 C8          2.1358    1.4860   -1.0513 C.2       1 <0>        -0.2488
      9 C9          1.0495    2.0253   -0.1362 C.3       1 <0>         0.1042
     10 O1         -0.0506    1.1158   -0.1594 O.3       1 <0>        -0.3004
     11 C10         0.1732   -0.2112   -0.0159 C.ar      1 <0>         0.2139
     12 C11        -0.8453   -1.0209    0.4644 C.ar      1 <0>        -0.2024
     13 C12        -0.6489   -2.3878    0.6001 C.ar      1 <0>         0.1954
     14 C13         0.5658   -2.9668    0.2547 C.ar      1 <0>        -0.2193
     15 C14         1.5970   -2.1754   -0.2204 C.ar      1 <0>         0.2190
     16 C15         1.4079   -0.7930   -0.3417 C.ar      1 <0>        -0.2834
     17 C16         2.5150    0.0753   -0.8014 C.2       1 <0>         0.4436
     18 O2          3.6501   -0.3376   -0.9615 O.2       1 <0>        -0.4279
     19 O3          2.7836   -2.7351   -0.5659 O.3       1 <0>        -0.4780
     20 O4         -1.6535   -3.1670    1.0751 O.3       1 <0>        -0.4904
     21 O5          1.6028    7.7118   -2.3506 O.3       1 <0>        -0.4977
     22 H1          2.5727    3.7411   -4.2527 H         1 <0>         0.1352
     23 H2          2.0756    6.1428   -4.3908 H         1 <0>         0.1358
     24 H3          1.7255    6.3311   -0.1311 H         1 <0>         0.1363
     25 H4          2.2111    3.9281    0.0240 H         1 <0>         0.1343
     26 H5          3.3861    1.7759   -2.7254 H         1 <0>         0.1406
     27 H6          0.7243    3.0040   -0.4893 H         1 <0>         0.1323
     28 H7          1.4342    2.1103    0.8801 H         1 <0>         0.0829
     29 H8         -1.7959   -0.5853    0.7346 H         1 <0>         0.1486
     30 H9          0.7050   -4.0330    0.3563 H         1 <0>         0.1463
     31 H10         3.4211   -2.7847    0.1595 H         1 <0>         0.4022
     32 H11        -1.6512   -3.2688    2.0367 H         1 <0>         0.4022
     33 H12         2.3878    8.2750   -2.3109 H         1 <0>         0.3960
@<TRIPOS>BOND
     1    1    6 ar
     2    1    2 ar
     3    1   22 1
     4    2    3 ar
     5    2   23 1
     6    3    4 ar
     7    3   21 1
     8    4    5 ar
     9    4   24 1
    10    5    6 ar
    11    5   25 1
    12    6    7 1
    13    7    8 2
    14    7   26 1
    15    8   17 1
    16    8    9 1
    17    9   10 1
    18    9   27 1
    19    9   28 1
    20   10   11 1
    21   11   16 ar
    22   11   12 ar
    23   12   13 ar
    24   12   29 1
    25   13   14 ar
    26   13   20 1
    27   14   15 ar
    28   14   30 1
    29   15   16 ar
    30   15   19 1
    31   16   17 1
    32   17   18 2
    33   19   31 1
    34   20   32 1
    35   21   33 1
@<TRIPOS>MOLECULE
ZINC15830292
   35    37     0     0     0
SMALL
USER_CHARGES
(5R)-5-(4-chlorophenyl)-3-phenyl-4,5-dihydropyrazole-1-carbothioamide
@<TRIPOS>ATOM
      1 C1          2.0597   -4.6675   -0.0400 C.ar      1 <0>        -0.0944
      2 C2          0.7433   -4.2413   -0.0260 C.ar      1 <0>        -0.1230
      3 C3          0.4515   -2.8932   -0.0168 C.ar      1 <0>        -0.0762
      4 C4          1.4887   -1.9575   -0.0219 C.ar      1 <0>        -0.0475
      5 C5          2.8151   -2.3950   -0.0423 C.ar      1 <0>        -0.0824
      6 C6          3.0921   -3.7463   -0.0447 C.ar      1 <0>        -0.1210
      7 C7          1.1847   -0.5144   -0.0120 C.2       1 <0>         0.1741
      8 N1          0.0021   -0.0041    0.0020 N.2       1 <0>        -0.2737
      9 N2         -0.0168    1.3892    0.0097 N.pl3     1 <0>        -0.4332
     10 C8          1.3691    1.8838   -0.0009 C.3       1 <0>         0.1673
     11 H1          1.5581    2.4763   -0.8960 H         1 <0>         0.1198
     12 C9          2.2131    0.5939   -0.0159 C.3       1 <0>        -0.1330
     13 C10         1.6541    2.6897    1.2402 C.ar      1 <0>        -0.0755
     14 C11         1.1281    2.2950    2.4562 C.ar      1 <0>        -0.0899
     15 C12         1.3938    3.0305    3.5958 C.ar      1 <0>        -0.1057
     16 C13         2.1769    4.1684    3.5175 C.ar      1 <0>        -0.0262
     17 C14         2.6983    4.5661    2.2992 C.ar      1 <0>        -0.1044
     18 C15         2.4366    3.8265    1.1613 C.ar      1 <0>        -0.0716
     19 Cl1         2.5057    5.0964    4.9473 Cl        1 <0>        -0.0687
     20 C16        -1.1236    2.1581    0.0193 C.2       1 <0>         0.6032
     21 S1         -0.9806    3.8641    0.0273 S.2       1 <0>        -0.5964
     22 N3         -2.3430    1.5841    0.0228 N.pl3     1 <0>        -0.7900
     23 H2          2.2823   -5.7243   -0.0468 H         1 <0>         0.1290
     24 H3         -0.0575   -4.9658   -0.0221 H         1 <0>         0.1303
     25 H4         -0.5763   -2.5619   -0.0059 H         1 <0>         0.1311
     26 H5          3.6219   -1.6771   -0.0512 H         1 <0>         0.1316
     27 H6          4.1172   -4.0860   -0.0548 H         1 <0>         0.1322
     28 H7          2.8401    0.5369    0.8740 H         1 <0>         0.1173
     29 H8          2.8246    0.5450   -0.9169 H         1 <0>         0.1188
     30 H9          0.5132    1.4092    2.5165 H         1 <0>         0.1162
     31 H10         0.9865    2.7196    4.5465 H         1 <0>         0.1316
     32 H11         3.3100    5.4540    2.2375 H         1 <0>         0.1363
     33 H12         2.8439    4.1367    0.2103 H         1 <0>         0.1349
     34 H13        -2.4241    0.6175    0.0183 H         1 <0>         0.4059
     35 H14        -3.1396    2.1375    0.0297 H         1 <0>         0.4330
@<TRIPOS>BOND
     1    1    6 ar
     2    1    2 ar
     3    1   23 1
     4    2    3 ar
     5    2   24 1
     6    3    4 ar
     7    3   25 1
     8    4    5 ar
     9    4    7 1
    10    5    6 ar
    11    5   26 1
    12    6   27 1
    13    7   12 1
    14    7    8 2
    15    8    9 1
    16    9   10 1
    17    9   20 1
    18   10   11 1
    19   10   12 1
    20   10   13 1
    21   12   28 1
    22   12   29 1
    23   13   18 ar
    24   13   14 ar
    25   14   15 ar
    26   14   30 1
    27   15   16 ar
    28   15   31 1
    29   16   17 ar
    30   16   19 1
    31   17   18 ar
    32   17   32 1
    33   18   33 1
    34   20   21 2
    35   20   22 1
    36   22   34 1
    37   22   35 1
@<TRIPOS>MOLECULE
ZINC15830294
   35    37     0     0     0
SMALL
USER_CHARGES
(5S)-5-(4-chlorophenyl)-3-phenyl-4,5-dihydropyrazole-1-carbothioamide
@<TRIPOS>ATOM
      1 C1          1.1546    3.1669    0.0076 C.ar      1 <0>        -0.0944
      2 C2          1.1715    1.7833    0.0005 C.ar      1 <0>        -0.1230
      3 C3         -0.0126    1.0758    0.0080 C.ar      1 <0>        -0.0762
      4 C4         -1.2307    1.7594    0.0174 C.ar      1 <0>        -0.0474
      5 C5         -1.2400    3.1562    0.0314 C.ar      1 <0>        -0.0824
      6 C6         -0.0483    3.8507    0.0233 C.ar      1 <0>        -0.1210
      7 C7         -2.5009    1.0100    0.0189 C.2       1 <0>         0.1739
      8 N1         -2.6064   -0.2738    0.0124 N.2       1 <0>        -0.2736
      9 N2         -3.9205   -0.7371    0.0155 N.pl3     1 <0>        -0.4331
     10 C8         -4.8322    0.4180    0.0257 C.3       1 <0>         0.1670
     11 H1         -5.4502    0.4109    0.9235 H         1 <0>         0.1197
     12 C9         -3.8798    1.6301    0.0347 C.3       1 <0>        -0.1328
     13 C10        -5.6947    0.4237   -1.2100 C.ar      1 <0>        -0.0749
     14 C11        -5.1574    0.0559   -2.4294 C.ar      1 <0>        -0.0907
     15 C12        -5.9494    0.0555   -3.5621 C.ar      1 <0>        -0.1052
     16 C13        -7.2774    0.4342   -3.4773 C.ar      1 <0>        -0.0264
     17 C14        -7.8132    0.8076   -2.2576 C.ar      1 <0>        -0.1041
     18 C15        -7.0216    0.8022   -1.1247 C.ar      1 <0>        -0.0718
     19 Cl1        -8.2709    0.4414   -4.9009 Cl        1 <0>        -0.0687
     20 C16        -4.2953   -2.0317    0.0098 C.2       1 <0>         0.6032
     21 S1         -5.9575   -2.4416    0.0141 S.2       1 <0>        -0.5963
     22 N3         -3.3616   -3.0036    0.0005 N.pl3     1 <0>        -0.7900
     23 H2          2.0847    3.7158    0.0013 H         1 <0>         0.1290
     24 H3          2.1140    1.2561   -0.0114 H         1 <0>         0.1303
     25 H4          0.0021   -0.0041    0.0020 H         1 <0>         0.1311
     26 H5         -2.1782    3.6912    0.0433 H         1 <0>         0.1316
     27 H6         -0.0540    4.9306    0.0295 H         1 <0>         0.1322
     28 H7         -4.0216    2.2238    0.9378 H         1 <0>         0.1190
     29 H8         -4.0342    2.2417   -0.8542 H         1 <0>         0.1172
     30 H9         -4.1195   -0.2354   -2.4962 H         1 <0>         0.1161
     31 H10        -5.5306   -0.2360   -4.5139 H         1 <0>         0.1316
     32 H11        -8.8497    1.1037   -2.1909 H         1 <0>         0.1363
     33 H12        -7.4398    1.0933   -0.1724 H         1 <0>         0.1349
     34 H13        -2.4198   -2.7713   -0.0020 H         1 <0>         0.4059
     35 H14        -3.6313   -3.9353   -0.0036 H         1 <0>         0.4330
@<TRIPOS>BOND
     1    1    6 ar
     2    1    2 ar
     3    1   23 1
     4    2    3 ar
     5    2   24 1
     6    3    4 ar
     7    3   25 1
     8    4    5 ar
     9    4    7 1
    10    5    6 ar
    11    5   26 1
    12    6   27 1
    13    7   12 1
    14    7    8 2
    15    8    9 1
    16    9   10 1
    17    9   20 1
    18   10   11 1
    19   10   12 1
    20   10   13 1
    21   12   28 1
    22   12   29 1
    23   13   18 ar
    24   13   14 ar
    25   14   15 ar
    26   14   30 1
    27   15   16 ar
    28   15   31 1
    29   16   17 ar
    30   16   19 1
    31   17   18 ar
    32   17   32 1
    33   18   33 1
    34   20   21 2
    35   20   22 1
    36   22   34 1
    37   22   35 1
@<TRIPOS>MOLECULE
ZINC00453884
   37    39     0     0     0
SMALL
USER_CHARGES
7-[(3-chlorophenyl)methoxy]-3,4-dimethyl-chromen-2-one
@<TRIPOS>ATOM
      1 C1          1.4762    1.5784    2.4330 C.3       1 <0>        -0.1290
      2 C2         -0.0134    1.8021    2.3862 C.2       1 <0>         0.0295
      3 C3         -0.7181    1.5718    1.2479 C.2       1 <0>        -0.2309
      4 C4         -2.1103    1.7942    1.2277 C.2       1 <0>         0.5159
      5 O1         -2.7293    1.5882    0.1992 O.2       1 <0>        -0.4586
      6 O2         -2.7718    2.2223    2.3144 O.3       1 <0>        -0.2692
      7 C5         -2.1315    2.4699    3.4772 C.ar      1 <0>         0.1868
      8 C6         -0.7404    2.2742    3.5664 C.ar      1 <0>        -0.1857
      9 C7         -0.0728    2.5304    4.7692 C.ar      1 <0>        -0.0147
     10 C8         -0.7749    2.9693    5.8544 C.ar      1 <0>        -0.2263
     11 C9         -2.1519    3.1649    5.7721 C.ar      1 <0>         0.1871
     12 C10        -2.8289    2.9166    4.5890 C.ar      1 <0>        -0.1730
     13 O3         -2.8360    3.6018    6.8602 O.3       1 <0>        -0.2981
     14 C11        -2.0801    3.8393    8.0494 C.3       1 <0>         0.1005
     15 C12        -3.0009    4.3157    9.1431 C.ar      1 <0>        -0.0892
     16 C13        -3.6042    3.4008    9.9861 C.ar      1 <0>        -0.0890
     17 C14        -4.4482    3.8371   10.9900 C.ar      1 <0>        -0.1082
     18 C15        -4.6899    5.1885   11.1515 C.ar      1 <0>        -0.0971
     19 C16        -4.0870    6.1043   10.3081 C.ar      1 <0>        -0.0383
     20 C17        -3.2377    5.6673    9.3069 C.ar      1 <0>        -0.0851
     21 Cl1        -4.3896    7.8017   10.5107 Cl        1 <0>        -0.0625
     22 C18        -0.0127    1.0858    0.0080 C.3       1 <0>        -0.0963
     23 H1          1.9906    2.4971    2.1513 H         1 <0>         0.0911
     24 H2          1.7692    1.2930    3.4433 H         1 <0>         0.0801
     25 H3          1.7462    0.7831    1.7381 H         1 <0>         0.0859
     26 H4          0.9944    2.3803    4.8390 H         1 <0>         0.1443
     27 H5         -0.2595    3.1667    6.7828 H         1 <0>         0.1417
     28 H6         -3.8963    3.0709    4.5330 H         1 <0>         0.1529
     29 H7         -1.5933    2.9152    8.3612 H         1 <0>         0.0818
     30 H8         -1.3244    4.6000    7.8537 H         1 <0>         0.0804
     31 H9         -3.4156    2.3449    9.8603 H         1 <0>         0.1330
     32 H10        -4.9186    3.1220   11.6487 H         1 <0>         0.1380
     33 H11        -5.3491    5.5293   11.9362 H         1 <0>         0.1376
     34 H12        -2.7632    6.3822    8.6509 H         1 <0>         0.1366
     35 H13         0.0021   -0.0041    0.0020 H         1 <0>         0.0752
     36 H14         1.0099    1.4631    0.0003 H         1 <0>         0.0744
     37 H15        -0.5399    1.4469   -0.8751 H         1 <0>         0.0781
@<TRIPOS>BOND
     1    1    2 1
     2    1   23 1
     3    1   24 1
     4    1   25 1
     5    2    8 1
     6    2    3 2
     7    3    4 1
     8    3   22 1
     9    4    5 2
    10    4    6 1
    11    6    7 1
    12    7   12 ar
    13    7    8 ar
    14    8    9 ar
    15    9   10 ar
    16    9   26 1
    17   10   11 ar
    18   10   27 1
    19   11   12 ar
    20   11   13 1
    21   12   28 1
    22   13   14 1
    23   14   15 1
    24   14   29 1
    25   14   30 1
    26   15   20 ar
    27   15   16 ar
    28   16   17 ar
    29   16   31 1
    30   17   18 ar
    31   17   32 1
    32   18   19 ar
    33   18   33 1
    34   19   20 ar
    35   19   21 1
    36   20   34 1
    37   22   35 1
    38   22   36 1
    39   22   37 1
@<TRIPOS>MOLECULE
ZINC02576403
   35    37     0     0     0
SMALL
USER_CHARGES
7-ethoxy-3-(4-hydroxyphenyl)-chromen-4-one
@<TRIPOS>ATOM
      1 C1          8.2601   -1.4446   -0.0805 C.3       1 <0>        -0.1543
      2 C2          7.1258   -0.4179   -0.0652 C.3       1 <0>         0.0507
      3 O1          5.8686   -1.0971   -0.0578 O.3       1 <0>        -0.3054
      4 C3          4.7516   -0.3258   -0.0440 C.ar      1 <0>         0.1979
      5 C4          4.8713    1.0625   -0.0377 C.ar      1 <0>        -0.2342
      6 C5          3.7561    1.8504   -0.0233 C.ar      1 <0>         0.0127
      7 C6          2.4913    1.2604   -0.0149 C.ar      1 <0>        -0.2593
      8 C7          2.3595   -0.1392   -0.0211 C.ar      1 <0>         0.1876
      9 C8          3.5041   -0.9258   -0.0358 C.ar      1 <0>        -0.1829
     10 O2          1.1375   -0.7073   -0.0126 O.3       1 <0>        -0.2175
     11 C9          0.0021   -0.0041    0.0020 C.2       1 <0>         0.1351
     12 C10        -0.0163    1.3537    0.0095 C.2       1 <0>        -0.2446
     13 C11         1.2656    2.0790    0.0011 C.2       1 <0>         0.4320
     14 O3          1.3107    3.2971    0.0068 O.2       1 <0>        -0.4557
     15 C12        -1.3027    2.0923    0.0196 C.ar      1 <0>        -0.0355
     16 C13        -1.5200    3.1036    0.9539 C.ar      1 <0>        -0.0711
     17 C14        -2.7150    3.7924    0.9571 C.ar      1 <0>        -0.1428
     18 C15        -3.7050    3.4717    0.0385 C.ar      1 <0>         0.1093
     19 C16        -3.4939    2.4613   -0.8895 C.ar      1 <0>        -0.1439
     20 C17        -2.2988    1.7726   -0.9014 C.ar      1 <0>        -0.0951
     21 O4         -4.8838    4.1482    0.0481 O.3       1 <0>        -0.4992
     22 H1          8.1924   -2.0740    0.8068 H         1 <0>         0.0687
     23 H2          8.1768   -2.0647   -0.9731 H         1 <0>         0.0687
     24 H3          9.2191   -0.9265   -0.0862 H         1 <0>         0.0826
     25 H4          7.1935    0.2116   -0.9525 H         1 <0>         0.0687
     26 H5          7.2091    0.2022    0.8274 H         1 <0>         0.0687
     27 H6          5.8507    1.5175   -0.0446 H         1 <0>         0.1422
     28 H7          3.8524    2.9261   -0.0181 H         1 <0>         0.1463
     29 H8          3.4210   -2.0026   -0.0406 H         1 <0>         0.1532
     30 H9         -0.9379   -0.5359    0.0085 H         1 <0>         0.2041
     31 H10        -0.7519    3.3503    1.6720 H         1 <0>         0.1279
     32 H11        -2.8824    4.5789    1.6781 H         1 <0>         0.1319
     33 H12        -4.2660    2.2143   -1.6031 H         1 <0>         0.1323
     34 H13        -2.1352    0.9863   -1.6235 H         1 <0>         0.1288
     35 H14        -5.5589    3.7539    0.6173 H         1 <0>         0.3920
@<TRIPOS>BOND
     1    1    2 1
     2    1   22 1
     3    1   23 1
     4    1   24 1
     5    2    3 1
     6    2   25 1
     7    2   26 1
     8    3    4 1
     9    4    9 ar
    10    4    5 ar
    11    5    6 ar
    12    5   27 1
    13    6    7 ar
    14    6   28 1
    15    7   13 1
    16    7    8 ar
    17    8    9 ar
    18    8   10 1
    19    9   29 1
    20   10   11 1
    21   11   12 2
    22   11   30 1
    23   12   13 1
    24   12   15 1
    25   13   14 2
    26   15   20 ar
    27   15   16 ar
    28   16   17 ar
    29   16   31 1
    30   17   18 ar
    31   17   32 1
    32   18   19 ar
    33   18   21 1
    34   19   20 ar
    35   19   33 1
    36   20   34 1
    37   21   35 1
@<TRIPOS>MOLECULE
ZINC02576376
   38    40     0     0     0
SMALL
USER_CHARGES
7-(3-bromopropoxy)-3-(4-hydroxyphenyl)-chromen-4-one
@<TRIPOS>ATOM
      1 C1         -3.0780   -8.8211   -0.9470 C.ar      1 <0>        -0.0711
      2 C2         -3.3516  -10.1730   -0.9469 C.ar      1 <0>        -0.1428
      3 C3         -4.2380  -10.7032   -0.0196 C.ar      1 <0>         0.1097
      4 C4         -4.8484   -9.8759    0.9130 C.ar      1 <0>        -0.1439
      5 C5         -4.5750   -8.5240    0.9215 C.ar      1 <0>        -0.0949
      6 C6         -3.6850   -7.9887   -0.0081 C.ar      1 <0>        -0.0360
      7 C7         -3.3890   -6.5352   -0.0021 C.2       1 <0>        -0.2439
      8 C8         -4.3958   -5.6239    0.0129 C.2       1 <0>         0.1350
      9 O1         -4.1731   -4.3070    0.0179 O.3       1 <0>        -0.2172
     10 C9         -2.9392   -3.7653    0.0094 C.ar      1 <0>         0.1881
     11 C10        -2.7729   -2.3864    0.0157 C.ar      1 <0>        -0.1808
     12 C11        -1.4981   -1.8467    0.0064 C.ar      1 <0>         0.1972
     13 C12        -0.3773   -2.6744   -0.0145 C.ar      1 <0>        -0.2340
     14 C13        -0.5231   -4.0322   -0.0160 C.ar      1 <0>         0.0130
     15 C14        -1.8019   -4.5913   -0.0063 C.ar      1 <0>        -0.2578
     16 C15        -1.9976   -6.0523   -0.0128 C.2       1 <0>         0.4317
     17 O2         -1.0536   -6.8235   -0.0268 O.2       1 <0>        -0.4549
     18 O3         -1.3386   -0.4987    0.0122 O.3       1 <0>        -0.3016
     19 C16         0.0021   -0.0041    0.0020 C.3       1 <0>         0.0570
     20 C17        -0.0187    1.5258    0.0104 C.3       1 <0>        -0.1223
     21 C18         1.4167    2.0553   -0.0004 C.3       1 <0>        -0.0806
     22 Br1         1.3901    4.0211    0.0104 Br        1 <0>        -0.1450
     23 O4         -4.5091  -12.0349   -0.0251 O.3       1 <0>        -0.4992
     24 H1         -2.3911   -8.4086   -1.6712 H         1 <0>         0.1278
     25 H2         -2.8785  -10.8192   -1.6715 H         1 <0>         0.1320
     26 H3         -5.5379  -10.2913    1.6330 H         1 <0>         0.1324
     27 H4         -5.0502   -7.8809    1.6474 H         1 <0>         0.1289
     28 H5         -5.4161   -5.9779    0.0204 H         1 <0>         0.2045
     29 H6         -3.6358   -1.7370    0.0275 H         1 <0>         0.1540
     30 H7          0.6114   -2.2401   -0.0261 H         1 <0>         0.1419
     31 H8          0.3477   -4.6709   -0.0284 H         1 <0>         0.1467
     32 H9          0.5123   -0.3556   -0.8948 H         1 <0>         0.0727
     33 H10         0.5293   -0.3651    0.8851 H         1 <0>         0.0727
     34 H11        -0.5459    1.8868   -0.8726 H         1 <0>         0.0899
     35 H12        -0.5289    1.8773    0.9072 H         1 <0>         0.0899
     36 H13         1.9439    1.6943    0.8826 H         1 <0>         0.1043
     37 H14         1.9269    1.7038   -0.8972 H         1 <0>         0.1043
     38 H15        -5.2563  -12.2819   -0.5871 H         1 <0>         0.3921
@<TRIPOS>BOND
     1    1    6 ar
     2    1    2 ar
     3    1   24 1
     4    2    3 ar
     5    2   25 1
     6    3    4 ar
     7    3   23 1
     8    4    5 ar
     9    4   26 1
    10    5    6 ar
    11    5   27 1
    12    6    7 1
    13    7   16 1
    14    7    8 2
    15    8    9 1
    16    8   28 1
    17    9   10 1
    18   10   15 ar
    19   10   11 ar
    20   11   12 ar
    21   11   29 1
    22   12   13 ar
    23   12   18 1
    24   13   14 ar
    25   13   30 1
    26   14   15 ar
    27   14   31 1
    28   15   16 1
    29   16   17 2
    30   18   19 1
    31   19   20 1
    32   19   32 1
    33   19   33 1
    34   20   21 1
    35   20   34 1
    36   20   35 1
    37   21   22 1
    38   21   36 1
    39   21   37 1
    40   23   38 1
@<TRIPOS>MOLECULE
ZINC03872070
   29    31     0     0     0
SMALL
USER_CHARGES

@<TRIPOS>ATOM
      1 C1         -0.0167    1.3795    0.0096 C.ar      1 <0>        -0.0927
      2 C2          1.1683    2.0940    0.0021 C.ar      1 <0>        -0.1229
      3 C3          2.3774    1.4303   -0.0130 C.ar      1 <0>        -0.0794
      4 C4          2.4038    0.0341   -0.0208 C.ar      1 <0>        -0.0750
      5 C5          1.2040   -0.6806   -0.0131 C.ar      1 <0>        -0.0800
      6 C6          0.0021   -0.0041    0.0020 C.ar      1 <0>        -0.1206
      7 C7          3.6945   -0.6834   -0.0374 C.2       1 <0>         0.2076
      8 C8          3.6865   -2.0422   -0.0503 C.2       1 <0>        -0.3115
      9 C9          4.9147   -2.7475   -0.0669 C.2       1 <0>         0.4227
     10 O1          4.9453   -3.9673   -0.0791 O.2       1 <0>        -0.4538
     11 C10         6.1531   -1.9509   -0.0693 C.ar      1 <0>        -0.2663
     12 C11         7.4124   -2.5640   -0.0858 C.ar      1 <0>         0.2193
     13 C12         8.5511   -1.7802   -0.0879 C.ar      1 <0>        -0.2051
     14 C13         8.4449   -0.3935   -0.0739 C.ar      1 <0>         0.1922
     15 C14         7.2019    0.2199   -0.0571 C.ar      1 <0>        -0.1832
     16 C15         6.0486   -0.5493   -0.0551 C.ar      1 <0>         0.1831
     17 O2          4.8303    0.0319   -0.0449 O.3       1 <0>        -0.2180
     18 O3          9.5695    0.3668   -0.0761 O.3       1 <0>        -0.4872
     19 O4          7.5139   -3.9173   -0.0990 O.3       1 <0>        -0.4722
     20 H1         -0.9606    1.9042    0.0260 H         1 <0>         0.1309
     21 H2          1.1464    3.1738    0.0078 H         1 <0>         0.1326
     22 H3          3.3016    1.9892   -0.0192 H         1 <0>         0.1349
     23 H4          1.2173   -1.7605   -0.0194 H         1 <0>         0.1361
     24 H5         -0.9265   -0.5555    0.0079 H         1 <0>         0.1347
     25 H6          2.7503   -2.5805   -0.0475 H         1 <0>         0.1636
     26 H7          9.5256   -2.2457   -0.1002 H         1 <0>         0.1502
     27 H8          7.1320    1.2975   -0.0459 H         1 <0>         0.1533
     28 H9          9.8879    0.5955   -0.9601 H         1 <0>         0.4037
     29 H10         7.5357   -4.3014   -0.9862 H         1 <0>         0.4030
@<TRIPOS>BOND
     1    1    6 ar
     2    1    2 ar
     3    1   20 1
     4    2    3 ar
     5    2   21 1
     6    3    4 ar
     7    3   22 1
     8    4    5 ar
     9    4    7 1
    10    5    6 ar
    11    5   23 1
    12    6   24 1
    13    7   17 1
    14    7    8 2
    15    8    9 1
    16    8   25 1
    17    9   10 2
    18    9   11 1
    19   11   16 ar
    20   11   12 ar
    21   12   13 ar
    22   12   19 1
    23   13   14 ar
    24   13   26 1
    25   14   15 ar
    26   14   18 1
    27   15   16 ar
    28   15   27 1
    29   16   17 1
    30   18   28 1
    31   19   29 1
@<TRIPOS>MOLECULE
ZINC03872070
   28    30     0     0     0
SMALL
USER_CHARGES

@<TRIPOS>ATOM
      1 C1         -0.0167    1.3797    0.0096 C.ar      1 <0>        -0.1070
      2 C2          1.1682    2.0946    0.0022 C.ar      1 <0>        -0.1239
      3 C3          2.3774    1.4315   -0.0129 C.ar      1 <0>        -0.0844
      4 C4          2.4042    0.0344   -0.0206 C.ar      1 <0>        -0.0523
      5 C5          1.2037   -0.6807   -0.0130 C.ar      1 <0>        -0.0872
      6 C6          0.0021   -0.0041    0.0020 C.ar      1 <0>        -0.1230
      7 C7          3.6938   -0.6822   -0.0372 C.2       1 <0>         0.1725
      8 C8          3.6987   -2.0599   -0.0503 C.2       1 <0>        -0.2684
      9 C9          4.9147   -2.7500   -0.0661 C.2       1 <0>         0.3652
     10 C10         6.1116   -2.0009   -0.0682 C.2       1 <0>        -0.3412
     11 C11         7.3668   -2.6443   -0.0844 C.2       1 <0>         0.2654
     12 C12         8.5111   -1.9002   -0.0865 C.2       1 <0>        -0.3783
     13 C13         8.4435   -0.4975   -0.0722 C.2       1 <0>         0.3617
     14 O1          9.5678    0.2204   -0.0740 O.2       1 <0>        -0.6670
     15 C14         7.2040    0.1518   -0.0566 C.2       1 <0>        -0.3151
     16 C15         6.0392   -0.5896   -0.0543 C.2       1 <0>         0.2114
     17 O2          4.8365    0.0229   -0.0448 O.3       1 <0>        -0.2195
     18 O3          7.4365   -3.9993   -0.0974 O.3       1 <0>        -0.4477
     19 O4          4.9436   -4.1007   -0.0786 O.3       1 <0>        -0.5790
     20 H1         -0.9606    1.9042    0.0260 H         1 <0>         0.1247
     21 H2          1.1460    3.1743    0.0078 H         1 <0>         0.1280
     22 H3          3.3014    1.9906   -0.0191 H         1 <0>         0.1359
     23 H4          1.2169   -1.7606   -0.0192 H         1 <0>         0.1351
     24 H5         -0.9266   -0.5554    0.0079 H         1 <0>         0.1291
     25 H6          2.7663   -2.6050   -0.0479 H         1 <0>         0.1462
     26 H7          9.4725   -2.3921   -0.0990 H         1 <0>         0.1160
     27 H8          7.1585    1.2308   -0.0456 H         1 <0>         0.1202
     28 H9          8.3389   -4.3466   -0.1079 H         1 <0>         0.3827
@<TRIPOS>BOND
     1    1    6 ar
     2    1    2 ar
     3    1   20 1
     4    2    3 ar
     5    2   21 1
     6    3    4 ar
     7    3   22 1
     8    4    5 ar
     9    4    7 1
    10    5    6 ar
    11    5   23 1
    12    6   24 1
    13    7   17 1
    14    7    8 2
    15    8    9 1
    16    8   25 1
    17    9   10 2
    18    9   19 1
    19   10   16 1
    20   10   11 1
    21   11   12 2
    22   11   18 1
    23   12   13 1
    24   12   26 1
    25   13   14 2
    26   13   15 1
    27   15   16 2
    28   15   27 1
    29   16   17 1
    30   18   28 1
@<TRIPOS>MOLECULE
ZINC00968328
   45    47     0     0     0
SMALL
USER_CHARGES

@<TRIPOS>ATOM
      1 C1         -0.0178    1.4608    0.0101 C.3       1 <0>         0.0553
      2 N1          0.0021   -0.0041    0.0020 N.pl3     1 <0>        -0.5905
      3 C2          0.0241   -0.7433    1.2666 C.3       1 <0>         0.1145
      4 C3         -1.4105   -1.0203    1.7205 C.3       1 <0>         0.0303
      5 O1         -2.0465   -1.8923    0.7840 O.3       1 <0>        -0.3206
      6 C4         -3.3348   -2.2400    1.0412 C.ar      1 <0>         0.1254
      7 C5         -3.9756   -1.7474    2.1688 C.ar      1 <0>        -0.2022
      8 C6         -5.2854   -2.1021    2.4278 C.ar      1 <0>        -0.0584
      9 C7         -5.9575   -2.9475    1.5646 C.ar      1 <0>        -0.1223
     10 C8         -5.3210   -3.4402    0.4404 C.ar      1 <0>        -0.0671
     11 C9         -4.0133   -3.0837    0.1736 C.ar      1 <0>        -0.1480
     12 C10        -7.3862   -3.3331    1.8499 C.3       1 <0>        -0.0555
     13 C11        -8.3282   -2.3252    1.1885 C.3       1 <0>        -0.0698
     14 H1         -8.1156   -2.2277    0.1239 H         1 <0>         0.1599
     15 C12        -9.7865   -2.6882    1.4311 C.2       1 <0>         0.5294
     16 O2        -10.2728   -3.7226    1.0268 O.2       1 <0>        -0.4537
     17 N2        -10.4863   -1.7976    2.1136 N.am      1 <0>        -0.6890
     18 C13        -9.9701   -0.6427    2.5734 C.2       1 <0>         0.5656
     19 O3        -10.5320    0.2306    3.2056 O.2       1 <0>        -0.4105
     20 S1         -8.2649   -0.6922    2.0368 S.3       1 <0>        -0.1557
     21 C14         0.0000   -0.6925   -1.2055 C.ar      1 <0>         0.4451
     22 C15         0.0132   -2.0839   -1.2060 C.ar      1 <0>        -0.1767
     23 C16         0.0110   -2.7560   -2.4146 C.ar      1 <0>         0.0305
     24 C17        -0.0044   -2.0117   -3.5870 C.ar      1 <0>        -0.1669
     25 C18        -0.0170   -0.6335   -3.5127 C.ar      1 <0>         0.1392
     26 N3         -0.0200   -0.0186   -2.3450 N.ar      1 <0>        -0.5042
     27 H2          1.0048    1.8381    0.0023 H         1 <0>         0.0864
     28 H3         -0.5450    1.8219   -0.8730 H         1 <0>         0.0733
     29 H4         -0.5280    1.8123    0.9069 H         1 <0>         0.1059
     30 H5          0.5496   -1.6879    1.1262 H         1 <0>         0.1083
     31 H6          0.5371   -0.1514    2.0246 H         1 <0>         0.1286
     32 H7         -1.3961   -1.4911    2.7035 H         1 <0>         0.0921
     33 H8         -1.9619   -0.0816    1.7754 H         1 <0>         0.0744
     34 H9         -3.4507   -1.0876    2.8437 H         1 <0>         0.1290
     35 H10        -5.7846   -1.7188    3.3055 H         1 <0>         0.1345
     36 H11        -5.8481   -4.1007   -0.2321 H         1 <0>         0.1360
     37 H12        -3.5179   -3.4652   -0.7070 H         1 <0>         0.1294
     38 H13        -7.5805   -4.3285    1.4504 H         1 <0>         0.1089
     39 H14        -7.5539   -3.3347    2.9269 H         1 <0>         0.0935
     40 H15       -11.4209   -1.9864    2.2920 H         1 <0>         0.4214
     41 H16         0.0254   -2.6314   -0.2752 H         1 <0>         0.1792
     42 H17         0.0214   -3.8355   -2.4461 H         1 <0>         0.1727
     43 H18        -0.0062   -2.5062   -4.5471 H         1 <0>         0.1794
     44 H19        -0.0287   -0.0508   -4.4219 H         1 <0>         0.2048
     45 H20        -0.0329    0.9510   -2.3209 H         1 <0>         0.4381
@<TRIPOS>BOND
     1    1    2 1
     2    1   27 1
     3    1   28 1
     4    1   29 1
     5    2    3 1
     6    2   21 1
     7    3    4 1
     8    3   30 1
     9    3   31 1
    10    4    5 1
    11    4   32 1
    12    4   33 1
    13    5    6 1
    14    6   11 ar
    15    6    7 ar
    16    7    8 ar
    17    7   34 1
    18    8    9 ar
    19    8   35 1
    20    9   10 ar
    21    9   12 1
    22   10   11 ar
    23   10   36 1
    24   11   37 1
    25   12   13 1
    26   12   38 1
    27   12   39 1
    28   13   14 1
    29   13   20 1
    30   13   15 1
    31   15   16 2
    32   15   17 am
    33   17   18 am
    34   17   40 1
    35   18   19 2
    36   18   20 1
    37   21   26 ar
    38   21   22 ar
    39   22   23 ar
    40   22   41 1
    41   23   24 ar
    42   23   42 1
    43   24   25 ar
    44   24   43 1
    45   25   26 ar
    46   25   44 1
    47   26   45 1
@<TRIPOS>MOLECULE
ZINC00968328
   44    46     0     0     0
SMALL
USER_CHARGES

@<TRIPOS>ATOM
      1 C1         -0.0178    1.4608    0.0101 C.3       1 <0>         0.0943
      2 N1          0.0021   -0.0041    0.0020 N.pl3     1 <0>        -0.6139
      3 C2          0.0241   -0.7433    1.2666 C.3       1 <0>         0.1321
      4 C3         -1.4105   -1.0203    1.7205 C.3       1 <0>         0.0409
      5 O1         -2.0465   -1.8923    0.7840 O.3       1 <0>        -0.2838
      6 C4         -3.3348   -2.2400    1.0412 C.ar      1 <0>         0.1410
      7 C5         -3.9756   -1.7474    2.1688 C.ar      1 <0>        -0.2122
      8 C6         -5.2854   -2.1021    2.4278 C.ar      1 <0>        -0.0601
      9 C7         -5.9575   -2.9475    1.5646 C.ar      1 <0>        -0.1420
     10 C8         -5.3210   -3.4402    0.4404 C.ar      1 <0>        -0.0675
     11 C9         -4.0133   -3.0837    0.1736 C.ar      1 <0>        -0.1507
     12 C10        -7.3862   -3.3331    1.8499 C.3       1 <0>        -0.0487
     13 C11        -8.3282   -2.3252    1.1885 C.3       1 <0>        -0.0704
     14 H1         -8.1156   -2.2277    0.1239 H         1 <0>         0.1610
     15 C12        -9.7865   -2.6882    1.4311 C.2       1 <0>         0.5301
     16 O2        -10.2728   -3.7226    1.0268 O.2       1 <0>        -0.4577
     17 N2        -10.4863   -1.7976    2.1136 N.am      1 <0>        -0.6898
     18 C13        -9.9701   -0.6427    2.5734 C.2       1 <0>         0.5614
     19 O3        -10.5320    0.2306    3.2056 O.2       1 <0>        -0.4177
     20 S1         -8.2649   -0.6922    2.0368 S.3       1 <0>        -0.1442
     21 C14         0.0000   -0.6925   -1.2055 C.ar      1 <0>         0.4042
     22 C15         0.0901    0.0128   -2.4015 C.ar      1 <0>        -0.2403
     23 C16         0.0870   -0.6849   -3.5956 C.ar      1 <0>        -0.0375
     24 C17        -0.0066   -2.0699   -3.5538 C.ar      1 <0>        -0.2346
     25 C18        -0.0930   -2.7051   -2.3314 C.ar      1 <0>         0.1463
     26 N3         -0.0823   -2.0140   -1.2072 N.ar      1 <0>        -0.5187
     27 H2          1.0048    1.8381    0.0023 H         1 <0>         0.0542
     28 H3         -0.5450    1.8219   -0.8730 H         1 <0>         0.0704
     29 H4         -0.5280    1.8123    0.9069 H         1 <0>         0.0700
     30 H5          0.5496   -1.6879    1.1262 H         1 <0>         0.0964
     31 H6          0.5371   -0.1514    2.0246 H         1 <0>         0.0938
     32 H7         -1.3961   -1.4911    2.7035 H         1 <0>         0.0688
     33 H8         -1.9619   -0.0816    1.7754 H         1 <0>         0.0592
     34 H9         -3.4507   -1.0876    2.8437 H         1 <0>         0.1266
     35 H10        -5.7846   -1.7188    3.3055 H         1 <0>         0.1282
     36 H11        -5.8481   -4.1007   -0.2321 H         1 <0>         0.1303
     37 H12        -3.5179   -3.4652   -0.7070 H         1 <0>         0.1299
     38 H13        -7.5805   -4.3285    1.4504 H         1 <0>         0.1051
     39 H14        -7.5539   -3.3347    2.9269 H         1 <0>         0.0892
     40 H15       -11.4209   -1.9864    2.2920 H         1 <0>         0.4182
     41 H16         0.1612    1.0904   -2.3974 H         1 <0>         0.1284
     42 H17         0.1553   -0.1643   -4.5394 H         1 <0>         0.1296
     43 H18        -0.0120   -2.6441   -4.4685 H         1 <0>         0.1285
     44 H19        -0.1662   -3.7820   -2.2944 H         1 <0>         0.1519
@<TRIPOS>BOND
     1    1    2 1
     2    1   27 1
     3    1   28 1
     4    1   29 1
     5    2    3 1
     6    2   21 1
     7    3    4 1
     8    3   30 1
     9    3   31 1
    10    4    5 1
    11    4   32 1
    12    4   33 1
    13    5    6 1
    14    6   11 ar
    15    6    7 ar
    16    7    8 ar
    17    7   34 1
    18    8    9 ar
    19    8   35 1
    20    9   10 ar
    21    9   12 1
    22   10   11 ar
    23   10   36 1
    24   11   37 1
    25   12   13 1
    26   12   38 1
    27   12   39 1
    28   13   14 1
    29   13   20 1
    30   13   15 1
    31   15   16 2
    32   15   17 am
    33   17   18 am
    34   17   40 1
    35   18   19 2
    36   18   20 1
    37   21   26 ar
    38   21   22 ar
    39   22   23 ar
    40   22   41 1
    41   23   24 ar
    42   23   42 1
    43   24   25 ar
    44   24   43 1
    45   25   26 ar
    46   25   44 1
@<TRIPOS>MOLECULE
ZINC00968330
   45    47     0     0     0
SMALL
USER_CHARGES

@<TRIPOS>ATOM
      1 C1         -0.0178    1.4608    0.0101 C.3       1 <0>         0.0556
      2 N1          0.0021   -0.0041    0.0020 N.pl3     1 <0>        -0.5910
      3 C2          0.0241   -0.7433    1.2666 C.3       1 <0>         0.1145
      4 C3         -1.4105   -1.0203    1.7205 C.3       1 <0>         0.0306
      5 O1         -2.0465   -1.8923    0.7840 O.3       1 <0>        -0.3203
      6 C4         -3.3348   -2.2400    1.0412 C.ar      1 <0>         0.1254
      7 C5         -3.9756   -1.7474    2.1688 C.ar      1 <0>        -0.2040
      8 C6         -5.2854   -2.1021    2.4278 C.ar      1 <0>        -0.0654
      9 C7         -5.9575   -2.9475    1.5646 C.ar      1 <0>        -0.1221
     10 C8         -5.3210   -3.4402    0.4404 C.ar      1 <0>        -0.0603
     11 C9         -4.0133   -3.0837    0.1736 C.ar      1 <0>        -0.1461
     12 C10        -7.3862   -3.3331    1.8499 C.3       1 <0>        -0.0555
     13 C11        -8.3282   -2.3252    1.1885 C.3       1 <0>        -0.0697
     14 H1         -8.0909   -1.3060    1.4933 H         1 <0>         0.1596
     15 C12        -9.7859   -2.6623    1.4695 C.2       1 <0>         0.5292
     16 O2        -10.2448   -2.6686    2.5917 O.2       1 <0>        -0.4534
     17 N2        -10.5170   -2.9474    0.4052 N.am      1 <0>        -0.6890
     18 C13       -10.0318   -2.9469   -0.8502 C.2       1 <0>         0.5657
     19 O3        -10.6238   -3.1938   -1.8830 O.2       1 <0>        -0.4109
     20 S1         -8.3132   -2.4970   -0.6448 S.3       1 <0>        -0.1554
     21 C14         0.0000   -0.6925   -1.2055 C.ar      1 <0>         0.4449
     22 C15         0.0132   -2.0839   -1.2060 C.ar      1 <0>        -0.1767
     23 C16         0.0110   -2.7560   -2.4146 C.ar      1 <0>         0.0308
     24 C17        -0.0044   -2.0117   -3.5870 C.ar      1 <0>        -0.1664
     25 C18        -0.0170   -0.6335   -3.5127 C.ar      1 <0>         0.1393
     26 N3         -0.0200   -0.0186   -2.3450 N.ar      1 <0>        -0.5040
     27 H2          1.0048    1.8381    0.0023 H         1 <0>         0.0863
     28 H3         -0.5450    1.8219   -0.8730 H         1 <0>         0.0733
     29 H4         -0.5280    1.8123    0.9069 H         1 <0>         0.1054
     30 H5          0.5496   -1.6879    1.1262 H         1 <0>         0.1083
     31 H6          0.5371   -0.1514    2.0246 H         1 <0>         0.1284
     32 H7         -1.3961   -1.4911    2.7035 H         1 <0>         0.0918
     33 H8         -1.9619   -0.0816    1.7754 H         1 <0>         0.0738
     34 H9         -3.4507   -1.0876    2.8437 H         1 <0>         0.1287
     35 H10        -5.7846   -1.7188    3.3055 H         1 <0>         0.1320
     36 H11        -5.8481   -4.1007   -0.2321 H         1 <0>         0.1384
     37 H12        -3.5179   -3.4652   -0.7070 H         1 <0>         0.1298
     38 H13        -7.5805   -4.3285    1.4504 H         1 <0>         0.0942
     39 H14        -7.5539   -3.3347    2.9269 H         1 <0>         0.1083
     40 H15       -11.4523   -3.1688    0.5362 H         1 <0>         0.4215
     41 H16         0.0254   -2.6314   -0.2752 H         1 <0>         0.1791
     42 H17         0.0214   -3.8355   -2.4461 H         1 <0>         0.1728
     43 H18        -0.0062   -2.5062   -4.5471 H         1 <0>         0.1796
     44 H19        -0.0287   -0.0508   -4.4219 H         1 <0>         0.2049
     45 H20        -0.0329    0.9510   -2.3209 H         1 <0>         0.4380
@<TRIPOS>BOND
     1    1    2 1
     2    1   27 1
     3    1   28 1
     4    1   29 1
     5    2    3 1
     6    2   21 1
     7    3    4 1
     8    3   30 1
     9    3   31 1
    10    4    5 1
    11    4   32 1
    12    4   33 1
    13    5    6 1
    14    6   11 ar
    15    6    7 ar
    16    7    8 ar
    17    7   34 1
    18    8    9 ar
    19    8   35 1
    20    9   10 ar
    21    9   12 1
    22   10   11 ar
    23   10   36 1
    24   11   37 1
    25   12   13 1
    26   12   38 1
    27   12   39 1
    28   13   14 1
    29   13   20 1
    30   13   15 1
    31   15   16 2
    32   15   17 am
    33   17   18 am
    34   17   40 1
    35   18   19 2
    36   18   20 1
    37   21   26 ar
    38   21   22 ar
    39   22   23 ar
    40   22   41 1
    41   23   24 ar
    42   23   42 1
    43   24   25 ar
    44   24   43 1
    45   25   26 ar
    46   25   44 1
    47   26   45 1
@<TRIPOS>MOLECULE
ZINC00968330
   44    46     0     0     0
SMALL
USER_CHARGES

@<TRIPOS>ATOM
      1 C1         -0.0178    1.4608    0.0101 C.3       1 <0>         0.0945
      2 N1          0.0021   -0.0041    0.0020 N.pl3     1 <0>        -0.6142
      3 C2          0.0241   -0.7433    1.2666 C.3       1 <0>         0.1321
      4 C3         -1.4105   -1.0203    1.7205 C.3       1 <0>         0.0411
      5 O1         -2.0465   -1.8923    0.7840 O.3       1 <0>        -0.2835
      6 C4         -3.3348   -2.2400    1.0412 C.ar      1 <0>         0.1409
      7 C5         -3.9756   -1.7474    2.1688 C.ar      1 <0>        -0.2139
      8 C6         -5.2854   -2.1021    2.4278 C.ar      1 <0>        -0.0668
      9 C7         -5.9575   -2.9475    1.5646 C.ar      1 <0>        -0.1417
     10 C8         -5.3210   -3.4402    0.4404 C.ar      1 <0>        -0.0611
     11 C9         -4.0133   -3.0837    0.1736 C.ar      1 <0>        -0.1489
     12 C10        -7.3862   -3.3331    1.8499 C.3       1 <0>        -0.0487
     13 C11        -8.3282   -2.3252    1.1885 C.3       1 <0>        -0.0711
     14 H1         -8.0909   -1.3060    1.4933 H         1 <0>         0.1601
     15 C12        -9.7859   -2.6623    1.4695 C.2       1 <0>         0.5303
     16 O2        -10.2448   -2.6686    2.5917 O.2       1 <0>        -0.4587
     17 N2        -10.5170   -2.9474    0.4052 N.am      1 <0>        -0.6898
     18 C13       -10.0318   -2.9469   -0.8502 C.2       1 <0>         0.5609
     19 O3        -10.6238   -3.1938   -1.8830 O.2       1 <0>        -0.4172
     20 S1         -8.3132   -2.4970   -0.6448 S.3       1 <0>        -0.1415
     21 C14         0.0000   -0.6925   -1.2055 C.ar      1 <0>         0.4038
     22 C15         0.0901    0.0128   -2.4015 C.ar      1 <0>        -0.2402
     23 C16         0.0870   -0.6849   -3.5956 C.ar      1 <0>        -0.0374
     24 C17        -0.0066   -2.0699   -3.5538 C.ar      1 <0>        -0.2340
     25 C18        -0.0930   -2.7051   -2.3314 C.ar      1 <0>         0.1464
     26 N3         -0.0823   -2.0140   -1.2072 N.ar      1 <0>        -0.5186
     27 H2          1.0048    1.8381    0.0023 H         1 <0>         0.0541
     28 H3         -0.5450    1.8219   -0.8730 H         1 <0>         0.0704
     29 H4         -0.5280    1.8123    0.9069 H         1 <0>         0.0696
     30 H5          0.5496   -1.6879    1.1262 H         1 <0>         0.0964
     31 H6          0.5371   -0.1514    2.0246 H         1 <0>         0.0936
     32 H7         -1.3961   -1.4911    2.7035 H         1 <0>         0.0686
     33 H8         -1.9619   -0.0816    1.7754 H         1 <0>         0.0586
     34 H9         -3.4507   -1.0876    2.8437 H         1 <0>         0.1263
     35 H10        -5.7846   -1.7188    3.3055 H         1 <0>         0.1256
     36 H11        -5.8481   -4.1007   -0.2321 H         1 <0>         0.1327
     37 H12        -3.5179   -3.4652   -0.7070 H         1 <0>         0.1303
     38 H13        -7.5805   -4.3285    1.4504 H         1 <0>         0.0900
     39 H14        -7.5539   -3.3347    2.9269 H         1 <0>         0.1041
     40 H15       -11.4523   -3.1688    0.5362 H         1 <0>         0.4181
     41 H16         0.1612    1.0904   -2.3974 H         1 <0>         0.1282
     42 H17         0.1553   -0.1643   -4.5394 H         1 <0>         0.1296
     43 H18        -0.0120   -2.6441   -4.4685 H         1 <0>         0.1287
     44 H19        -0.1662   -3.7820   -2.2944 H         1 <0>         0.1520
@<TRIPOS>BOND
     1    1    2 1
     2    1   27 1
     3    1   28 1
     4    1   29 1
     5    2    3 1
     6    2   21 1
     7    3    4 1
     8    3   30 1
     9    3   31 1
    10    4    5 1
    11    4   32 1
    12    4   33 1
    13    5    6 1
    14    6   11 ar
    15    6    7 ar
    16    7    8 ar
    17    7   34 1
    18    8    9 ar
    19    8   35 1
    20    9   10 ar
    21    9   12 1
    22   10   11 ar
    23   10   36 1
    24   11   37 1
    25   12   13 1
    26   12   38 1
    27   12   39 1
    28   13   14 1
    29   13   20 1
    30   13   15 1
    31   15   16 2
    32   15   17 am
    33   17   18 am
    34   17   40 1
    35   18   19 2
    36   18   20 1
    37   21   26 ar
    38   21   22 ar
    39   22   23 ar
    40   22   41 1
    41   23   24 ar
    42   23   42 1
    43   24   25 ar
    44   24   43 1
    45   25   26 ar
    46   25   44 1
@<TRIPOS>MOLECULE
ZINC33404884
   38    39     0     0     0
SMALL
USER_CHARGES
(5Z)-3-(2-aminoethyl)-5-[(4-dimethylaminophenyl)methylene]thiazolidine-2,4-dione
@<TRIPOS>ATOM
      1 C1          0.3361   -2.8273   -0.3705 C.3       1 <0>         0.0745
      2 N1          1.5366   -2.0182   -0.1463 N.pl3     1 <0>        -0.6184
      3 C2          2.8357   -2.6703    0.0372 C.3       1 <0>         0.0742
      4 C3          1.4431   -0.6300   -0.1077 C.ar      1 <0>         0.2619
      5 C4          0.2290   -0.0082   -0.3869 C.ar      1 <0>        -0.2114
      6 C5          0.1321    1.3589   -0.3501 C.ar      1 <0>        -0.0099
      7 C6          1.2572    2.1303   -0.0312 C.ar      1 <0>        -0.1881
      8 C7          2.4767    1.5002    0.2485 C.ar      1 <0>        -0.0193
      9 C8          2.5640    0.1325    0.2097 C.ar      1 <0>        -0.2077
     10 C9          1.1587    3.5942    0.0090 C.2       1 <0>         0.1277
     11 C10         2.1934    4.3313    0.4881 C.2       1 <0>        -0.2730
     12 C11         2.3883    5.7941    0.4823 C.2       1 <0>         0.5645
     13 O1          1.5618    6.5472    0.0014 O.2       1 <0>        -0.4798
     14 N2          3.5063    6.2455    1.0255 N.am      1 <0>        -0.5768
     15 C12         4.4197    5.4076    1.5568 C.2       1 <0>         0.5149
     16 O2          5.4812    5.6826    2.0833 O.2       1 <0>        -0.4238
     17 S1          3.6903    3.7972    1.3063 S.3       1 <0>        -0.0073
     18 C13         3.7582    7.6885    1.0509 C.3       1 <0>         0.0626
     19 C14         3.1867    8.2832    2.3396 C.3       1 <0>        -0.0180
     20 N3          3.4393    9.7302    2.3652 N.4       1 <0>        -0.6797
     21 H1         -0.5355   -2.1661   -0.4850 H         1 <0>         0.0844
     22 H2          0.1789   -3.4959    0.4887 H         1 <0>         0.0659
     23 H3          0.4636   -3.4273   -1.2836 H         1 <0>         0.0657
     24 H4          3.6113   -1.9056    0.1914 H         1 <0>         0.0837
     25 H5          3.0779   -3.2631   -0.8572 H         1 <0>         0.0661
     26 H6          2.7932   -3.3317    0.9151 H         1 <0>         0.0656
     27 H7         -0.6378   -0.6037   -0.6326 H         1 <0>         0.1375
     28 H8         -0.8090    1.8405   -0.5708 H         1 <0>         0.1364
     29 H9          3.3466    2.0909    0.4951 H         1 <0>         0.1298
     30 H10         3.5036   -0.3541    0.4259 H         1 <0>         0.1365
     31 H11         0.2466    4.0941   -0.3490 H         1 <0>         0.1658
     32 H12         4.8420    7.8722    1.0113 H         1 <0>         0.1177
     33 H13         3.2744    8.1605    0.1831 H         1 <0>         0.1217
     34 H14         2.1029    8.0994    2.3791 H         1 <0>         0.1359
     35 H15         3.6705    7.8111    3.2074 H         1 <0>         0.1339
     36 H16         3.0284   10.1578    3.2917 H         1 <0>         0.4662
     37 H17         2.9555   10.2023    1.4974 H         1 <0>         0.4603
     38 H18         4.5231    9.9139    2.3257 H         1 <0>         0.4596
@<TRIPOS>BOND
     1    1    2 1
     2    1   21 1
     3    1   22 1
     4    1   23 1
     5    2    3 1
     6    2    4 1
     7    3   24 1
     8    3   25 1
     9    3   26 1
    10    4    9 ar
    11    4    5 ar
    12    5    6 ar
    13    5   27 1
    14    6    7 ar
    15    6   28 1
    16    7    8 ar
    17    7   10 1
    18    8    9 ar
    19    8   29 1
    20    9   30 1
    21   10   11 2
    22   10   31 1
    23   11   17 1
    24   11   12 1
    25   12   13 2
    26   12   14 am
    27   14   15 am
    28   14   18 1
    29   15   16 2
    30   15   17 1
    31   18   19 1
    32   18   32 1
    33   18   33 1
    34   19   20 1
    35   19   34 1
    36   19   35 1
    37   20   36 1
    38   20   37 1
    39   20   38 1
@<TRIPOS>MOLECULE
ZINC12136841
   28    29     0     0     0
SMALL
USER_CHARGES
3-[(5Z)-5-benzylidene-2,4-dioxo-thiazolidin-3-yl]propanenitrile
@<TRIPOS>ATOM
      1 C1         -0.0866    4.1519   -0.8354 C.ar      1 <0>        -0.0903
      2 C2          1.1098    3.5432   -0.4979 C.ar      1 <0>        -0.1237
      3 C3          1.1472    2.1925   -0.2241 C.ar      1 <0>        -0.0767
      4 C4         -0.0286    1.4368   -0.2885 C.ar      1 <0>        -0.1005
      5 C5         -1.2328    2.0586   -0.6365 C.ar      1 <0>        -0.0867
      6 C6         -1.2542    3.4114   -0.9017 C.ar      1 <0>        -0.1181
      7 C7          0.0021   -0.0041    0.0020 C.2       1 <0>         0.0802
      8 C8         -1.1573   -0.6984    0.1117 C.2       1 <0>        -0.2191
      9 C9         -1.3757   -2.1560    0.2265 C.2       1 <0>         0.5599
     10 O1         -0.4479   -2.9431    0.2345 O.2       1 <0>        -0.4646
     11 N1         -2.6312   -2.5605    0.3207 N.am      1 <0>        -0.5780
     12 C10        -3.6565   -1.6846    0.3119 C.2       1 <0>         0.5279
     13 O2         -4.8479   -1.9160    0.3904 O.2       1 <0>        -0.4133
     14 S1         -2.8418   -0.1025    0.1651 S.3       1 <0>        -0.0316
     15 C11        -2.9148   -3.9930    0.4376 C.3       1 <0>         0.0960
     16 C12        -2.9388   -4.3892    1.9152 C.3       1 <0>        -0.0387
     17 C13        -3.2238   -5.8285    2.0328 C.1       1 <0>         0.2065
     18 N2         -3.4437   -6.9393    2.1234 N.1       1 <0>        -0.4149
     19 H1         -0.1093    5.2105   -1.0484 H         1 <0>         0.1305
     20 H2          2.0165    4.1279   -0.4487 H         1 <0>         0.1322
     21 H3          2.0815    1.7190    0.0390 H         1 <0>         0.1349
     22 H4         -2.1438    1.4813   -0.6931 H         1 <0>         0.1345
     23 H5         -2.1836    3.8938   -1.1661 H         1 <0>         0.1326
     24 H6          0.9482   -0.5095    0.1281 H         1 <0>         0.1648
     25 H7         -3.8837   -4.2095   -0.0124 H         1 <0>         0.1099
     26 H8         -2.1398   -4.5601   -0.0780 H         1 <0>         0.1131
     27 H9         -1.9700   -4.1726    2.3653 H         1 <0>         0.1175
     28 H10        -3.7139   -3.8221    2.4309 H         1 <0>         0.1159
@<TRIPOS>BOND
     1    1    6 ar
     2    1    2 ar
     3    1   19 1
     4    2    3 ar
     5    2   20 1
     6    3    4 ar
     7    3   21 1
     8    4    5 ar
     9    4    7 1
    10    5    6 ar
    11    5   22 1
    12    6   23 1
    13    7    8 2
    14    7   24 1
    15    8   14 1
    16    8    9 1
    17    9   10 2
    18    9   11 am
    19   11   12 am
    20   11   15 1
    21   12   13 2
    22   12   14 1
    23   15   16 1
    24   15   25 1
    25   15   26 1
    26   16   17 1
    27   16   27 1
    28   16   28 1
    29   17   18 3
@<TRIPOS>MOLECULE
ZINC19875505
   26    27     0     0     0
SMALL
USER_CHARGES
(1S)-N-prop-2-ynylindan-1-amine
@<TRIPOS>ATOM
      1 C1          4.8399    3.5575   -4.0499 C.1       1 <0>        -0.1963
      2 C2          4.4149    3.4290   -2.9631 C.1       1 <0>        -0.1940
      3 C3          3.8820    3.2680   -1.6004 C.3       1 <0>         0.1582
      4 N1          2.8576    4.2910   -1.3512 N.3       1 <0>        -0.6649
      5 C4          2.3020    4.1608    0.0024 C.3       1 <0>         0.1125
      6 H1          3.1460    3.8305    0.6257 H         1 <0>         0.0550
      7 C5          1.6776    5.4975    0.4559 C.3       1 <0>        -0.1173
      8 C6          0.2032    5.3364    0.0289 C.3       1 <0>        -0.0749
      9 C7         -0.0467    3.8435    0.0232 C.ar      1 <0>        -0.0795
     10 C8          1.1595    3.1679    0.0080 C.ar      1 <0>        -0.0840
     11 C9          1.1739    1.7834    0.0004 C.ar      1 <0>        -0.1010
     12 C10        -0.0126    1.0758    0.0080 C.ar      1 <0>        -0.1229
     13 C11        -1.2184    1.7512    0.0173 C.ar      1 <0>        -0.1150
     14 C12        -1.2347    3.1325    0.0304 C.ar      1 <0>        -0.1104
     15 H2          5.2381    3.6779   -5.0682 H         1 <0>         0.2322
     16 H3          3.4346    2.2684   -1.4974 H         1 <0>         0.0937
     17 H4          4.6982    3.3813   -0.8717 H         1 <0>         0.0556
     18 H5          3.3050    5.2906   -1.4542 H         1 <0>         0.3466
     19 H6          1.7982    5.6082    1.5437 H         1 <0>         0.0799
     20 H7          2.1825    6.3303   -0.0556 H         1 <0>         0.0820
     21 H8         -0.4462    5.8525    0.7513 H         1 <0>         0.0757
     22 H9          0.0608    5.7742   -0.9701 H         1 <0>         0.0858
     23 H10         2.1157    1.2550   -0.0111 H         1 <0>         0.1152
     24 H11         0.0021   -0.0041    0.0020 H         1 <0>         0.1234
     25 H12        -2.1469    1.1996    0.0187 H         1 <0>         0.1240
     26 H13        -2.1773    3.6596    0.0419 H         1 <0>         0.1204
@<TRIPOS>BOND
     1    1    2 3
     2    1   15 1
     3    2    3 1
     4    3    4 1
     5    3   16 1
     6    3   17 1
     7    4    5 1
     8    4   18 1
     9    5    6 1
    10    5   10 1
    11    5    7 1
    12    7    8 1
    13    7   19 1
    14    7   20 1
    15    8    9 1
    16    8   21 1
    17    8   22 1
    18    9   14 ar
    19    9   10 ar
    20   10   11 ar
    21   11   12 ar
    22   11   23 1
    23   12   13 ar
    24   12   24 1
    25   13   14 ar
    26   13   25 1
    27   14   26 1
@<TRIPOS>MOLECULE
ZINC40166167
   33    35     0     0     0
SMALL
USER_CHARGES

@<TRIPOS>ATOM
      1 C1         -0.3940    1.4865    0.0212 C.3       1 <0>        -0.0953
      2 C2         -0.2635   -0.0148    0.0084 C.2       1 <0>         0.0829
      3 C3         -0.3451   -0.7860   -1.0874 C.2       1 <0>        -0.2035
      4 C4         -0.1633   -2.1725   -0.6504 C.ar      1 <0>        -0.0869
      5 C5         -0.1456   -3.4022   -1.3117 C.ar      1 <0>        -0.0708
      6 C6          0.0549   -4.5630   -0.5888 C.ar      1 <0>         0.1136
      7 C7          0.2380   -4.5072    0.7923 C.ar      1 <0>        -0.1182
      8 C8          0.2222   -3.2999    1.4529 C.ar      1 <0>        -0.1099
      9 C9          0.0222   -2.1203    0.7427 C.ar      1 <0>         0.0848
     10 N1         -0.0384   -0.7929    1.1108 N.pl3     1 <0>        -0.5939
     11 H1          0.0613   -0.4606    2.0166 H         1 <0>         0.4139
     12 N2          0.0738   -5.7998   -1.2458 N.am      1 <0>        -0.6666
     13 C10         0.5626   -5.8900   -2.4986 C.2       1 <0>         0.5576
     14 O1          1.0746   -4.9199   -3.0225 O.2       1 <0>        -0.5153
     15 C11         0.4760   -7.1685   -3.2354 C.ar      1 <0>        -0.1374
     16 C12        -0.1164   -8.2827   -2.6388 C.ar      1 <0>        -0.0866
     17 C13        -0.1940   -9.4729   -3.3321 C.ar      1 <0>        -0.1269
     18 C14         0.3144   -9.5638   -4.6157 C.ar      1 <0>        -0.0911
     19 C15         0.9029   -8.4631   -5.2129 C.ar      1 <0>        -0.1265
     20 C16         0.9813   -7.2653   -4.5331 C.ar      1 <0>        -0.0575
     21 H2          0.5882    1.9378   -0.1191 H         1 <0>         0.0786
     22 H3         -1.0567    1.8005   -0.7852 H         1 <0>         0.0861
     23 H4         -0.8080    1.8070    0.9773 H         1 <0>         0.0684
     24 H5         -0.5135   -0.4484   -2.0993 H         1 <0>         0.1467
     25 H6         -0.2881   -3.4460   -2.3813 H         1 <0>         0.1349
     26 H7          0.3933   -5.4197    1.3487 H         1 <0>         0.1293
     27 H8          0.3647   -3.2682    2.5230 H         1 <0>         0.1250
     28 H9         -0.2649   -6.5915   -0.7992 H         1 <0>         0.4088
     29 H10        -0.5130   -8.2133   -1.6367 H         1 <0>         0.1259
     30 H11        -0.6521  -10.3358   -2.8717 H         1 <0>         0.1308
     31 H12         0.2518  -10.4981   -5.1538 H         1 <0>         0.1292
     32 H13         1.2977   -8.5407   -6.2151 H         1 <0>         0.1321
     33 H14         1.4369   -6.4056   -5.0020 H         1 <0>         0.1377
@<TRIPOS>BOND
     1    1    2 1
     2    1   21 1
     3    1   22 1
     4    1   23 1
     5    2   10 1
     6    2    3 2
     7    3    4 1
     8    3   24 1
     9    4    9 ar
    10    4    5 ar
    11    5    6 ar
    12    5   25 1
    13    6    7 ar
    14    6   12 1
    15    7    8 ar
    16    7   26 1
    17    8    9 ar
    18    8   27 1
    19    9   10 1
    20   10   11 1
    21   12   13 am
    22   12   28 1
    23   13   14 2
    24   13   15 1
    25   15   20 ar
    26   15   16 ar
    27   16   17 ar
    28   16   29 1
    29   17   18 ar
    30   17   30 1
    31   18   19 ar
    32   18   31 1
    33   19   20 ar
    34   19   32 1
    35   20   33 1
@<TRIPOS>MOLECULE
ZINC40166166
   33    35     0     0     0
SMALL
USER_CHARGES

@<TRIPOS>ATOM
      1 C1         -0.3940    1.4865    0.0212 C.3       1 <0>        -0.0955
      2 C2         -0.2635   -0.0148    0.0084 C.2       1 <0>         0.0833
      3 C3         -0.3451   -0.7860   -1.0874 C.2       1 <0>        -0.2032
      4 C4         -0.1633   -2.1725   -0.6504 C.ar      1 <0>        -0.0870
      5 C5         -0.1456   -3.4022   -1.3117 C.ar      1 <0>        -0.0698
      6 C6          0.0549   -4.5630   -0.5888 C.ar      1 <0>         0.1122
      7 C7          0.2380   -4.5072    0.7923 C.ar      1 <0>        -0.1174
      8 C8          0.2222   -3.2999    1.4529 C.ar      1 <0>        -0.1097
      9 C9          0.0222   -2.1204    0.7427 C.ar      1 <0>         0.0858
     10 N1         -0.0384   -0.7929    1.1108 N.pl3     1 <0>        -0.5937
     11 H1          0.0608   -0.4607    2.0167 H         1 <0>         0.4141
     12 N2          0.0738   -5.7998   -1.2458 N.am      1 <0>        -0.6643
     13 C10         0.5626   -5.8900   -2.4986 C.2       1 <0>         0.5587
     14 O1          1.0746   -4.9199   -3.0225 O.2       1 <0>        -0.5102
     15 C11         0.4760   -7.1685   -3.2355 C.ar      1 <0>        -0.1232
     16 C12        -0.1166   -8.2828   -2.6387 C.ar      1 <0>        -0.0827
     17 C13        -0.1950   -9.4731   -3.3314 C.ar      1 <0>        -0.1116
     18 C14         0.3126   -9.5649   -4.6153 C.ar      1 <0>        -0.0824
     19 C15         0.9017   -8.4640   -5.2135 C.ar      1 <0>        -0.0430
     20 C16         0.9812   -7.2651   -4.5328 C.ar      1 <0>        -0.0497
     21 Cl1         1.5362   -8.5894   -6.8245 Cl        1 <0>        -0.0564
     22 H2          0.5882    1.9378   -0.1191 H         1 <0>         0.0788
     23 H3         -1.0567    1.8005   -0.7852 H         1 <0>         0.0863
     24 H4         -0.8080    1.8070    0.9773 H         1 <0>         0.0686
     25 H5         -0.5133   -0.4483   -2.0993 H         1 <0>         0.1470
     26 H6         -0.2881   -3.4460   -2.3813 H         1 <0>         0.1352
     27 H7          0.3933   -5.4197    1.3487 H         1 <0>         0.1297
     28 H8          0.3647   -3.2682    2.5230 H         1 <0>         0.1254
     29 H9         -0.2649   -6.5915   -0.7992 H         1 <0>         0.4092
     30 H10        -0.5127   -8.2131   -1.6363 H         1 <0>         0.1336
     31 H11        -0.6533  -10.3355   -2.8704 H         1 <0>         0.1421
     32 H12         0.2493  -10.4994   -5.1529 H         1 <0>         0.1410
     33 H13         1.4369   -6.4055   -5.0017 H         1 <0>         0.1491
@<TRIPOS>BOND
     1    1    2 1
     2    1   22 1
     3    1   23 1
     4    1   24 1
     5    2   10 1
     6    2    3 2
     7    3    4 1
     8    3   25 1
     9    4    9 ar
    10    4    5 ar
    11    5    6 ar
    12    5   26 1
    13    6    7 ar
    14    6   12 1
    15    7    8 ar
    16    7   27 1
    17    8    9 ar
    18    8   28 1
    19    9   10 1
    20   10   11 1
    21   12   13 am
    22   12   29 1
    23   13   14 2
    24   13   15 1
    25   15   20 ar
    26   15   16 ar
    27   16   17 ar
    28   16   30 1
    29   17   18 ar
    30   17   31 1
    31   18   19 ar
    32   18   32 1
    33   19   20 ar
    34   19   21 1
    35   20   33 1
@<TRIPOS>MOLECULE
ZINC15224796
   33    35     0     0     0
SMALL
USER_CHARGES
N-(cyclopentylideneamino)-4-(2,4-dichlorophenyl)thiazol-2-amine
@<TRIPOS>ATOM
      1 C1         -1.1696   -2.0996    0.0013 C.ar      1 <0>        -0.1063
      2 C2         -1.1935   -0.7196    0.0148 C.ar      1 <0>        -0.0811
      3 C3          0.0021   -0.0041    0.0020 C.ar      1 <0>        -0.0097
      4 C4          1.2182   -0.6876   -0.0127 C.ar      1 <0>         0.0007
      5 C5          1.2308   -2.0683   -0.0203 C.ar      1 <0>        -0.1081
      6 C6          0.0394   -2.7736   -0.0133 C.ar      1 <0>        -0.0212
      7 Cl1         0.0618   -4.5094   -0.0235 Cl        1 <0>        -0.0558
      8 Cl2         2.7125    0.1959   -0.0210 Cl        1 <0>        -0.0235
      9 C7         -0.0180    1.4790    0.0102 C.2       1 <0>         0.1270
     10 C8         -1.2072    2.1524    0.0194 C.2       1 <0>        -0.2321
     11 S1         -0.6302    3.8448    0.0278 S.3       1 <0>         0.0438
     12 C9          1.1204    3.4840    0.0096 C.2       1 <0>         0.3952
     13 N1          1.1167    2.1630    0.0030 N.2       1 <0>        -0.5431
     14 N2          2.1955    4.3577    0.0036 N.pl3     1 <0>        -0.5258
     15 N3          1.9740    5.7411    0.0127 N.2       1 <0>        -0.2351
     16 C10         2.9675    6.5484    0.0071 C.2       1 <0>         0.1092
     17 C11         4.4333    6.1677   -0.0024 C.3       1 <0>        -0.1342
     18 C12         5.2374    7.4844   -0.0001 C.3       1 <0>        -0.1187
     19 C13         4.2525    8.5137    0.6102 C.3       1 <0>        -0.1234
     20 C14         2.8945    8.0651    0.0154 C.3       1 <0>        -0.0652
     21 H1         -2.0960   -2.6547    0.0064 H         1 <0>         0.1443
     22 H2         -2.1375   -0.1952    0.0308 H         1 <0>         0.1452
     23 H3          2.1714   -2.5989   -0.0314 H         1 <0>         0.1455
     24 H4         -2.2166    1.7684    0.0221 H         1 <0>         0.1988
     25 H5          3.1016    4.0117   -0.0069 H         1 <0>         0.4049
     26 H6          4.6717    5.5817    0.8852 H         1 <0>         0.0851
     27 H7          4.6635    5.5946   -0.9005 H         1 <0>         0.0843
     28 H8          5.5117    7.7720   -1.0151 H         1 <0>         0.0763
     29 H9          6.1252    7.3869    0.6246 H         1 <0>         0.0764
     30 H10         4.5009    9.5253    0.2893 H         1 <0>         0.0834
     31 H11         4.2419    8.4424    1.6978 H         1 <0>         0.0755
     32 H12         2.7787    8.4462   -0.9992 H         1 <0>         0.0982
     33 H13         2.0723    8.4032    0.6462 H         1 <0>         0.0897
@<TRIPOS>BOND
     1    1    6 ar
     2    1    2 ar
     3    1   21 1
     4    2    3 ar
     5    2   22 1
     6    3    4 ar
     7    3    9 1
     8    4    5 ar
     9    4    8 1
    10    5    6 ar
    11    5   23 1
    12    6    7 1
    13    9   13 1
    14    9   10 2
    15   10   11 1
    16   10   24 1
    17   11   12 1
    18   12   13 2
    19   12   14 1
    20   14   15 1
    21   14   25 1
    22   15   16 2
    23   16   20 1
    24   16   17 1
    25   17   18 1
    26   17   26 1
    27   17   27 1
    28   18   19 1
    29   18   28 1
    30   18   29 1
    31   19   20 1
    32   19   30 1
    33   19   31 1
    34   20   32 1
    35   20   33 1
@<TRIPOS>MOLECULE
ZINC06221937
   36    38     0     0     0
SMALL
USER_CHARGES

@<TRIPOS>ATOM
      1 C1         -0.0284    1.4058   -0.1894 C.ar      1 <0>        -0.0742
      2 C2          1.1580    2.1102   -0.2055 C.ar      1 <0>        -0.1132
      3 C3          2.3513    1.4552   -0.4577 C.ar      1 <0>        -0.0308
      4 C4          2.3611    0.0914   -0.6954 C.ar      1 <0>        -0.1101
      5 C5          1.1801   -0.6221   -0.6820 C.ar      1 <0>        -0.0915
      6 C6         -0.0240    0.0324   -0.4276 C.ar      1 <0>        -0.0179
      7 C7         -1.2962   -0.7298   -0.4110 C.2       1 <0>         0.1327
      8 C8         -1.2958   -2.0773   -0.6391 C.2       1 <0>        -0.2368
      9 S1         -3.0416   -2.4379   -0.5004 S.3       1 <0>         0.0457
     10 C9         -3.5874   -0.7710   -0.1560 C.2       1 <0>         0.3957
     11 N1         -2.4429   -0.1114   -0.1696 N.2       1 <0>        -0.5654
     12 N2         -4.8695   -0.2976    0.0708 N.pl3     1 <0>        -0.5284
     13 N3         -5.9568   -1.1807    0.0463 N.2       1 <0>        -0.2436
     14 C10        -7.1502   -0.7297    0.1528 C.2       1 <0>         0.1187
     15 C11        -7.4199    0.7588    0.1525 C.3       1 <0>        -0.1247
     16 C12        -8.5032    1.0574   -0.8891 C.3       1 <0>        -0.1114
     17 C13        -9.7334    0.1941   -0.6047 C.3       1 <0>        -0.1249
     18 C14        -9.3773   -1.2849   -0.7647 C.3       1 <0>        -0.1179
     19 C15        -8.3274   -1.6717    0.2758 C.3       1 <0>        -0.0605
     20 Cl1         3.8405    2.3472   -0.4766 Cl        1 <0>        -0.0688
     21 H1         -0.9583    1.9169    0.0119 H         1 <0>         0.1407
     22 H2          1.1556    3.1744   -0.0213 H         1 <0>         0.1357
     23 H3          3.2946   -0.4149   -0.8921 H         1 <0>         0.1377
     24 H4          1.1886   -1.6859   -0.8683 H         1 <0>         0.1359
     25 H5         -0.4693   -2.7409   -0.8462 H         1 <0>         0.1989
     26 H6         -5.0143    0.6453    0.2465 H         1 <0>         0.4052
     27 H7         -7.7651    1.0685    1.1389 H         1 <0>         0.0949
     28 H8         -6.5070    1.2962   -0.1043 H         1 <0>         0.0691
     29 H9         -8.7782    2.1108   -0.8359 H         1 <0>         0.0741
     30 H10        -8.1224    0.8307   -1.8850 H         1 <0>         0.0661
     31 H11       -10.0761    0.3760    0.4139 H         1 <0>         0.0687
     32 H12       -10.5276    0.4533   -1.3048 H         1 <0>         0.0704
     33 H13       -10.2717   -1.8915   -0.6234 H         1 <0>         0.0784
     34 H14        -8.9757   -1.4561   -1.7635 H         1 <0>         0.0677
     35 H15        -7.9973   -2.6953    0.0981 H         1 <0>         0.0885
     36 H16        -8.7581   -1.5910    1.2738 H         1 <0>         0.0953
@<TRIPOS>BOND
     1    1    6 ar
     2    1    2 ar
     3    1   21 1
     4    2    3 ar
     5    2   22 1
     6    3    4 ar
     7    3   20 1
     8    4    5 ar
     9    4   23 1
    10    5    6 ar
    11    5   24 1
    12    6    7 1
    13    7   11 1
    14    7    8 2
    15    8    9 1
    16    8   25 1
    17    9   10 1
    18   10   11 2
    19   10   12 1
    20   12   13 1
    21   12   26 1
    22   13   14 2
    23   14   19 1
    24   14   15 1
    25   15   16 1
    26   15   27 1
    27   15   28 1
    28   16   17 1
    29   16   29 1
    30   16   30 1
    31   17   18 1
    32   17   31 1
    33   17   32 1
    34   18   19 1
    35   18   33 1
    36   18   34 1
    37   19   35 1
    38   19   36 1
@<TRIPOS>MOLECULE
ZINC54362885
   36    38     0     0     0
SMALL
USER_CHARGES

@<TRIPOS>ATOM
      1 C1         -0.0285    1.4062   -0.1893 C.ar      1 <0>        -0.0573
      2 C2          1.1576    2.1110   -0.2053 C.ar      1 <0>        -0.1566
      3 C3          2.3518    1.4556   -0.4577 C.ar      1 <0>         0.1030
      4 C4          2.3612    0.0908   -0.6955 C.ar      1 <0>        -0.1533
      5 C5          1.1799   -0.6220   -0.6820 C.ar      1 <0>        -0.0743
      6 C6         -0.0240    0.0329   -0.4276 C.ar      1 <0>        -0.0339
      7 C7         -1.2964   -0.7293   -0.4110 C.2       1 <0>         0.1356
      8 C8         -1.2960   -2.0767   -0.6391 C.2       1 <0>        -0.2390
      9 S1         -3.0419   -2.4372   -0.5004 S.3       1 <0>         0.0447
     10 C9         -3.5875   -0.7703   -0.1560 C.2       1 <0>         0.3956
     11 N1         -2.4429   -0.1107   -0.1696 N.2       1 <0>        -0.5661
     12 N2         -4.8696   -0.2966    0.0702 N.pl3     1 <0>        -0.5285
     13 N3         -5.9572   -1.1795    0.0449 N.2       1 <0>        -0.2435
     14 C10        -7.1505   -0.7283    0.1508 C.2       1 <0>         0.1185
     15 C11        -7.4199    0.7603    0.1506 C.3       1 <0>        -0.1246
     16 C12        -8.5026    1.0593   -0.8916 C.3       1 <0>        -0.1114
     17 C13        -9.7331    0.1962   -0.6081 C.3       1 <0>        -0.1249
     18 C14        -9.3772   -1.2828   -0.7682 C.3       1 <0>        -0.1179
     19 C15        -8.3279   -1.6701    0.2729 C.3       1 <0>        -0.0605
     20 F1          3.5108    2.1497   -0.4724 F         1 <0>        -0.1384
     21 H1         -0.9585    1.9171    0.0119 H         1 <0>         0.1414
     22 H2          1.1550    3.1751   -0.0211 H         1 <0>         0.1378
     23 H3          3.2944   -0.4159   -0.8922 H         1 <0>         0.1399
     24 H4          1.1880   -1.6858   -0.8682 H         1 <0>         0.1367
     25 H5         -0.4696   -2.7404   -0.8462 H         1 <0>         0.1987
     26 H6         -5.0144    0.6463    0.2460 H         1 <0>         0.4051
     27 H7         -7.7656    1.0698    1.1369 H         1 <0>         0.0948
     28 H8         -6.5067    1.2975   -0.1056 H         1 <0>         0.0692
     29 H9         -8.7773    2.1128   -0.8384 H         1 <0>         0.0741
     30 H10        -8.1212    0.8328   -1.8873 H         1 <0>         0.0661
     31 H11       -10.0763    0.3780    0.4104 H         1 <0>         0.0687
     32 H12       -10.5269    0.4557   -1.3086 H         1 <0>         0.0704
     33 H13       -10.2719   -1.8893   -0.6274 H         1 <0>         0.0783
     34 H14        -8.9751   -1.4539   -1.7668 H         1 <0>         0.0677
     35 H15        -7.9980   -2.6936    0.0952 H         1 <0>         0.0885
     36 H16        -8.7593   -1.5895    1.2707 H         1 <0>         0.0952
@<TRIPOS>BOND
     1    1    6 ar
     2    1    2 ar
     3    1   21 1
     4    2    3 ar
     5    2   22 1
     6    3    4 ar
     7    3   20 1
     8    4    5 ar
     9    4   23 1
    10    5    6 ar
    11    5   24 1
    12    6    7 1
    13    7   11 1
    14    7    8 2
    15    8    9 1
    16    8   25 1
    17    9   10 1
    18   10   11 2
    19   10   12 1
    20   12   13 1
    21   12   26 1
    22   13   14 2
    23   14   19 1
    24   14   15 1
    25   15   16 1
    26   15   27 1
    27   15   28 1
    28   16   17 1
    29   16   29 1
    30   16   30 1
    31   17   18 1
    32   17   31 1
    33   17   32 1
    34   18   19 1
    35   18   33 1
    36   18   34 1
    37   19   35 1
    38   19   36 1
@<TRIPOS>MOLECULE
ZINC54362881
   39    41     0     0     0
SMALL
USER_CHARGES

@<TRIPOS>ATOM
      1 C1         -0.0184    1.5028    0.0103 C.3       1 <0>        -0.1202
      2 C2          0.0021   -0.0041    0.0020 C.ar      1 <0>        -0.0728
      3 C3          0.0057   -0.6862   -1.2017 C.ar      1 <0>        -0.1146
      4 C4          0.0249   -2.0656   -1.2163 C.ar      1 <0>        -0.0867
      5 C5          0.0405   -2.7729   -0.0132 C.ar      1 <0>        -0.0509
      6 C6          0.0368   -2.0787    1.1975 C.ar      1 <0>        -0.1052
      7 C7          0.0229   -0.6992    1.1981 C.ar      1 <0>        -0.1138
      8 C8          0.0606   -4.2517   -0.0214 C.2       1 <0>         0.1451
      9 C9          0.0694   -4.9237   -1.1916 C.2       1 <0>        -0.2120
     10 S1          0.0926   -6.6237   -0.6462 S.3       1 <0>        -0.0145
     11 C10         0.0889   -6.3192    1.1136 C.2       1 <0>         0.4048
     12 N1          0.0760   -4.9455    1.1568 N.pl3     1 <0>        -0.6219
     13 N2          0.1008   -7.1866    2.1118 N.2       1 <0>        -0.4133
     14 N3          0.1198   -8.5617    1.8447 N.2       1 <0>        -0.3477
     15 C11         0.1315   -9.4112    2.8223 C.2       1 <0>         0.1769
     16 C12         0.1186   -8.9400    4.2596 C.3       1 <0>        -0.1213
     17 C13        -1.0062   -9.6698    5.0014 C.3       1 <0>        -0.1127
     18 C14        -0.8285  -11.1799    4.8348 C.3       1 <0>        -0.1244
     19 C15        -0.9682  -11.5588    3.3595 C.3       1 <0>        -0.1152
     20 C16         0.1521  -10.9001    2.5559 C.3       1 <0>        -0.0698
     21 H1          1.0042    1.8801    0.0026 H         1 <0>         0.0749
     22 H2         -0.5455    1.8639   -0.8728 H         1 <0>         0.0702
     23 H3         -0.5286    1.8543    0.9071 H         1 <0>         0.0692
     24 H4         -0.0068   -0.1377   -2.1320 H         1 <0>         0.1311
     25 H5          0.0273   -2.5969   -2.1565 H         1 <0>         0.1328
     26 H6          0.0485   -2.6203    2.1319 H         1 <0>         0.1197
     27 H7          0.0241   -0.1607    2.1343 H         1 <0>         0.1286
     28 H8          0.0634   -4.5337   -2.1987 H         1 <0>         0.2015
     29 H9          1.0754   -9.1692    4.7287 H         1 <0>         0.0817
     30 H10        -0.0595   -7.8651    4.2909 H         1 <0>         0.0864
     31 H11        -0.9690   -9.4140    6.0603 H         1 <0>         0.0680
     32 H12        -1.9690   -9.3692    4.5882 H         1 <0>         0.0618
     33 H13         0.1598  -11.4699    5.1914 H         1 <0>         0.0666
     34 H14        -1.5895  -11.7005    5.4162 H         1 <0>         0.0666
     35 H15        -0.9041  -12.6418    3.2547 H         1 <0>         0.0751
     36 H16        -1.9319  -11.2135    2.9852 H         1 <0>         0.0653
     37 H17        -0.0044  -11.0841    1.4930 H         1 <0>         0.0845
     38 H18         1.1121  -11.3140    2.8644 H         1 <0>         0.0903
     39 H19         0.0743   -4.4775    2.0064 H         1 <0>         0.4157
@<TRIPOS>BOND
     1    1    2 1
     2    1   21 1
     3    1   22 1
     4    1   23 1
     5    2    7 ar
     6    2    3 ar
     7    3    4 ar
     8    3   24 1
     9    4    5 ar
    10    4   25 1
    11    5    6 ar
    12    5    8 1
    13    6    7 ar
    14    6   26 1
    15    7   27 1
    16    8   12 1
    17    8    9 2
    18    9   10 1
    19    9   28 1
    20   10   11 1
    21   11   12 1
    22   11   13 2
    23   12   39 1
    24   13   14 1
    25   14   15 2
    26   15   20 1
    27   15   16 1
    28   16   17 1
    29   16   29 1
    30   16   30 1
    31   17   18 1
    32   17   31 1
    33   17   32 1
    34   18   19 1
    35   18   33 1
    36   18   34 1
    37   19   20 1
    38   19   35 1
    39   19   36 1
    40   20   37 1
    41   20   38 1
@<TRIPOS>MOLECULE
ZINC27529342
   41    43     0     0     0
SMALL
USER_CHARGES
N-[(4-methylcyclohexylidene)amino]-4-(4-nitrophenyl)thiazol-2-amine
@<TRIPOS>ATOM
      1 C1          6.1701   -7.4511    1.5807 C.3       1 <0>        -0.1510
      2 C2          5.2675   -6.6981    0.6013 C.3       1 <0>        -0.0958
      3 C3          3.8233   -7.1715    0.7740 C.3       1 <0>        -0.1140
      4 C4          2.9346   -6.4857   -0.2689 C.3       1 <0>        -0.0633
      5 C5          3.1187   -4.9891   -0.1481 C.2       1 <0>         0.1209
      6 N1          2.1086   -4.2102   -0.0384 N.2       1 <0>        -0.2429
      7 N2          2.2890   -2.8211   -0.0655 N.pl3     1 <0>        -0.5377
      8 C6          1.2141   -1.9786    0.1644 C.2       1 <0>         0.4052
      9 N3          1.1758   -0.6581    0.1822 N.2       1 <0>        -0.5695
     10 C7          0.0476   -0.0065    0.4222 C.2       1 <0>         0.1190
     11 C8         -1.0979   -0.7139    0.6608 C.2       1 <0>        -0.2275
     12 S1         -0.4896   -2.3891    0.5162 S.3       1 <0>         0.0526
     13 C9          0.0285    1.4763    0.4378 C.ar      1 <0>         0.0362
     14 C10        -1.1619    2.1580    0.6855 C.ar      1 <0>        -0.1068
     15 C11        -1.1724    3.5379    0.7046 C.ar      1 <0>        -0.0519
     16 C12        -0.0071    4.2445    0.4671 C.ar      1 <0>        -0.0441
     17 C13         1.1760    3.5733    0.2151 C.ar      1 <0>        -0.0556
     18 C14         1.1997    2.1936    0.1992 C.ar      1 <0>        -0.0888
     19 N4         -0.0263    5.7316    0.4824 N.pl3     1 <0>         0.0253
     20 O1          0.9983    6.3561    0.2732 O.2       1 <0>        -0.1588
     21 O2         -1.0667    6.3250    0.7040 O.3       1 <0>        -0.1581
     22 C15         4.5264   -4.4359   -0.1664 C.3       1 <0>        -0.1236
     23 C16         5.3577   -5.1966    0.8784 C.3       1 <0>        -0.1064
     24 H1          6.1059   -8.5311    1.3822 H         1 <0>         0.0589
     25 H2          5.8433   -7.2476    2.6111 H         1 <0>         0.0559
     26 H3          7.2100   -7.1159    1.4528 H         1 <0>         0.0571
     27 H4          5.5934   -6.8967   -0.4304 H         1 <0>         0.0767
     28 H5          3.7760   -8.2619    0.6369 H         1 <0>         0.0790
     29 H6          3.4710   -6.9133    1.7836 H         1 <0>         0.0685
     30 H7          3.2263   -6.8195   -1.2756 H         1 <0>         0.0964
     31 H8          1.8828   -6.7503   -0.0853 H         1 <0>         0.0891
     32 H9          3.2844   -2.3996   -0.2694 H         1 <0>         0.4262
     33 H10        -2.0950   -0.3589    0.8758 H         1 <0>         0.2011
     34 H11        -2.0732    1.6074    0.8662 H         1 <0>         0.1505
     35 H12        -2.0933    4.0672    0.9005 H         1 <0>         0.1576
     36 H13         2.0828    4.1301    0.0307 H         1 <0>         0.1555
     37 H14         2.1238    1.6706    0.0020 H         1 <0>         0.1552
     38 H15         4.9614   -4.5735   -1.1673 H         1 <0>         0.0965
     39 H16         4.5023   -3.3638    0.0787 H         1 <0>         0.0697
     40 H17         4.9667   -4.9853    1.8846 H         1 <0>         0.0670
     41 H18         6.4079   -4.8750    0.8182 H         1 <0>         0.0754
@<TRIPOS>BOND
     1    1    2 1
     2    1   24 1
     3    1   25 1
     4    1   26 1
     5    2   23 1
     6    2    3 1
     7    2   27 1
     8    3    4 1
     9    3   28 1
    10    3   29 1
    11    4    5 1
    12    4   30 1
    13    4   31 1
    14    5    6 2
    15    5   22 1
    16    6    7 1
    17    7    8 1
    18    7   32 1
    19    8   12 1
    20    8    9 2
    21    9   10 1
    22   10   11 2
    23   10   13 1
    24   11   12 1
    25   11   33 1
    26   13   18 ar
    27   13   14 ar
    28   14   15 ar
    29   14   34 1
    30   15   16 ar
    31   15   35 1
    32   16   17 ar
    33   16   19 1
    34   17   18 ar
    35   17   36 1
    36   18   37 1
    37   19   20 2
    38   19   21 1
    39   22   23 1
    40   22   38 1
    41   22   39 1
    42   23   40 1
    43   23   41 1
@<TRIPOS>MOLECULE
ZINC59193775
   39    41     0     0     0
SMALL
USER_CHARGES

@<TRIPOS>ATOM
      1 C1          0.9617   -0.2825    0.8767 C.ar      1 <0>        -0.1057
      2 C2          2.1504    0.4188    0.8881 C.ar      1 <0>        -0.0776
      3 C3          2.3810    1.4104   -0.0634 C.ar      1 <0>        -0.0060
      4 C4          1.4076    1.6889   -1.0233 C.ar      1 <0>         0.0018
      5 C5          0.2219    0.9813   -1.0256 C.ar      1 <0>        -0.1060
      6 C6         -0.0012   -0.0027   -0.0775 C.ar      1 <0>        -0.0205
      7 Cl1        -1.4938   -0.8892   -0.0860 Cl        1 <0>        -0.0549
      8 Cl2         1.6863    2.9230   -2.2120 Cl        1 <0>        -0.0398
      9 C7          3.6564    2.1673   -0.0554 C.2       1 <0>         0.1282
     10 C8          4.8492    1.5075    0.0430 C.2       1 <0>        -0.2291
     11 S1          5.9927    2.8816    0.0040 S.3       1 <0>         0.0446
     12 C9          4.7747    4.1820   -0.1381 C.2       1 <0>         0.3951
     13 N1          3.6500    3.4890   -0.1491 N.2       1 <0>        -0.5494
     14 N2          4.9609    5.5523   -0.2206 N.pl3     1 <0>        -0.5277
     15 N3          6.2561    6.0859   -0.1974 N.2       1 <0>        -0.2457
     16 C10         6.4254    7.3548   -0.1791 C.2       1 <0>         0.1172
     17 C11         5.2276    8.2899   -0.0432 C.3       1 <0>        -0.1215
     18 C12         5.5509    9.4581    0.8487 C.3       1 <0>        -0.1113
     19 C13         6.1355   10.6070    0.0152 C.3       1 <0>        -0.1202
     20 C14         7.5582   10.4215   -0.2829 C.3       1 <0>        -0.1223
     21 C15         7.8244    9.1835   -1.1505 C.3       1 <0>        -0.1162
     22 C16         7.8274    7.9465   -0.2867 C.3       1 <0>        -0.0562
     23 H1          0.7843   -1.0543    1.6111 H         1 <0>         0.1445
     24 H2          2.9006    0.1996    1.6334 H         1 <0>         0.1455
     25 H3         -0.5327    1.1960   -1.7677 H         1 <0>         0.1463
     26 H4          5.0465    0.4487    0.1229 H         1 <0>         0.1986
     27 H5          4.1945    6.1423   -0.2945 H         1 <0>         0.4055
     28 H6          4.9489    8.6597   -1.0300 H         1 <0>         0.0916
     29 H7          4.3890    7.7376    0.3807 H         1 <0>         0.0691
     30 H8          4.6416    9.7972    1.3449 H         1 <0>         0.0711
     31 H9          6.2780    9.1496    1.5999 H         1 <0>         0.0704
     32 H10         5.5854   10.6765   -0.9232 H         1 <0>         0.0621
     33 H11         6.0097   11.5399    0.5646 H         1 <0>         0.0651
     34 H12         7.9262   11.3039   -0.8063 H         1 <0>         0.0652
     35 H13         8.1038   10.3180    0.6550 H         1 <0>         0.0645
     36 H14         7.0448    9.0976   -1.9074 H         1 <0>         0.0681
     37 H15         8.7927    9.2862   -1.6403 H         1 <0>         0.0770
     38 H16         8.1849    8.2030    0.7105 H         1 <0>         0.0922
     39 H17         8.4956    7.2055   -0.7256 H         1 <0>         0.0863
@<TRIPOS>BOND
     1    1    6 ar
     2    1    2 ar
     3    1   23 1
     4    2    3 ar
     5    2   24 1
     6    3    4 ar
     7    3    9 1
     8    4    5 ar
     9    4    8 1
    10    5    6 ar
    11    5   25 1
    12    6    7 1
    13    9   13 1
    14    9   10 2
    15   10   11 1
    16   10   26 1
    17   11   12 1
    18   12   13 2
    19   12   14 1
    20   14   15 1
    21   14   27 1
    22   15   16 2
    23   16   22 1
    24   16   17 1
    25   17   18 1
    26   17   28 1
    27   17   29 1
    28   18   19 1
    29   18   30 1
    30   18   31 1
    31   19   20 1
    32   19   32 1
    33   19   33 1
    34   20   21 1
    35   20   34 1
    36   20   35 1
    37   21   22 1
    38   21   36 1
    39   21   37 1
    40   22   38 1
    41   22   39 1
@<TRIPOS>MOLECULE
ZINC00578549
   41    43     0     0     0
SMALL
USER_CHARGES
N-cycloheptylideneamino-4-(4-nitrophenyl)-thiazol-2-amine
@<TRIPOS>ATOM
      1 C1         -5.9573    2.1796   -0.6379 C.ar      1 <0>        -0.1065
      2 C2         -7.2289    1.6436   -0.6538 C.ar      1 <0>        -0.0519
      3 C3         -7.4143    0.2894   -0.4406 C.ar      1 <0>        -0.0437
      4 C4         -6.3272   -0.5360   -0.2152 C.ar      1 <0>        -0.0555
      5 C5         -5.0506   -0.0121   -0.2028 C.ar      1 <0>        -0.0887
      6 C6         -4.8576    1.3517   -0.4175 C.ar      1 <0>         0.0358
      7 C7         -3.4882    1.9207   -0.4054 C.2       1 <0>         0.1176
      8 C8         -3.2946    3.2578   -0.6156 C.2       1 <0>        -0.2252
      9 S1         -1.5144    3.3601   -0.4837 S.3       1 <0>         0.0630
     10 C9         -1.2131    1.6255   -0.1753 C.2       1 <0>         0.3984
     11 N1         -2.4410    1.1382   -0.1905 N.2       1 <0>        -0.5661
     12 N2         -0.0118    0.9678    0.0308 N.pl3     1 <0>        -0.5266
     13 N3          1.1926    1.6828   -0.0003 N.2       1 <0>        -0.2489
     14 C10         2.3083    1.0613    0.0877 C.2       1 <0>         0.1227
     15 C11         2.3422   -0.4639    0.0928 C.3       1 <0>        -0.1224
     16 C12         3.5108   -0.9787   -0.7107 C.3       1 <0>        -0.1116
     17 C13         4.7409   -1.1225    0.1963 C.3       1 <0>        -0.1207
     18 C14         5.4323    0.1506    0.4163 C.3       1 <0>        -0.1226
     19 C15         4.5634    1.1755    1.1584 C.3       1 <0>        -0.1166
     20 C16         3.6166    1.8386    0.1947 C.3       1 <0>        -0.0572
     21 N4         -8.7879   -0.2814   -0.4532 N.pl3     1 <0>         0.0252
     22 O1         -8.9538   -1.4733   -0.2654 O.2       1 <0>        -0.1586
     23 O2         -9.7466    0.4432   -0.6514 O.3       1 <0>        -0.1578
     24 H1         -5.8140    3.2376   -0.8004 H         1 <0>         0.1507
     25 H2         -8.0813    2.2833   -0.8288 H         1 <0>         0.1578
     26 H3         -6.4779   -1.5924   -0.0491 H         1 <0>         0.1556
     27 H4         -4.2026   -0.6574   -0.0268 H         1 <0>         0.1552
     28 H5         -4.0177    4.0376   -0.8039 H         1 <0>         0.2023
     29 H6         -0.0041    0.0114    0.1927 H         1 <0>         0.4063
     30 H7          2.4272   -0.8163    1.1208 H         1 <0>         0.0934
     31 H8          1.4163   -0.8437   -0.3391 H         1 <0>         0.0690
     32 H9          3.7351   -0.2799   -1.5166 H         1 <0>         0.0708
     33 H10         3.2589   -1.9503   -1.1357 H         1 <0>         0.0717
     34 H11         5.4359   -1.8260   -0.2622 H         1 <0>         0.0658
     35 H12         4.4217   -1.5208    1.1593 H         1 <0>         0.0625
     36 H13         5.7200    0.5664   -0.5493 H         1 <0>         0.0648
     37 H14         6.3331   -0.0363    1.0010 H         1 <0>         0.0659
     38 H15         5.2038    1.9306    1.6141 H         1 <0>         0.0779
     39 H16         3.9921    0.6697    1.9368 H         1 <0>         0.0681
     40 H17         4.0842    1.8889   -0.7887 H         1 <0>         0.0932
     41 H18         3.4044    2.8499    0.5417 H         1 <0>         0.0872
@<TRIPOS>BOND
     1    1    6 ar
     2    1    2 ar
     3    1   24 1
     4    2    3 ar
     5    2   25 1
     6    3    4 ar
     7    3   21 1
     8    4    5 ar
     9    4   26 1
    10    5    6 ar
    11    5   27 1
    12    6    7 1
    13    7   11 1
    14    7    8 2
    15    8    9 1
    16    8   28 1
    17    9   10 1
    18   10   11 2
    19   10   12 1
    20   12   13 1
    21   12   29 1
    22   13   14 2
    23   14   20 1
    24   14   15 1
    25   15   16 1
    26   15   30 1
    27   15   31 1
    28   16   17 1
    29   16   32 1
    30   16   33 1
    31   17   18 1
    32   17   34 1
    33   17   35 1
    34   18   19 1
    35   18   36 1
    36   18   37 1
    37   19   20 1
    38   19   38 1
    39   19   39 1
    40   20   40 1
    41   20   41 1
    42   21   22 2
    43   21   23 1
@<TRIPOS>MOLECULE
ZINC15224794
   36    38     0     0     0
SMALL
USER_CHARGES
N-(cyclohexylideneamino)-4-(2,4-dichlorophenyl)thiazol-2-amine
@<TRIPOS>ATOM
      1 C1         -1.1090   -2.0938   -0.6717 C.ar      1 <0>        -0.1063
      2 C2         -1.1348   -0.7139   -0.6523 C.ar      1 <0>        -0.0811
      3 C3          0.0406   -0.0004   -0.4266 C.ar      1 <0>        -0.0096
      4 C4          1.2362   -0.6859   -0.2097 C.ar      1 <0>         0.0007
      5 C5          1.2497   -2.0666   -0.2255 C.ar      1 <0>        -0.1081
      6 C6          0.0796   -2.7698   -0.4560 C.ar      1 <0>        -0.0213
      7 Cl1         0.1032   -4.5055   -0.4752 Cl        1 <0>        -0.0558
      8 Cl2         2.7038    0.1950    0.0800 Cl        1 <0>        -0.0236
      9 C7          0.0196    1.4826   -0.4109 C.2       1 <0>         0.1273
     10 C8         -1.1484    2.1579   -0.6280 C.2       1 <0>        -0.2327
     11 S1         -0.5837    3.8492   -0.4943 S.3       1 <0>         0.0418
     12 C9          1.1368    3.4856   -0.1741 C.2       1 <0>         0.3954
     13 N1          1.1342    2.1646   -0.1917 N.2       1 <0>        -0.5439
     14 N2          2.1927    4.3574    0.0360 N.pl3     1 <0>        -0.5280
     15 N3          1.9740    5.7411    0.0127 N.2       1 <0>        -0.2432
     16 C10         2.9643    6.5473    0.1038 C.2       1 <0>         0.1175
     17 C11         4.3867    6.0327    0.0959 C.3       1 <0>        -0.1246
     18 C12         5.1774    6.8156   -0.9639 C.3       1 <0>        -0.1110
     19 C13         5.0514    8.3142   -0.6848 C.3       1 <0>        -0.1248
     20 C14         3.5919    8.7479   -0.8306 C.3       1 <0>        -0.1173
     21 C15         2.7417    8.0383    0.2284 C.3       1 <0>        -0.0602
     22 H1         -2.0187   -2.6473   -0.8514 H         1 <0>         0.1443
     23 H2         -2.0637   -0.1880   -0.8163 H         1 <0>         0.1451
     24 H3          2.1744   -2.5987   -0.0574 H         1 <0>         0.1454
     25 H4         -2.1392    1.7757   -0.8248 H         1 <0>         0.1986
     26 H5          3.0835    4.0099    0.1994 H         1 <0>         0.4047
     27 H6          4.8360    6.1835    1.0775 H         1 <0>         0.0948
     28 H7          4.3907    4.9714   -0.1525 H         1 <0>         0.0685
     29 H8          4.7792    6.5955   -1.9544 H         1 <0>         0.0663
     30 H9          6.2270    6.5248   -0.9212 H         1 <0>         0.0735
     31 H10         5.6665    8.8678   -1.3942 H         1 <0>         0.0703
     32 H11         5.3917    8.5226    0.3295 H         1 <0>         0.0686
     33 H12         3.2312    8.4822   -1.8243 H         1 <0>         0.0680
     34 H13         3.5178    9.8267   -0.6933 H         1 <0>         0.0779
     35 H14         1.6883    8.2661    0.0651 H         1 <0>         0.0882
     36 H15         3.0382    8.3709    1.2231 H         1 <0>         0.0951
@<TRIPOS>BOND
     1    1    6 ar
     2    1    2 ar
     3    1   22 1
     4    2    3 ar
     5    2   23 1
     6    3    4 ar
     7    3    9 1
     8    4    5 ar
     9    4    8 1
    10    5    6 ar
    11    5   24 1
    12    6    7 1
    13    9   13 1
    14    9   10 2
    15   10   11 1
    16   10   25 1
    17   11   12 1
    18   12   13 2
    19   12   14 1
    20   14   15 1
    21   14   26 1
    22   15   16 2
    23   16   21 1
    24   16   17 1
    25   17   18 1
    26   17   27 1
    27   17   28 1
    28   18   19 1
    29   18   29 1
    30   18   30 1
    31   19   20 1
    32   19   31 1
    33   19   32 1
    34   20   21 1
    35   20   33 1
    36   20   34 1
    37   21   35 1
    38   21   36 1
@<TRIPOS>MOLECULE
ZINC59098959
   38    40     0     0     0
SMALL
USER_CHARGES

@<TRIPOS>ATOM
      1 C1         -0.0285    1.4062   -0.1892 C.ar      1 <0>        -0.0888
      2 C2          1.1581    2.1105   -0.2054 C.ar      1 <0>        -0.0557
      3 C3          2.3505    1.4561   -0.4575 C.ar      1 <0>        -0.0485
      4 C4          2.3610    0.0933   -0.6950 C.ar      1 <0>        -0.0523
      5 C5          1.1805   -0.6212   -0.6818 C.ar      1 <0>        -0.1065
      6 C6         -0.0240    0.0328   -0.4274 C.ar      1 <0>         0.0351
      7 C7         -1.2959   -0.7297   -0.4109 C.2       1 <0>         0.1179
      8 C8         -1.2952   -2.0778   -0.6390 C.2       1 <0>        -0.2253
      9 S1         -3.0410   -2.4387   -0.5004 S.3       1 <0>         0.0624
     10 C9         -3.5870   -0.7720   -0.1559 C.2       1 <0>         0.3985
     11 N1         -4.8688   -0.2991    0.0712 N.pl3     1 <0>        -0.5272
     12 N2         -5.9560   -1.1823    0.0461 N.2       1 <0>        -0.2464
     13 C10        -7.1495   -0.7316    0.1529 C.2       1 <0>         0.1231
     14 C11        -7.4193    0.7568    0.1537 C.3       1 <0>        -0.1253
     15 C12        -8.5028    1.0560   -0.8877 C.3       1 <0>        -0.1115
     16 C13        -9.7328    0.1923   -0.6039 C.3       1 <0>        -0.1252
     17 C14        -9.3765   -1.2865   -0.7649 C.3       1 <0>        -0.1180
     18 C15        -8.3265   -1.6739    0.2753 C.3       1 <0>        -0.0612
     19 N3         -2.4427   -0.1119   -0.1695 N.2       1 <0>        -0.5661
     20 N4          3.6262    2.2207   -0.4736 N.pl3     1 <0>         0.0309
     21 O1          3.6196    3.4119   -0.2667 O.2       1 <0>        -0.1580
     22 O2          4.6696    1.6512   -0.6936 O.3       1 <0>        -0.1567
     23 H1         -0.9584    1.9174    0.0121 H         1 <0>         0.1550
     24 H2          1.1558    3.1747   -0.0213 H         1 <0>         0.1554
     25 H3          3.2949   -0.4123   -0.8916 H         1 <0>         0.1575
     26 H4          1.1898   -1.6850   -0.8677 H         1 <0>         0.1505
     27 H5         -0.4686   -2.7413   -0.8464 H         1 <0>         0.2023
     28 H6         -7.7646    1.0658    1.1403 H         1 <0>         0.0958
     29 H7         -6.5066    1.2946   -0.1027 H         1 <0>         0.0692
     30 H8         -8.7779    2.1093   -0.8338 H         1 <0>         0.0748
     31 H9         -8.1219    0.8301   -1.8837 H         1 <0>         0.0662
     32 H10       -10.0755    0.3735    0.4149 H         1 <0>         0.0691
     33 H11       -10.5271    0.4518   -1.3038 H         1 <0>         0.0710
     34 H12       -10.2708   -1.8934   -0.6239 H         1 <0>         0.0790
     35 H13        -8.9749   -1.4569   -1.7638 H         1 <0>         0.0678
     36 H14        -7.9962   -2.6972    0.0969 H         1 <0>         0.0890
     37 H15        -8.7572   -1.5940    1.2734 H         1 <0>         0.0962
     38 H16        -5.0137    0.6437    0.2476 H         1 <0>         0.4060
@<TRIPOS>BOND
     1    1    6 ar
     2    1    2 ar
     3    1   23 1
     4    2    3 ar
     5    2   24 1
     6    3    4 ar
     7    3   20 1
     8    4    5 ar
     9    4   25 1
    10    5    6 ar
    11    5   26 1
    12    6    7 1
    13    7   19 1
    14    7    8 2
    15    8    9 1
    16    8   27 1
    17    9   10 1
    18   10   11 1
    19   10   19 2
    20   11   12 1
    21   11   38 1
    22   12   13 2
    23   13   18 1
    24   13   14 1
    25   14   15 1
    26   14   28 1
    27   14   29 1
    28   15   16 1
    29   15   30 1
    30   15   31 1
    31   16   17 1
    32   16   32 1
    33   16   33 1
    34   17   18 1
    35   17   34 1
    36   17   35 1
    37   18   36 1
    38   18   37 1
    39   20   21 2
    40   20   22 1
@<TRIPOS>MOLECULE
ZINC27529349
   39    41     0     0     0
SMALL
USER_CHARGES
4-(4-fluorophenyl)-N-[(4-methylcyclohexylidene)amino]thiazol-2-amine
@<TRIPOS>ATOM
      1 C1          3.3360    9.0541    1.6878 C.3       1 <0>        -0.1508
      2 C2          3.1319    7.9099    0.6928 C.3       1 <0>        -0.0956
      3 C3          4.2706    6.8993    0.8396 C.3       1 <0>        -0.1138
      4 C4          4.1168    5.8018   -0.2186 C.3       1 <0>        -0.0625
      5 C5          2.7329    5.2040   -0.0938 C.2       1 <0>         0.1161
      6 N1          2.5707    3.9374   -0.0019 N.2       1 <0>        -0.2400
      7 N2          1.2801    3.3929   -0.0250 N.pl3     1 <0>        -0.5388
      8 C6          1.0968    2.0360    0.1861 C.2       1 <0>         0.4024
      9 N3         -0.0237    1.3366    0.2040 N.2       1 <0>        -0.5693
     10 C7         -0.0147    0.0300    0.4231 C.2       1 <0>         0.1368
     11 C8          1.1759   -0.6066    0.6346 C.2       1 <0>        -0.2413
     12 S1          2.3139    0.7665    0.5057 S.3       1 <0>         0.0350
     13 C9         -1.2854   -0.7351    0.4381 C.ar      1 <0>        -0.0334
     14 C10        -1.2705   -2.1106    0.6629 C.ar      1 <0>        -0.0746
     15 C11        -2.4554   -2.8174    0.6813 C.ar      1 <0>        -0.1534
     16 C12        -3.6578   -2.1636    0.4664 C.ar      1 <0>         0.1026
     17 C13        -3.6769   -0.7974    0.2369 C.ar      1 <0>        -0.1568
     18 C14        -2.4974   -0.0816    0.2220 C.ar      1 <0>        -0.0573
     19 F1         -4.8151   -2.8604    0.4802 F         1 <0>        -0.1385
     20 C15         1.5450    6.1406   -0.0869 C.3       1 <0>        -0.1229
     21 C16         1.7925    7.2261    0.9722 C.3       1 <0>        -0.1062
     22 H1          4.2990    9.5466    1.4877 H         1 <0>         0.0585
     23 H2          3.3348    8.6537    2.7123 H         1 <0>         0.0558
     24 H3          2.5209    9.7847    1.5787 H         1 <0>         0.0568
     25 H4          3.1294    8.3070   -0.3330 H         1 <0>         0.0763
     26 H5          5.2347    7.4105    0.7011 H         1 <0>         0.0783
     27 H6          4.2348    6.4497    1.8429 H         1 <0>         0.0683
     28 H7          4.2484    6.2372   -1.2202 H         1 <0>         0.0953
     29 H8          4.8774    5.0244   -0.0539 H         1 <0>         0.0886
     30 H9          0.4122    4.0427   -0.2108 H         1 <0>         0.4249
     31 H10         1.3746   -1.6507    0.8262 H         1 <0>         0.1974
     32 H11        -0.3333   -2.6218    0.8264 H         1 <0>         0.1365
     33 H12        -2.4452   -3.8825    0.8597 H         1 <0>         0.1397
     34 H13        -4.6165   -0.2919    0.0692 H         1 <0>         0.1377
     35 H14        -2.5132    0.9833    0.0427 H         1 <0>         0.1415
     36 H15         1.4351    6.6007   -1.0800 H         1 <0>         0.0955
     37 H16         0.6338    5.5753    0.1582 H         1 <0>         0.0698
     38 H17         1.8168    6.7666    1.9714 H         1 <0>         0.0669
     39 H18         0.9846    7.9715    0.9309 H         1 <0>         0.0746
@<TRIPOS>BOND
     1    1    2 1
     2    1   22 1
     3    1   23 1
     4    1   24 1
     5    2   21 1
     6    2    3 1
     7    2   25 1
     8    3    4 1
     9    3   26 1
    10    3   27 1
    11    4    5 1
    12    4   28 1
    13    4   29 1
    14    5    6 2
    15    5   20 1
    16    6    7 1
    17    7    8 1
    18    7   30 1
    19    8   12 1
    20    8    9 2
    21    9   10 1
    22   10   11 2
    23   10   13 1
    24   11   12 1
    25   11   31 1
    26   13   18 ar
    27   13   14 ar
    28   14   15 ar
    29   14   32 1
    30   15   16 ar
    31   15   33 1
    32   16   17 ar
    33   16   19 1
    34   17   18 ar
    35   17   34 1
    36   18   35 1
    37   20   21 1
    38   20   36 1
    39   20   37 1
    40   21   38 1
    41   21   39 1
@<TRIPOS>MOLECULE
ZINC27529339
   42    44     0     0     0
SMALL
USER_CHARGES
N-[(4-methylcyclohexylidene)amino]-4-(p-tolyl)thiazol-2-amine
@<TRIPOS>ATOM
      1 C1         -0.0270    5.7512    0.4828 C.3       1 <0>        -0.1229
      2 C2         -0.0074    4.2444    0.4673 C.ar      1 <0>        -0.0719
      3 C3          1.1757    3.5733    0.2153 C.ar      1 <0>        -0.1122
      4 C4          1.1995    2.1936    0.1994 C.ar      1 <0>        -0.1069
      5 C5          0.0284    1.4762    0.4380 C.ar      1 <0>        -0.0497
      6 C6         -1.1620    2.1578    0.6857 C.ar      1 <0>        -0.0860
      7 C7         -1.1727    3.5377    0.7048 C.ar      1 <0>        -0.1141
      8 C8          0.0476   -0.0067    0.4223 C.2       1 <0>         0.1387
      9 C9         -1.0974   -0.7137    0.6608 C.2       1 <0>        -0.2184
     10 S1         -0.4895   -2.3890    0.5152 S.3       1 <0>        -0.0026
     11 C10         1.2144   -1.9785    0.1639 C.2       1 <0>         0.3859
     12 N1          1.1762   -0.6582    0.1823 N.pl3     1 <0>        -0.5922
     13 N2          2.2895   -2.8212   -0.0665 N.2       1 <0>        -0.4211
     14 N3          2.1091   -4.2103   -0.0399 N.2       1 <0>        -0.3526
     15 C11         3.1190   -4.9893   -0.1499 C.2       1 <0>         0.1644
     16 C12         4.5268   -4.4361   -0.1683 C.3       1 <0>        -0.1202
     17 C13         5.3582   -5.1973    0.8761 C.3       1 <0>        -0.1066
     18 C14         5.2679   -6.6987    0.5985 C.3       1 <0>        -0.0953
     19 C15         3.8237   -7.1721    0.7712 C.3       1 <0>        -0.1101
     20 C16         2.9349   -6.4858   -0.2713 C.3       1 <0>        -0.0695
     21 C17         6.1706   -7.4521    1.5775 C.3       1 <0>        -0.1494
     22 H1          0.9834    6.1332    0.2751 H         1 <0>         0.0683
     23 H2         -0.3561    6.1034    1.4715 H         1 <0>         0.0745
     24 H3         -0.7226    6.1168   -0.2869 H         1 <0>         0.0746
     25 H4          2.0825    4.1302    0.0309 H         1 <0>         0.1294
     26 H5          2.1236    1.6706    0.0021 H         1 <0>         0.1200
     27 H6         -2.0732    1.6071    0.8667 H         1 <0>         0.1326
     28 H7         -2.0935    4.0669    0.9007 H         1 <0>         0.1312
     29 H8         -2.0944   -0.3587    0.8761 H         1 <0>         0.2035
     30 H9          4.9616   -4.5733   -1.1694 H         1 <0>         0.0778
     31 H10         4.5028   -3.3641    0.0772 H         1 <0>         0.0845
     32 H11         6.4080   -4.8743    0.8153 H         1 <0>         0.0665
     33 H12         4.9669   -4.9849    1.8820 H         1 <0>         0.0610
     34 H13         5.5936   -6.8969   -0.4333 H         1 <0>         0.0736
     35 H14         3.7763   -8.2624    0.6336 H         1 <0>         0.0730
     36 H15         3.4716   -6.9143    1.7809 H         1 <0>         0.0653
     37 H16         1.8802   -6.7412   -0.0915 H         1 <0>         0.0826
     38 H17         3.2235   -6.8100   -1.2821 H         1 <0>         0.0880
     39 H18         6.1063   -8.5321    1.3786 H         1 <0>         0.0563
     40 H19         5.8440   -7.2489    2.6080 H         1 <0>         0.0543
     41 H20         7.2105   -7.1169    1.4496 H         1 <0>         0.0550
     42 H21         2.1045   -0.0991   -0.0064 H         1 <0>         0.4408
@<TRIPOS>BOND
     1    1    2 1
     2    1   22 1
     3    1   23 1
     4    1   24 1
     5    2    7 ar
     6    2    3 ar
     7    3    4 ar
     8    3   25 1
     9    4    5 ar
    10    4   26 1
    11    5    6 ar
    12    5    8 1
    13    6    7 ar
    14    6   27 1
    15    7   28 1
    16    8   12 1
    17    8    9 2
    18    9   10 1
    19    9   29 1
    20   10   11 1
    21   11   12 1
    22   11   13 2
    23   12   42 1
    24   13   14 1
    25   14   15 2
    26   15   20 1
    27   15   16 1
    28   16   17 1
    29   16   30 1
    30   16   31 1
    31   17   18 1
    32   17   32 1
    33   17   33 1
    34   18   19 1
    35   18   21 1
    36   18   34 1
    37   19   20 1
    38   19   35 1
    39   19   36 1
    40   20   37 1
    41   20   38 1
    42   21   39 1
    43   21   40 1
    44   21   41 1
@<TRIPOS>MOLECULE
ZINC01482197
   22    23     0     0     0
SMALL
USER_CHARGES

@<TRIPOS>ATOM
      1 C1         -0.0167    1.3781    0.0096 C.ar      1 <0>        -0.1011
      2 C2          1.1709    2.0855    0.0021 C.ar      1 <0>        -0.1134
      3 C3          2.3773    1.4107   -0.0130 C.ar      1 <0>        -0.1012
      4 C4          2.3960    0.0285   -0.0201 C.ar      1 <0>        -0.0921
      5 C5          1.2084   -0.6789   -0.0117 C.ar      1 <0>        -0.1139
      6 C6          0.0021   -0.0041    0.0020 C.ar      1 <0>        -0.1129
      7 C7          3.7112   -0.7071   -0.0376 C.3       1 <0>        -0.0736
      8 H1          4.5500   -0.1604   -0.4683 H         1 <0>         0.1380
      9 C8          3.6707   -2.2216   -0.2511 C.3       1 <0>        -0.1501
     10 C9          4.0079   -1.6516    1.1290 C.3       1 <0>        -0.0771
     11 H2          3.2518   -1.7409    1.9091 H         1 <0>         0.1803
     12 N1          5.4015   -1.7526    1.5824 N.4       1 <0>        -0.6064
     13 H3         -0.9591    1.9053    0.0259 H         1 <0>         0.1315
     14 H4          1.1563    3.1654    0.0076 H         1 <0>         0.1317
     15 H5          3.3051    1.9634   -0.0196 H         1 <0>         0.1258
     16 H6          1.2231   -1.7588   -0.0176 H         1 <0>         0.1249
     17 H7         -0.9258   -0.5567    0.0082 H         1 <0>         0.1311
     18 H8          2.6928   -2.6859   -0.3790 H         1 <0>         0.1371
     19 H9          4.4831   -2.6713   -0.8220 H         1 <0>         0.1286
     20 H10         5.7231   -0.8455    1.8854 H         1 <0>         0.4379
     21 H11         5.4587   -2.4037    2.3511 H         1 <0>         0.4416
     22 H12         5.9798   -2.0779    0.8223 H         1 <0>         0.4334
@<TRIPOS>BOND
     1    1    6 ar
     2    1    2 ar
     3    1   13 1
     4    2    3 ar
     5    2   14 1
     6    3    4 ar
     7    3   15 1
     8    4    5 ar
     9    4    7 1
    10    5    6 ar
    11    5   16 1
    12    6   17 1
    13    7    8 1
    14    7   10 1
    15    7    9 1
    16    9   10 1
    17    9   18 1
    18    9   19 1
    19   10   11 1
    20   10   12 1
    21   12   20 1
    22   12   21 1
    23   12   22 1
@<TRIPOS>MOLECULE
ZINC18847037
   33    35     0     0     0
SMALL
USER_CHARGES

@<TRIPOS>ATOM
      1 C1         -0.0173    1.4248    0.0099 C.3       1 <0>         0.0257
      2 O1          0.0021   -0.0041    0.0020 O.3       1 <0>        -0.3163
      3 C2          0.6259   -0.6184    1.0416 C.ar      1 <0>         0.1346
      4 C3          1.2017    0.1413    2.0505 C.ar      1 <0>        -0.2081
      5 C4          1.8351   -0.4792    3.1070 C.ar      1 <0>        -0.0652
      6 C5          1.8965   -1.8707    3.1609 C.ar      1 <0>        -0.0695
      7 C6          1.3173   -2.6308    2.1463 C.ar      1 <0>        -0.0470
      8 C7          0.6807   -2.0044    1.0951 C.ar      1 <0>        -0.1503
      9 C8          2.5773   -2.5411    4.2955 C.2       1 <0>        -0.2301
     10 C9          2.0898   -2.4416    5.5593 C.2       1 <0>         0.1222
     11 O2          2.6644   -3.0420    6.6041 O.3       1 <0>        -0.2153
     12 C10         3.9203   -3.5262    6.5411 C.ar      1 <0>         0.1758
     13 C11         4.6109   -3.8503    7.7004 C.ar      1 <0>        -0.1825
     14 C12         5.8988   -4.3556    7.6239 C.ar      1 <0>         0.1909
     15 C13         6.5160   -4.5473    6.3921 C.ar      1 <0>        -0.2036
     16 C14         5.8471   -4.2284    5.2249 C.ar      1 <0>         0.2177
     17 C15         4.5483   -3.7100    5.2959 C.ar      1 <0>        -0.2618
     18 C16         3.7998   -3.3401    4.0813 C.2       1 <0>         0.4315
     19 O3          4.1694   -3.6700    2.9673 O.2       1 <0>        -0.4364
     20 O4          6.4443   -4.4158    4.0209 O.3       1 <0>        -0.4758
     21 O5          6.5661   -4.6669    8.7643 O.3       1 <0>        -0.4882
     22 H1          1.0053    1.8021    0.0021 H         1 <0>         0.0568
     23 H2         -0.5445    1.7859   -0.8732 H         1 <0>         0.1019
     24 H3         -0.5275    1.7763    0.9067 H         1 <0>         0.0568
     25 H4          1.1541    1.2194    2.0079 H         1 <0>         0.1317
     26 H5          2.2833    0.1125    3.8915 H         1 <0>         0.1264
     27 H6          1.3632   -3.7091    2.1852 H         1 <0>         0.1304
     28 H7          0.2278   -2.5928    0.3108 H         1 <0>         0.1347
     29 H8          1.2005   -1.8518    5.7260 H         1 <0>         0.2010
     30 H9          4.1439   -3.7080    8.6637 H         1 <0>         0.1535
     31 H10         7.5190   -4.9453    6.3475 H         1 <0>         0.1500
     32 H11         6.2888   -5.2893    3.6365 H         1 <0>         0.4049
     33 H12         6.4352   -5.5781    9.0604 H         1 <0>         0.4038
@<TRIPOS>BOND
     1    1    2 1
     2    1   22 1
     3    1   23 1
     4    1   24 1
     5    2    3 1
     6    3    8 ar
     7    3    4 ar
     8    4    5 ar
     9    4   25 1
    10    5    6 ar
    11    5   26 1
    12    6    7 ar
    13    6    9 1
    14    7    8 ar
    15    7   27 1
    16    8   28 1
    17    9   18 1
    18    9   10 2
    19   10   11 1
    20   10   29 1
    21   11   12 1
    22   12   17 ar
    23   12   13 ar
    24   13   14 ar
    25   13   30 1
    26   14   15 ar
    27   14   21 1
    28   15   16 ar
    29   15   31 1
    30   16   17 ar
    31   16   20 1
    32   17   18 1
    33   18   19 2
    34   20   32 1
    35   21   33 1
@<TRIPOS>MOLECULE
ZINC00119304
   28    29     0     0     0
SMALL
USER_CHARGES

@<TRIPOS>ATOM
      1 C1         -0.0167    1.3781    0.0096 C.ar      1 <0>        -0.1103
      2 C2          1.1709    2.0855    0.0021 C.ar      1 <0>        -0.1233
      3 C3          2.3773    1.4107   -0.0130 C.ar      1 <0>        -0.0960
      4 C4          2.3960    0.0285   -0.0201 C.ar      1 <0>        -0.0967
      5 C5          1.2084   -0.6789   -0.0117 C.ar      1 <0>        -0.0960
      6 C6          0.0021   -0.0041    0.0020 C.ar      1 <0>        -0.1233
      7 C7          3.7112   -0.7071   -0.0376 C.3       1 <0>         0.1038
      8 O1          4.1410   -0.9464    1.3041 O.3       1 <0>        -0.3122
      9 C8          5.3195   -1.6054    1.4667 C.ar      1 <0>         0.0715
     10 C9          6.0477   -2.0072    0.3567 C.ar      1 <0>        -0.1590
     11 C10         7.2446   -2.6765    0.5209 C.ar      1 <0>        -0.1598
     12 C11         7.7188   -2.9472    1.7976 C.ar      1 <0>         0.1811
     13 C12         6.9891   -2.5446    2.9083 C.ar      1 <0>        -0.1585
     14 C13         5.7952   -1.8704    2.7423 C.ar      1 <0>        -0.1008
     15 N1          8.9312   -3.6258    1.9649 N.pl3     1 <0>        -0.8823
     16 H1         -0.9591    1.9053    0.0259 H         1 <0>         0.1244
     17 H2          1.1563    3.1654    0.0076 H         1 <0>         0.1254
     18 H3          3.3051    1.9634   -0.0196 H         1 <0>         0.1241
     19 H4          1.2231   -1.7588   -0.0176 H         1 <0>         0.1241
     20 H5         -0.9258   -0.5567    0.0082 H         1 <0>         0.1254
     21 H6          3.5884   -1.6586   -0.5549 H         1 <0>         0.0687
     22 H7          4.4573   -0.1052   -0.5563 H         1 <0>         0.0687
     23 H8          5.6786   -1.7969   -0.6362 H         1 <0>         0.1265
     24 H9          7.8114   -2.9896   -0.3435 H         1 <0>         0.1224
     25 H10         7.3572   -2.7548    3.9016 H         1 <0>         0.1270
     26 H11         5.2298   -1.5530    3.6060 H         1 <0>         0.1301
     27 H12         9.4406   -3.9072    1.1888 H         1 <0>         0.3972
     28 H13         9.2622   -3.8148    2.8569 H         1 <0>         0.3976
@<TRIPOS>BOND
     1    1    6 ar
     2    1    2 ar
     3    1   16 1
     4    2    3 ar
     5    2   17 1
     6    3    4 ar
     7    3   18 1
     8    4    5 ar
     9    4    7 1
    10    5    6 ar
    11    5   19 1
    12    6   20 1
    13    7    8 1
    14    7   21 1
    15    7   22 1
    16    8    9 1
    17    9   14 ar
    18    9   10 ar
    19   10   11 ar
    20   10   23 1
    21   11   12 ar
    22   11   24 1
    23   12   13 ar
    24   12   15 1
    25   13   14 ar
    26   13   25 1
    27   14   26 1
    28   15   27 1
    29   15   28 1
@<TRIPOS>MOLECULE
ZINC03637289
   31    33     0     0     0
SMALL
USER_CHARGES

@<TRIPOS>ATOM
      1 C1         -0.3517    1.0701    0.5327 C.ar      1 <0>        -0.1638
      2 C2          0.7371    1.8975    0.3093 C.ar      1 <0>        -0.0513
      3 C3          1.9865    1.3665    0.0639 C.ar      1 <0>        -0.1624
      4 C4          2.1689   -0.0120    0.0402 C.ar      1 <0>         0.1792
      5 C5          1.0674   -0.8445    0.2769 C.ar      1 <0>        -0.2422
      6 C6         -0.1921   -0.2999    0.5170 C.ar      1 <0>        -0.0288
      7 C7          1.2629   -2.3166    0.2850 C.2       1 <0>         0.4413
      8 O1          0.3861   -3.0937    0.6174 O.2       1 <0>        -0.4381
      9 C8          2.6073   -2.7656   -0.1431 C.2       1 <0>        -0.2479
     10 C9          2.8109   -3.9234   -0.8109 C.2       1 <0>         0.0014
     11 C10         4.1789   -4.3993   -1.0559 C.ar      1 <0>        -0.0924
     12 C11         5.1872   -4.1540   -0.1156 C.ar      1 <0>        -0.0896
     13 C12         6.4671   -4.6025   -0.3499 C.ar      1 <0>        -0.1457
     14 C13         6.7599   -5.2981   -1.5177 C.ar      1 <0>         0.1231
     15 C14         5.7626   -5.5440   -2.4549 C.ar      1 <0>        -0.1454
     16 C15         4.4780   -5.1050   -2.2279 C.ar      1 <0>        -0.0732
     17 O2          8.0237   -5.7382   -1.7439 O.3       1 <0>        -0.4977
     18 C16         3.7404   -1.8235    0.2274 C.3       1 <0>         0.1049
     19 O3          3.3992   -0.5115   -0.2201 O.3       1 <0>        -0.3058
     20 H1         -1.3248    1.4981    0.7234 H         1 <0>         0.1336
     21 H2          0.6062    2.9694    0.3272 H         1 <0>         0.1361
     22 H3          2.8257    2.0235   -0.1109 H         1 <0>         0.1392
     23 H4         -1.0393   -0.9470    0.6898 H         1 <0>         0.1371
     24 H5          1.9677   -4.4984   -1.1642 H         1 <0>         0.1401
     25 H6          4.9609   -3.6135    0.7916 H         1 <0>         0.1344
     26 H7          7.2456   -4.4135    0.3745 H         1 <0>         0.1362
     27 H8          5.9954   -6.0845   -3.3605 H         1 <0>         0.1357
     28 H9          3.7031   -5.3007   -2.9542 H         1 <0>         0.1349
     29 H10         8.1974   -6.6268   -1.4044 H         1 <0>         0.3959
     30 H11         3.8753   -1.8189    1.3090 H         1 <0>         0.0810
     31 H12         4.6613   -2.1485   -0.2566 H         1 <0>         0.1303
@<TRIPOS>BOND
     1    1    6 ar
     2    1    2 ar
     3    1   20 1
     4    2    3 ar
     5    2   21 1
     6    3    4 ar
     7    3   22 1
     8    4   19 1
     9    4    5 ar
    10    5    6 ar
    11    5    7 1
    12    6   23 1
    13    7    8 2
    14    7    9 1
    15    9   10 2
    16    9   18 1
    17   10   11 1
    18   10   24 1
    19   11   16 ar
    20   11   12 ar
    21   12   13 ar
    22   12   25 1
    23   13   14 ar
    24   13   26 1
    25   14   15 ar
    26   14   17 1
    27   15   16 ar
    28   15   27 1
    29   16   28 1
    30   17   29 1
    31   18   19 1
    32   18   30 1
    33   18   31 1
@<TRIPOS>MOLECULE
ZINC37868688
   41    43     0     0     0
SMALL
USER_CHARGES

@<TRIPOS>ATOM
      1 C1         -0.0178    1.4608    0.0101 C.3       1 <0>         0.0745
      2 N1          0.0021   -0.0041    0.0020 N.pl3     1 <0>        -0.4070
      3 C2          0.0083   -0.8243   -1.1163 C.2       1 <0>        -0.1628
      4 C3          0.0290   -2.1309   -0.6416 C.2       1 <0>         0.3490
      5 N2          0.0345   -2.0710    0.6916 N.2       1 <0>        -0.5313
      6 C4          0.0238   -0.8154    1.0833 C.2       1 <0>         0.4815
      7 O1          0.0302   -0.4000    2.3696 O.3       1 <0>        -0.2864
      8 C5          0.0541   -1.4121    3.3781 C.3       1 <0>         0.0850
      9 C6          0.0581   -0.7552    4.7599 C.3       1 <0>        -0.0790
     10 C7          0.0833   -1.8226    5.8235 C.ar      1 <0>        -0.0883
     11 C8         -1.1021   -2.3330    6.3186 C.ar      1 <0>        -0.1109
     12 C9         -1.0790   -3.3121    7.2942 C.ar      1 <0>        -0.1179
     13 C10         0.1295   -3.7810    7.7743 C.ar      1 <0>        -0.1168
     14 C11         1.3149   -3.2712    7.2785 C.ar      1 <0>        -0.1179
     15 C12         1.2918   -2.2952    6.2998 C.ar      1 <0>        -0.1109
     16 N3          0.0400   -3.1731   -1.5543 N.am      1 <0>        -0.5091
     17 C13         0.0306   -2.9129   -2.8753 C.2       1 <0>         0.7086
     18 O2          0.0404   -3.8398   -3.6624 O.2       1 <0>        -0.5317
     19 N4          0.0101   -1.6538   -3.3455 N.am      1 <0>        -0.5513
     20 C14        -0.0012   -0.5984   -2.5052 C.2       1 <0>         0.5972
     21 O3         -0.0194    0.5382   -2.9442 O.2       1 <0>        -0.5129
     22 C15         0.0007   -1.4241   -4.7924 C.3       1 <0>         0.0831
     23 C16         0.0623   -4.5596   -1.0816 C.3       1 <0>         0.0883
     24 H1          1.0048    1.8381    0.0023 H         1 <0>         0.0862
     25 H2         -0.5450    1.8219   -0.8730 H         1 <0>         0.1029
     26 H3         -0.5280    1.8123    0.9069 H         1 <0>         0.0969
     27 H4         -0.8280   -2.0446    3.2790 H         1 <0>         0.0787
     28 H5          0.9517   -2.0195    3.2620 H         1 <0>         0.0786
     29 H6          0.9402   -0.1226    4.8590 H         1 <0>         0.0869
     30 H7         -0.8395   -0.1477    4.8760 H         1 <0>         0.0869
     31 H8         -2.0463   -1.9666    5.9435 H         1 <0>         0.1237
     32 H9         -2.0052   -3.7104    7.6816 H         1 <0>         0.1244
     33 H10         0.1475   -4.5455    8.5370 H         1 <0>         0.1235
     34 H11         2.2590   -3.6374    7.6538 H         1 <0>         0.1244
     35 H12         2.2179   -1.8996    5.9098 H         1 <0>         0.1237
     36 H13         0.0125   -2.3820   -5.3124 H         1 <0>         0.1056
     37 H14        -0.8987   -0.8728   -5.0668 H         1 <0>         0.0818
     38 H15         0.8811   -0.8467   -5.0743 H         1 <0>         0.0819
     39 H16        -0.9597   -4.9184   -0.9597 H         1 <0>         0.0743
     40 H17         0.5819   -5.1831   -1.8091 H         1 <0>         0.0949
     41 H18         0.5813   -4.6088   -0.1243 H         1 <0>         0.0918
@<TRIPOS>BOND
     1    1    2 1
     2    1   24 1
     3    1   25 1
     4    1   26 1
     5    2    6 1
     6    2    3 1
     7    3   20 1
     8    3    4 2
     9    4    5 1
    10    4   16 1
    11    5    6 2
    12    6    7 1
    13    7    8 1
    14    8    9 1
    15    8   27 1
    16    8   28 1
    17    9   10 1
    18    9   29 1
    19    9   30 1
    20   10   15 ar
    21   10   11 ar
    22   11   12 ar
    23   11   31 1
    24   12   13 ar
    25   12   32 1
    26   13   14 ar
    27   13   33 1
    28   14   15 ar
    29   14   34 1
    30   15   35 1
    31   16   17 am
    32   16   23 1
    33   17   18 2
    34   17   19 am
    35   19   20 am
    36   19   22 1
    37   20   21 2
    38   22   36 1
    39   22   37 1
    40   22   38 1
    41   23   39 1
    42   23   40 1
    43   23   41 1
@<TRIPOS>MOLECULE
ZINC00194080
   28    30     0     0     0
SMALL
USER_CHARGES

@<TRIPOS>ATOM
      1 C1         -0.0184    1.5028    0.0103 C.3       1 <0>        -0.1942
      2 C2          0.0021   -0.0041    0.0020 C.2       1 <0>         0.4177
      3 O1          1.0612   -0.5965   -0.0113 O.2       1 <0>        -0.4590
      4 C3         -1.2546   -0.7526    0.0100 C.2       1 <0>        -0.3152
      5 C4         -1.2718   -2.1505    0.0085 C.2       1 <0>         0.0832
      6 C5         -2.5217   -2.7958   -0.0147 C.ar      1 <0>        -0.1778
      7 C6         -2.6247   -4.2413    0.2016 C.ar      1 <0>         0.0091
      8 C7         -1.4938   -5.0318    0.4176 C.ar      1 <0>        -0.1243
      9 C8         -1.6361   -6.3752    0.6154 C.ar      1 <0>        -0.0832
     10 C9         -2.8945   -6.9678    0.6051 C.ar      1 <0>        -0.1220
     11 C10        -4.0178   -6.2241    0.3966 C.ar      1 <0>        -0.0832
     12 C11        -3.9066   -4.8400    0.1903 C.ar      1 <0>        -0.0837
     13 C12        -5.0461   -4.0396   -0.0265 C.ar      1 <0>        -0.0183
     14 C13        -4.9359   -2.7032   -0.2354 C.ar      1 <0>        -0.1466
     15 C14        -3.6952   -2.0599   -0.2419 C.ar      1 <0>         0.1921
     16 O2         -3.6216   -0.7308   -0.4911 O.3       1 <0>        -0.2686
     17 C15        -2.5598   -0.0663    0.0261 C.2       1 <0>         0.5253
     18 O3         -2.6764    1.0556    0.4829 O.2       1 <0>        -0.4293
     19 H1          1.0042    1.8801    0.0026 H         1 <0>         0.0859
     20 H2         -0.5455    1.8639   -0.8728 H         1 <0>         0.0919
     21 H3         -0.5286    1.8543    0.9071 H         1 <0>         0.1036
     22 H4         -0.3531   -2.7180    0.0243 H         1 <0>         0.1621
     23 H5         -0.5117   -4.5827    0.4276 H         1 <0>         0.1334
     24 H6         -0.7607   -6.9852    0.7824 H         1 <0>         0.1329
     25 H7         -2.9829   -8.0324    0.7640 H         1 <0>         0.1317
     26 H8         -4.9885   -6.6975    0.3902 H         1 <0>         0.1365
     27 H9         -6.0241   -4.4978   -0.0269 H         1 <0>         0.1496
     28 H10        -5.8306   -2.1215   -0.4013 H         1 <0>         0.1504
@<TRIPOS>BOND
     1    1    2 1
     2    1   19 1
     3    1   20 1
     4    1   21 1
     5    2    3 2
     6    2    4 1
     7    4   17 1
     8    4    5 2
     9    5    6 1
    10    5   22 1
    11    6   15 ar
    12    6    7 ar
    13    7   12 ar
    14    7    8 ar
    15    8    9 ar
    16    8   23 1
    17    9   10 ar
    18    9   24 1
    19   10   11 ar
    20   10   25 1
    21   11   12 ar
    22   11   26 1
    23   12   13 ar
    24   13   14 ar
    25   13   27 1
    26   14   15 ar
    27   14   28 1
    28   15   16 1
    29   16   17 1
    30   17   18 2
@<TRIPOS>MOLECULE
ZINC00014479
   25    26     0     0     0
SMALL
USER_CHARGES

@<TRIPOS>ATOM
      1 C1          0.1373    1.3229   -1.0128 C.ar      1 <0>        -0.1615
      2 C2          1.2729    2.0488   -0.7118 C.ar      1 <0>        -0.1419
      3 C3          2.4307    1.3943   -0.3172 C.ar      1 <0>         0.0608
      4 C4          2.4487    0.0102   -0.2245 C.ar      1 <0>        -0.0920
      5 C5          1.3139   -0.7171   -0.5252 C.ar      1 <0>        -0.1617
      6 C6          0.1545   -0.0626   -0.9199 C.ar      1 <0>         0.1893
      7 N1         -0.9958   -0.7988   -1.2242 N.pl3     1 <0>        -0.8803
      8 O1          3.5486    2.1098   -0.0214 O.3       1 <0>        -0.2618
      9 C7          3.4836    3.4638   -0.1181 C.ar      1 <0>         0.0945
     10 C8          3.1054    4.2214    0.9811 C.ar      1 <0>        -0.1153
     11 C9          3.0405    5.5976    0.8809 C.ar      1 <0>        -0.0964
     12 C10         3.3523    6.2206   -0.3146 C.ar      1 <0>        -0.0365
     13 C11         3.7293    5.4669   -1.4121 C.ar      1 <0>        -0.0965
     14 C12         3.8010    4.0909   -1.3144 C.ar      1 <0>        -0.1153
     15 Cl1         3.2700    7.9503   -0.4379 Cl        1 <0>        -0.0616
     16 H1         -0.7651    1.8328   -1.3160 H         1 <0>         0.1241
     17 H2          1.2597    3.1263   -0.7840 H         1 <0>         0.1261
     18 H3          3.3505   -0.4986    0.0824 H         1 <0>         0.1331
     19 H4          1.3283   -1.7946   -0.4537 H         1 <0>         0.1296
     20 H5         -1.8055   -0.3415   -1.5002 H         1 <0>         0.3982
     21 H6         -0.9836   -1.7666   -1.1592 H         1 <0>         0.3986
     22 H7          2.8615    3.7355    1.9143 H         1 <0>         0.1414
     23 H8          2.7457    6.1876    1.7361 H         1 <0>         0.1418
     24 H9          3.9720    5.9551   -2.3444 H         1 <0>         0.1419
     25 H10         4.1000    3.5033   -2.1698 H         1 <0>         0.1414
@<TRIPOS>BOND
     1    1    6 ar
     2    1    2 ar
     3    1   16 1
     4    2    3 ar
     5    2   17 1
     6    3    4 ar
     7    3    8 1
     8    4    5 ar
     9    4   18 1
    10    5    6 ar
    11    5   19 1
    12    6    7 1
    13    7   20 1
    14    7   21 1
    15    8    9 1
    16    9   14 ar
    17    9   10 ar
    18   10   11 ar
    19   10   22 1
    20   11   12 ar
    21   11   23 1
    22   12   13 ar
    23   12   15 1
    24   13   14 ar
    25   13   24 1
    26   14   25 1
@<TRIPOS>MOLECULE
ZINC00093738
   35    37     0     0     0
SMALL
USER_CHARGES

@<TRIPOS>ATOM
      1 C1         -0.0217    1.4659    0.0142 C.3       1 <0>         0.0726
      2 N1         -0.0343    0.0010    0.0036 N.pl3     1 <0>        -0.4030
      3 C2         -0.0676   -0.8169   -1.1157 C.2       1 <0>        -0.1602
      4 C3         -0.0676   -2.1247   -0.6434 C.2       1 <0>         0.3478
      5 N2         -0.0357   -2.0678    0.6894 N.2       1 <0>        -0.5188
      6 C4         -0.0099   -0.8129    1.0833 C.2       1 <0>         0.4694
      7 O1          0.0317   -0.4003    2.3699 O.3       1 <0>        -0.2232
      8 C5         -0.0505   -1.3430    3.3453 C.ar      1 <0>         0.0833
      9 C6         -1.2392   -1.5251    4.0374 C.ar      1 <0>        -0.1054
     10 C7         -1.3201   -2.4840    5.0284 C.ar      1 <0>        -0.1080
     11 C8         -0.2177   -3.2618    5.3311 C.ar      1 <0>        -0.1037
     12 C9          0.9680   -3.0824    4.6429 C.ar      1 <0>        -0.1071
     13 C10         1.0524   -2.1291    3.6468 C.ar      1 <0>        -0.1016
     14 N3         -0.0973   -3.1651   -1.5578 N.am      1 <0>        -0.5087
     15 C11        -0.1251   -2.9021   -2.8780 C.2       1 <0>         0.7086
     16 O2         -0.1505   -3.8275   -3.6666 O.2       1 <0>        -0.5311
     17 N4         -0.1258   -1.6420   -3.3458 N.am      1 <0>        -0.5510
     18 C12        -0.0984   -0.5882   -2.5038 C.2       1 <0>         0.5976
     19 O3         -0.0994    0.5494   -2.9407 O.2       1 <0>        -0.5118
     20 C13        -0.1567   -1.4093   -4.7919 C.3       1 <0>         0.0829
     21 C14        -0.0979   -4.5527   -1.0878 C.3       1 <0>         0.0885
     22 H1          1.0086    1.8205   -0.0125 H         1 <0>         0.0877
     23 H2         -0.5575    1.8402   -0.8581 H         1 <0>         0.1047
     24 H3         -0.5068    1.8269    0.9211 H         1 <0>         0.0975
     25 H4         -2.1003   -0.9173    3.8018 H         1 <0>         0.1323
     26 H5         -2.2451   -2.6261    5.5674 H         1 <0>         0.1345
     27 H6         -0.2829   -4.0105    6.1068 H         1 <0>         0.1315
     28 H7          1.8276   -3.6912    4.8812 H         1 <0>         0.1334
     29 H8          1.9773   -1.9926    3.1062 H         1 <0>         0.1302
     30 H9         -0.1759   -2.3662   -5.3135 H         1 <0>         0.1058
     31 H10        -1.0483   -0.8374   -5.0490 H         1 <0>         0.0821
     32 H11         0.7312   -0.8513   -5.0892 H         1 <0>         0.0821
     33 H12        -1.1254   -4.8883   -0.9476 H         1 <0>         0.0743
     34 H13         0.3938   -5.1865   -1.8258 H         1 <0>         0.0951
     35 H14         0.4374   -4.6156   -0.1404 H         1 <0>         0.0919
@<TRIPOS>BOND
     1    1    2 1
     2    1   22 1
     3    1   23 1
     4    1   24 1
     5    2    6 1
     6    2    3 1
     7    3   18 1
     8    3    4 2
     9    4    5 1
    10    4   14 1
    11    5    6 2
    12    6    7 1
    13    7    8 1
    14    8   13 ar
    15    8    9 ar
    16    9   10 ar
    17    9   25 1
    18   10   11 ar
    19   10   26 1
    20   11   12 ar
    21   11   27 1
    22   12   13 ar
    23   12   28 1
    24   13   29 1
    25   14   15 am
    26   14   21 1
    27   15   16 2
    28   15   17 am
    29   17   18 am
    30   17   20 1
    31   18   19 2
    32   20   30 1
    33   20   31 1
    34   20   32 1
    35   21   33 1
    36   21   34 1
    37   21   35 1
@<TRIPOS>MOLECULE
ZINC22222987
   30    32     0     0     0
SMALL
USER_CHARGES
5-benzyloxyindoline-2,3-dione
@<TRIPOS>ATOM
      1 C1         -0.0167    1.3781    0.0096 C.ar      1 <0>        -0.1072
      2 C2          1.1709    2.0855    0.0021 C.ar      1 <0>        -0.1230
      3 C3          2.3773    1.4107   -0.0141 C.ar      1 <0>        -0.0945
      4 C4          2.3960    0.0285   -0.0217 C.ar      1 <0>        -0.1010
      5 C5          1.2084   -0.6789   -0.0136 C.ar      1 <0>        -0.0944
      6 C6          0.0021   -0.0041    0.0020 C.ar      1 <0>        -0.1230
      7 C7          3.7112   -0.7071   -0.0392 C.3       1 <0>         0.0990
      8 O1          4.1132   -0.9320   -1.3920 O.3       1 <0>        -0.3032
      9 C8          5.2879   -1.5891   -1.5858 C.ar      1 <0>         0.0984
     10 C9          6.0407   -2.0036   -0.4946 C.ar      1 <0>        -0.1356
     11 C10         7.2341   -2.6762   -0.6770 C.ar      1 <0>        -0.1077
     12 C11         7.7016   -2.9381   -1.9581 C.ar      1 <0>         0.1505
     13 C12         6.9436   -2.5147   -3.0611 C.ar      1 <0>        -0.2024
     14 C13         5.7372   -1.8404   -2.8712 C.ar      1 <0>        -0.0372
     15 C14         7.6848   -2.9297   -4.2668 C.2       1 <0>         0.3907
     16 O2          7.3705   -2.7540   -5.4257 O.2       1 <0>        -0.3634
     17 C15         8.9125   -3.6161   -3.7460 C.2       1 <0>         0.5023
     18 O3          9.7957   -4.1106   -4.4146 O.2       1 <0>        -0.4512
     19 N1          8.8556   -3.5837   -2.4034 N.am      1 <0>        -0.6614
     20 H1         -0.9592    1.9054    0.0170 H         1 <0>         0.1254
     21 H2          1.1563    3.1654    0.0081 H         1 <0>         0.1263
     22 H3          3.3051    1.9634   -0.0207 H         1 <0>         0.1248
     23 H4          1.2231   -1.7587   -0.0199 H         1 <0>         0.1248
     24 H5         -0.9258   -0.5567    0.0079 H         1 <0>         0.1263
     25 H6          4.4749   -0.1051    0.4750 H         1 <0>         0.0753
     26 H7          3.5981   -1.6729    0.4751 H         1 <0>         0.0754
     27 H8          5.6881   -1.8016    0.5060 H         1 <0>         0.1440
     28 H9          7.8073   -2.9964    0.1805 H         1 <0>         0.1414
     29 H10         5.1569   -1.5158   -3.7222 H         1 <0>         0.1473
     30 H11         9.5760   -3.9863   -1.6761 H         1 <0>         0.4530
@<TRIPOS>BOND
     1    1    6 ar
     2    1    2 ar
     3    1   20 1
     4    2    3 ar
     5    2   21 1
     6    3    4 ar
     7    3   22 1
     8    4    5 ar
     9    4    7 1
    10    5    6 ar
    11    5   23 1
    12    6   24 1
    13    7    8 1
    14    7   25 1
    15    7   26 1
    16    8    9 1
    17    9   14 ar
    18    9   10 ar
    19   10   11 ar
    20   10   27 1
    21   11   12 ar
    22   11   28 1
    23   12   19 1
    24   12   13 ar
    25   13   14 ar
    26   13   15 1
    27   14   29 1
    28   15   16 2
    29   15   17 1
    30   17   18 2
    31   17   19 am
    32   19   30 1
@<TRIPOS>MOLECULE
ZINC31866879
   30    32     0     0     0
SMALL
USER_CHARGES
6-benzyloxyindoline-2,3-dione
@<TRIPOS>ATOM
      1 C1         -5.7364   -2.5566    0.0452 C.ar      1 <0>        -0.1062
      2 C2         -5.1801   -2.1371    1.2392 C.ar      1 <0>        -0.1229
      3 C3         -4.0911   -1.2857    1.2329 C.ar      1 <0>        -0.0939
      4 C4         -3.5586   -0.8534    0.0328 C.ar      1 <0>        -0.1028
      5 C5         -4.1184   -1.2684   -1.1611 C.ar      1 <0>        -0.0939
      6 C6         -5.2038   -2.1243   -1.1550 C.ar      1 <0>        -0.1229
      7 C7         -2.3716    0.0751    0.0260 C.3       1 <0>         0.0971
      8 O1         -1.1665   -0.6926    0.0099 O.3       1 <0>        -0.2977
      9 C8          0.0021   -0.0041    0.0020 C.ar      1 <0>         0.2107
     10 C9         -0.0168    1.3877    0.0097 C.ar      1 <0>        -0.2483
     11 C10         1.1554    2.0905    0.0023 C.ar      1 <0>         0.0396
     12 C11         2.3754    1.4099   -0.0135 C.ar      1 <0>        -0.2862
     13 C12         2.4059    0.0035   -0.0213 C.ar      1 <0>         0.2330
     14 C13         1.2084   -0.6941   -0.0132 C.ar      1 <0>        -0.1902
     15 N1          3.7280   -0.4348   -0.0368 N.am      1 <0>        -0.6630
     16 C14         4.5868    0.5994   -0.0397 C.2       1 <0>         0.5020
     17 O2          5.7976    0.5256   -0.0525 O.2       1 <0>        -0.4479
     18 C15         3.7760    1.8606   -0.0249 C.2       1 <0>         0.3932
     19 O3          4.1856    3.0036   -0.0228 O.2       1 <0>        -0.3756
     20 H1         -6.5868   -3.2223    0.0501 H         1 <0>         0.1258
     21 H2         -5.5962   -2.4748    2.1769 H         1 <0>         0.1268
     22 H3         -3.6565   -0.9580    2.1658 H         1 <0>         0.1253
     23 H4         -3.7050   -0.9271   -2.0988 H         1 <0>         0.1253
     24 H5         -5.6382   -2.4523   -2.0878 H         1 <0>         0.1268
     25 H6         -2.4112    0.7143   -0.8684 H         1 <0>         0.0804
     26 H7         -2.3933    0.7046    0.9278 H         1 <0>         0.0805
     27 H8         -0.9601    1.9136    0.0170 H         1 <0>         0.1430
     28 H9          1.1387    3.1704    0.0078 H         1 <0>         0.1419
     29 H10         1.2127   -1.7741   -0.0190 H         1 <0>         0.1459
     30 H11         3.9502   -1.5121   -0.0449 H         1 <0>         0.4543
@<TRIPOS>BOND
     1    1    6 ar
     2    1    2 ar
     3    1   20 1
     4    2    3 ar
     5    2   21 1
     6    3    4 ar
     7    3   22 1
     8    4    5 ar
     9    4    7 1
    10    5    6 ar
    11    5   23 1
    12    6   24 1
    13    7    8 1
    14    7   25 1
    15    7   26 1
    16    8    9 1
    17    9   14 ar
    18    9   10 ar
    19   10   11 ar
    20   10   27 1
    21   11   12 ar
    22   11   28 1
    23   12   18 1
    24   12   13 ar
    25   13   14 ar
    26   13   15 1
    27   14   29 1
    28   15   16 am
    29   15   30 1
    30   16   17 2
    31   16   18 1
    32   18   19 2
@<TRIPOS>MOLECULE
ZINC22210961
   27    29     0     0     0
SMALL
USER_CHARGES
5-phenoxyindoline-2,3-dione
@<TRIPOS>ATOM
      1 C1          1.1780    1.7895   -0.0698 C.ar      1 <0>        -0.1180
      2 C2          0.3768    1.8347   -1.1959 C.ar      1 <0>        -0.1031
      3 C3         -0.8265    2.5121   -1.1622 C.ar      1 <0>        -0.1406
      4 C4         -1.2359    3.1391    0.0061 C.ar      1 <0>         0.0802
      5 C5         -0.4300    3.0922    1.1348 C.ar      1 <0>        -0.1196
      6 C6          0.7747    2.4175    1.0942 C.ar      1 <0>        -0.1023
      7 O1         -2.4213    3.8021    0.0433 O.3       1 <0>        -0.2511
      8 C7         -3.5643    3.0722   -0.0543 C.ar      1 <0>         0.0883
      9 C8         -3.5041    1.6843   -0.0652 C.ar      1 <0>        -0.1192
     10 C9         -4.6582    0.9301   -0.1587 C.ar      1 <0>        -0.1104
     11 C10        -5.8959    1.5527   -0.2535 C.ar      1 <0>         0.1588
     12 C11        -5.9568    2.9553   -0.2484 C.ar      1 <0>        -0.2059
     13 C12        -4.7891    3.7117   -0.1487 C.ar      1 <0>        -0.0305
     14 C13        -7.3825    3.3162   -0.3602 C.2       1 <0>         0.3917
     15 O2         -7.8637    4.4297   -0.3914 O.2       1 <0>        -0.3624
     16 C14        -8.1068    2.0045   -0.4276 C.2       1 <0>         0.5028
     17 O3         -9.3064    1.8519   -0.5246 O.2       1 <0>        -0.4494
     18 N1         -7.1846    1.0289   -0.3606 N.am      1 <0>        -0.6614
     19 H1          2.1205    1.2631   -0.0996 H         1 <0>         0.1299
     20 H2          0.6943    1.3436   -2.1039 H         1 <0>         0.1316
     21 H3         -1.4500    2.5506   -2.0432 H         1 <0>         0.1315
     22 H4         -0.7442    3.5831    2.0440 H         1 <0>         0.1344
     23 H5          1.4023    2.3807    1.9724 H         1 <0>         0.1334
     24 H6         -2.5463    1.1900    0.0038 H         1 <0>         0.1450
     25 H7         -4.5972   -0.1481   -0.1615 H         1 <0>         0.1428
     26 H8         -4.8398    4.7905   -0.1454 H         1 <0>         0.1496
     27 H9         -7.3356   -0.0605   -0.3805 H         1 <0>         0.4538
@<TRIPOS>BOND
     1    1    6 ar
     2    1    2 ar
     3    1   19 1
     4    2    3 ar
     5    2   20 1
     6    3    4 ar
     7    3   21 1
     8    4    5 ar
     9    4    7 1
    10    5    6 ar
    11    5   22 1
    12    6   23 1
    13    7    8 1
    14    8   13 ar
    15    8    9 ar
    16    9   10 ar
    17    9   24 1
    18   10   11 ar
    19   10   25 1
    20   11   18 1
    21   11   12 ar
    22   12   13 ar
    23   12   14 1
    24   13   26 1
    25   14   15 2
    26   14   16 1
    27   16   17 2
    28   16   18 am
    29   18   27 1
@<TRIPOS>MOLECULE
ZINC16948211
   26    28     0     0     0
SMALL
USER_CHARGES
5-phenylindoline-2,3-dione
@<TRIPOS>ATOM
      1 C1          1.0826    6.3526    0.0238 C.ar      1 <0>        -0.1162
      2 C2         -0.1015    5.6375    0.0313 C.ar      1 <0>        -0.1156
      3 C3         -0.0773    4.2576    0.0244 C.ar      1 <0>        -0.1109
      4 C4          1.1430    3.5848    0.0097 C.ar      1 <0>        -0.0458
      5 C5          2.3328    4.3103    0.0080 C.ar      1 <0>        -0.1117
      6 C6          2.2967    5.6900    0.0088 C.ar      1 <0>        -0.1145
      7 C7          1.1754    2.1015    0.0021 C.ar      1 <0>        -0.0762
      8 C8         -0.0166    1.3754    0.0096 C.ar      1 <0>        -0.0361
      9 C9          0.0021   -0.0041    0.0020 C.ar      1 <0>        -0.1430
     10 C10         1.2108   -0.6906   -0.0132 C.ar      1 <0>         0.1914
     11 C11         2.4126    0.0377   -0.0207 C.ar      1 <0>        -0.2338
     12 C12         2.3941    1.4303   -0.0135 C.ar      1 <0>         0.0027
     13 C13         3.5055   -0.9531   -0.0365 C.2       1 <0>         0.3901
     14 O1          4.6997   -0.7380   -0.0467 O.2       1 <0>        -0.3651
     15 C14         2.8154   -2.2848   -0.0370 C.2       1 <0>         0.4948
     16 O2          3.3543   -3.3715   -0.0480 O.2       1 <0>        -0.4439
     17 N1          1.4913   -2.0547   -0.0232 N.am      1 <0>        -0.6502
     18 H1          1.0590    7.4324    0.0293 H         1 <0>         0.1243
     19 H2         -1.0466    6.1600    0.0430 H         1 <0>         0.1261
     20 H3         -1.0023    3.7003    0.0299 H         1 <0>         0.1264
     21 H4          3.2813    3.7939    0.0012 H         1 <0>         0.1263
     22 H5          3.2181    6.2533    0.0027 H         1 <0>         0.1263
     23 H6         -0.9618    1.8979    0.0169 H         1 <0>         0.1437
     24 H7         -0.9276   -0.5537    0.0076 H         1 <0>         0.1415
     25 H8          3.3203    1.9858   -0.0196 H         1 <0>         0.1426
     26 H9          0.8160   -2.7510   -0.0200 H         1 <0>         0.4269
@<TRIPOS>BOND
     1    1    6 ar
     2    1    2 ar
     3    1   18 1
     4    2    3 ar
     5    2   19 1
     6    3    4 ar
     7    3   20 1
     8    4    5 ar
     9    4    7 1
    10    5    6 ar
    11    5   21 1
    12    6   22 1
    13    7   12 ar
    14    7    8 ar
    15    8    9 ar
    16    8   23 1
    17    9   10 ar
    18    9   24 1
    19   10   17 1
    20   10   11 ar
    21   11   12 ar
    22   11   13 1
    23   12   25 1
    24   13   14 2
    25   13   15 1
    26   15   16 2
    27   15   17 am
    28   17   26 1
@<TRIPOS>MOLECULE
ZINC05162286
   28    29     0     0     0
SMALL
USER_CHARGES

@<TRIPOS>ATOM
      1 C1         -0.0167    1.3796    0.0096 C.ar      1 <0>        -0.1194
      2 C2          1.1681    2.0945    0.0022 C.ar      1 <0>        -0.1193
      3 C3          2.3774    1.4315   -0.0134 C.ar      1 <0>        -0.1078
      4 C4          2.4042    0.0344   -0.0212 C.ar      1 <0>        -0.0581
      5 C5          1.2038   -0.6807   -0.0131 C.ar      1 <0>        -0.1139
      6 C6          0.0021   -0.0041    0.0020 C.ar      1 <0>        -0.1188
      7 C7          3.6925   -0.6814   -0.0384 C.2       1 <0>        -0.1038
      8 C8          3.7146   -2.0236   -0.0458 C.2       1 <0>        -0.1073
      9 C9          5.0030   -2.7395   -0.0629 C.ar      1 <0>        -0.0105
     10 C10         6.2035   -2.0234   -0.0657 C.ar      1 <0>        -0.1706
     11 C11         7.4076   -2.6962   -0.0818 C.ar      1 <0>        -0.0700
     12 C12         7.4327   -4.0786   -0.0953 C.ar      1 <0>        -0.1973
     13 C13         6.2448   -4.8008   -0.0926 C.ar      1 <0>         0.2158
     14 C14         5.0289   -4.1352   -0.0707 C.ar      1 <0>        -0.1872
     15 N1          6.2765   -6.1973   -0.1067 N.pl3     1 <0>        -0.8799
     16 H1         -0.9606    1.9041    0.0260 H         1 <0>         0.1224
     17 H2          1.1458    3.1742    0.0082 H         1 <0>         0.1241
     18 H3          3.3013    1.9907   -0.0200 H         1 <0>         0.1247
     19 H4          1.2169   -1.7606   -0.0194 H         1 <0>         0.1245
     20 H5         -0.9266   -0.5554    0.0079 H         1 <0>         0.1235
     21 H6          4.6188   -0.1261   -0.0449 H         1 <0>         0.1252
     22 H7          2.7883   -2.5789   -0.0392 H         1 <0>         0.1217
     23 H8          6.1883   -0.9435   -0.0556 H         1 <0>         0.1215
     24 H9          8.3341   -2.1412   -0.0843 H         1 <0>         0.1230
     25 H10         8.3788   -4.5994   -0.1082 H         1 <0>         0.1194
     26 H11         4.1050   -4.6945   -0.0638 H         1 <0>         0.1211
     27 H12         7.1273   -6.6631   -0.1184 H         1 <0>         0.3986
     28 H13         5.4477   -6.7012   -0.1049 H         1 <0>         0.3982
@<TRIPOS>BOND
     1    1    6 ar
     2    1    2 ar
     3    1   16 1
     4    2    3 ar
     5    2   17 1
     6    3    4 ar
     7    3   18 1
     8    4    5 ar
     9    4    7 1
    10    5    6 ar
    11    5   19 1
    12    6   20 1
    13    7    8 2
    14    7   21 1
    15    8    9 1
    16    8   22 1
    17    9   14 ar
    18    9   10 ar
    19   10   11 ar
    20   10   23 1
    21   11   12 ar
    22   11   24 1
    23   12   13 ar
    24   12   25 1
    25   13   14 ar
    26   13   15 1
    27   14   26 1
    28   15   27 1
    29   15   28 1
@<TRIPOS>MOLECULE
ZINC00057876
   30    32     0     0     0
SMALL
USER_CHARGES
2-(p-tolyl)chromen-4-one
@<TRIPOS>ATOM
      1 C1          7.4288    7.8878   -0.0250 C.3       1 <0>        -0.1226
      2 C2          6.0954    7.1858   -0.0161 C.ar      1 <0>        -0.0571
      3 C3          6.0451    5.8030   -0.0231 C.ar      1 <0>        -0.1256
      4 C4          4.8281    5.1538   -0.0154 C.ar      1 <0>        -0.0731
      5 C5          3.6448    5.8956   -0.0006 C.ar      1 <0>        -0.0830
      6 C6          3.7030    7.2910    0.0006 C.ar      1 <0>        -0.0739
      7 C7          4.9270    7.9270   -0.0014 C.ar      1 <0>        -0.1234
      8 C8          2.3382    5.2077    0.0077 C.2       1 <0>         0.2150
      9 C9          1.2041    5.9587    0.0217 C.2       1 <0>        -0.3208
     10 C10        -0.0566    5.3170    0.0298 C.2       1 <0>         0.4217
     11 O1         -1.0944    5.9578    0.0427 O.2       1 <0>        -0.4701
     12 C11        -0.0660    3.8405    0.0224 C.ar      1 <0>        -0.2228
     13 C12        -1.2611    3.1232    0.0305 C.ar      1 <0>        -0.0310
     14 C13        -1.2273    1.7458    0.0174 C.ar      1 <0>        -0.1477
     15 C14        -0.0126    1.0758    0.0080 C.ar      1 <0>        -0.0568
     16 C15         1.1760    1.7742    0.0004 C.ar      1 <0>        -0.1401
     17 C16         1.1637    3.1638    0.0075 C.ar      1 <0>         0.1453
     18 O2          2.3157    3.8662    0.0007 O.3       1 <0>        -0.2208
     19 H1          7.7405    8.0626   -1.0547 H         1 <0>         0.0774
     20 H2          7.3407    8.8418    0.4949 H         1 <0>         0.0716
     21 H3          8.1698    7.2668    0.4785 H         1 <0>         0.0714
     22 H4          6.9609    5.2306   -0.0349 H         1 <0>         0.1320
     23 H5          4.7903    4.0745   -0.0213 H         1 <0>         0.1351
     24 H6          2.7918    7.8708    0.0072 H         1 <0>         0.1364
     25 H7          4.9735    9.0060    0.0041 H         1 <0>         0.1341
     26 H8          1.2657    7.0369    0.0262 H         1 <0>         0.1618
     27 H9         -2.2074    3.6436    0.0420 H         1 <0>         0.1430
     28 H10        -2.1505    1.1853    0.0187 H         1 <0>         0.1376
     29 H11         0.0021   -0.0041    0.0020 H         1 <0>         0.1422
     30 H12         2.1157    1.2420   -0.0115 H         1 <0>         0.1441
@<TRIPOS>BOND
     1    1    2 1
     2    1   19 1
     3    1   20 1
     4    1   21 1
     5    2    7 ar
     6    2    3 ar
     7    3    4 ar
     8    3   22 1
     9    4    5 ar
    10    4   23 1
    11    5    6 ar
    12    5    8 1
    13    6    7 ar
    14    6   24 1
    15    7   25 1
    16    8   18 1
    17    8    9 2
    18    9   10 1
    19    9   26 1
    20   10   11 2
    21   10   12 1
    22   12   17 ar
    23   12   13 ar
    24   13   14 ar
    25   13   27 1
    26   14   15 ar
    27   14   28 1
    28   15   16 ar
    29   15   29 1
    30   16   17 ar
    31   16   30 1
    32   17   18 1
@<TRIPOS>MOLECULE
ZINC03801006
   39    41     0     0     0
SMALL
USER_CHARGES
3-[5-(4-benzyloxyphenyl)-2-oxo-1,3,4-oxadiazol-3-yl]propanenitrile
@<TRIPOS>ATOM
      1 C1         -0.0167    1.3781    0.0096 C.ar      1 <0>        -0.1068
      2 C2          1.1709    2.0855    0.0021 C.ar      1 <0>        -0.1229
      3 C3          2.3773    1.4107   -0.0141 C.ar      1 <0>        -0.0942
      4 C4          2.3960    0.0285   -0.0217 C.ar      1 <0>        -0.1023
      5 C5          1.2084   -0.6789   -0.0136 C.ar      1 <0>        -0.0942
      6 C6          0.0021   -0.0041    0.0020 C.ar      1 <0>        -0.1229
      7 C7          3.7112   -0.7071   -0.0392 C.3       1 <0>         0.0993
      8 O1          4.1132   -0.9320   -1.3920 O.3       1 <0>        -0.3017
      9 C8          5.2867   -1.5884   -1.5856 C.ar      1 <0>         0.1665
     10 C9          6.0375   -2.0018   -0.4930 C.ar      1 <0>        -0.2147
     11 C10         7.2264   -2.6724   -0.6854 C.ar      1 <0>        -0.0176
     12 C11         7.6805   -2.9264   -1.9806 C.ar      1 <0>        -0.0849
     13 C12         6.9256   -2.5046   -3.0764 C.ar      1 <0>        -0.0297
     14 C13         5.7352   -1.8393   -2.8758 C.ar      1 <0>        -0.1533
     15 C14         8.9581   -3.6399   -2.1914 C.2       1 <0>         0.3074
     16 N1          9.7428   -4.0783   -1.2497 N.2       1 <0>        -0.2654
     17 N2         10.8443   -4.6934   -1.8627 N.am      1 <0>        -0.4574
     18 C15        10.6587   -4.5896   -3.1958 C.2       1 <0>         0.6085
     19 O2         11.4057   -5.0067   -4.0612 O.2       1 <0>        -0.4756
     20 O3          9.4957   -3.9468   -3.3922 O.3       1 <0>        -0.2651
     21 C16        11.9784   -5.3277   -1.1861 C.3       1 <0>         0.1633
     22 C17        13.0771   -4.2895   -0.9501 C.3       1 <0>        -0.0452
     23 C18        14.2166   -4.9268   -0.2702 C.1       1 <0>         0.2054
     24 N3         15.0959   -5.4186    0.2545 N.1       1 <0>        -0.4149
     25 H1         -0.9592    1.9054    0.0170 H         1 <0>         0.1255
     26 H2          1.1563    3.1654    0.0081 H         1 <0>         0.1266
     27 H3          3.3051    1.9634   -0.0207 H         1 <0>         0.1250
     28 H4          1.2231   -1.7587   -0.0199 H         1 <0>         0.1249
     29 H5         -0.9258   -0.5567    0.0079 H         1 <0>         0.1266
     30 H6          4.4679   -0.1107    0.4703 H         1 <0>         0.0768
     31 H7          3.5990   -1.6641    0.4703 H         1 <0>         0.0768
     32 H8          5.6875   -1.8012    0.5088 H         1 <0>         0.1412
     33 H9          7.8079   -2.9969    0.1648 H         1 <0>         0.1439
     34 H10         7.2739   -2.6991   -4.0800 H         1 <0>         0.1448
     35 H11         5.1503   -1.5129   -3.7231 H         1 <0>         0.1442
     36 H12        11.6500   -5.7331   -0.2290 H         1 <0>         0.1130
     37 H13        12.3678   -6.1339   -1.8077 H         1 <0>         0.1124
     38 H14        13.4055   -3.8841   -1.9071 H         1 <0>         0.1167
     39 H15        12.6877   -3.4832   -0.3284 H         1 <0>         0.1203
@<TRIPOS>BOND
     1    1    6 ar
     2    1    2 ar
     3    1   25 1
     4    2    3 ar
     5    2   26 1
     6    3    4 ar
     7    3   27 1
     8    4    5 ar
     9    4    7 1
    10    5    6 ar
    11    5   28 1
    12    6   29 1
    13    7    8 1
    14    7   30 1
    15    7   31 1
    16    8    9 1
    17    9   14 ar
    18    9   10 ar
    19   10   11 ar
    20   10   32 1
    21   11   12 ar
    22   11   33 1
    23   12   13 ar
    24   12   15 1
    25   13   14 ar
    26   13   34 1
    27   14   35 1
    28   15   20 1
    29   15   16 2
    30   16   17 1
    31   17   18 am
    32   17   21 1
    33   18   19 2
    34   18   20 1
    35   21   22 1
    36   21   36 1
    37   21   37 1
    38   22   23 1
    39   22   38 1
    40   22   39 1
    41   23   24 3
@<TRIPOS>MOLECULE
ZINC71318533
   24    26     0     0     0
SMALL
USER_CHARGES

@<TRIPOS>ATOM
      1 C1         -0.0165    1.3622    0.0095 C.ar      1 <0>        -0.1380
      2 C2          1.1687    2.0839    0.0021 C.ar      1 <0>        -0.0639
      3 C3          2.3871    1.4359   -0.0151 C.ar      1 <0>        -0.1302
      4 C4          2.4300    0.0492   -0.0243 C.ar      1 <0>         0.1356
      5 C5          1.2271   -0.6813   -0.0130 C.ar      1 <0>        -0.1518
      6 C6          0.0021   -0.0041    0.0020 C.ar      1 <0>        -0.0536
      7 C7          1.2770   -2.1451   -0.0136 C.2       1 <0>         0.0139
      8 C8          2.4926   -2.7376    0.2449 C.2       1 <0>        -0.1280
      9 C9          3.6386   -1.8449    0.4998 C.2       1 <0>         0.5225
     10 O1          4.5782   -2.2113    1.1809 O.2       1 <0>        -0.4246
     11 O2          3.6149   -0.6073   -0.0449 O.3       1 <0>        -0.2745
     12 C10         2.6425   -4.2055    0.2665 C.2       1 <0>        -0.1092
     13 C11         3.3760   -5.0113   -0.5654 C.2       1 <0>        -0.1272
     14 C12         3.3637   -6.3715   -0.3486 C.2       1 <0>        -0.1577
     15 C13         2.6287   -6.8715    0.6780 C.2       1 <0>        -0.1660
     16 S1          1.9222   -5.3936    1.3877 S.3       1 <0>         0.0648
     17 H1         -0.9615    1.8848    0.0259 H         1 <0>         0.1372
     18 H2          1.1374    3.1634    0.0094 H         1 <0>         0.1416
     19 H3          3.3041    2.0063   -0.0216 H         1 <0>         0.1454
     20 H4         -0.9244   -0.5591    0.0080 H         1 <0>         0.1408
     21 H5          0.3949   -2.7365   -0.2096 H         1 <0>         0.1585
     22 H6          3.9519   -4.5879   -1.3751 H         1 <0>         0.1350
     23 H7          3.9311   -7.0321   -0.9874 H         1 <0>         0.1392
     24 H8          2.5063   -7.8988    0.9879 H         1 <0>         0.1902
@<TRIPOS>BOND
     1    1    6 ar
     2    1    2 ar
     3    1   17 1
     4    2    3 ar
     5    2   18 1
     6    3    4 ar
     7    3   19 1
     8    4   11 1
     9    4    5 ar
    10    5    6 ar
    11    5    7 1
    12    6   20 1
    13    7    8 2
    14    7   21 1
    15    8    9 1
    16    8   12 1
    17    9   10 2
    18    9   11 1
    19   12   16 1
    20   12   13 2
    21   13   14 1
    22   13   22 1
    23   14   15 2
    24   14   23 1
    25   15   16 1
    26   15   24 1
@<TRIPOS>MOLECULE
ZINC00084787
   30    32     0     0     0
SMALL
USER_CHARGES
3-benzylidenechroman-4-one
@<TRIPOS>ATOM
      1 C1          1.1592    3.1513    0.1979 C.ar      1 <0>        -0.1042
      2 C2          1.0537    2.0336   -0.6118 C.ar      1 <0>        -0.1191
      3 C3         -0.1311    1.3311   -0.6725 C.ar      1 <0>        -0.0920
      4 C4         -1.2299    1.7538    0.0829 C.ar      1 <0>        -0.0827
      5 C5         -1.1136    2.8813    0.9028 C.ar      1 <0>        -0.1076
      6 C6          0.0781    3.5729    0.9524 C.ar      1 <0>        -0.1196
      7 C7         -2.4998    1.0136    0.0194 C.2       1 <0>         0.0002
      8 C8         -3.6723    1.6737    0.1304 C.2       1 <0>        -0.2477
      9 C9         -3.7600    3.1905    0.1518 C.3       1 <0>         0.1052
     10 O1         -4.7231    3.5947   -0.8283 O.3       1 <0>        -0.3069
     11 C10        -5.9275    2.9802   -0.8779 C.ar      1 <0>         0.1796
     12 C11        -7.0057    3.6451   -1.4522 C.ar      1 <0>        -0.1629
     13 C12        -8.2357    3.0267   -1.5406 C.ar      1 <0>        -0.0514
     14 C13        -8.4164    1.7393   -1.0607 C.ar      1 <0>        -0.1641
     15 C14        -7.3622    1.0644   -0.4816 C.ar      1 <0>        -0.0288
     16 C15        -6.1176    1.6830   -0.3841 C.ar      1 <0>        -0.2424
     17 C16        -4.9749    0.9757    0.2473 C.2       1 <0>         0.4411
     18 O2         -5.0982   -0.0935    0.8167 O.2       1 <0>        -0.4381
     19 H1          2.0899    3.6975    0.2408 H         1 <0>         0.1273
     20 H2          1.9017    1.7111   -1.1978 H         1 <0>         0.1289
     21 H3         -0.2119    0.4594   -1.3049 H         1 <0>         0.1293
     22 H4         -1.9563    3.2117    1.4919 H         1 <0>         0.1292
     23 H5          0.1682    4.4462    1.5815 H         1 <0>         0.1295
     24 H6         -2.4941   -0.0579   -0.1161 H         1 <0>         0.1391
     25 H7         -4.0741    3.5262    1.1401 H         1 <0>         0.0814
     26 H8         -2.7868    3.6180   -0.0896 H         1 <0>         0.1311
     27 H9         -6.8795    4.6489   -1.8302 H         1 <0>         0.1391
     28 H10        -9.0667    3.5516   -1.9883 H         1 <0>         0.1360
     29 H11        -9.3832    1.2645   -1.1398 H         1 <0>         0.1335
     30 H12        -7.5007    0.0613   -0.1059 H         1 <0>         0.1370
@<TRIPOS>BOND
     1    1    6 ar
     2    1    2 ar
     3    1   19 1
     4    2    3 ar
     5    2   20 1
     6    3    4 ar
     7    3   21 1
     8    4    5 ar
     9    4    7 1
    10    5    6 ar
    11    5   22 1
    12    6   23 1
    13    7    8 2
    14    7   24 1
    15    8   17 1
    16    8    9 1
    17    9   10 1
    18    9   25 1
    19    9   26 1
    20   10   11 1
    21   11   16 ar
    22   11   12 ar
    23   12   13 ar
    24   12   27 1
    25   13   14 ar
    26   13   28 1
    27   14   15 ar
    28   14   29 1
    29   15   16 ar
    30   15   30 1
    31   16   17 1
    32   17   18 2
@<TRIPOS>MOLECULE
ZINC43761372
   32    34     0     0     0
SMALL
USER_CHARGES

@<TRIPOS>ATOM
      1 C1         -0.0852    1.3382    0.6287 C.ar      1 <0>        -0.1592
      2 C2          1.0694    2.0701    0.4023 C.ar      1 <0>        -0.0584
      3 C3          2.2666    1.4327    0.1398 C.ar      1 <0>        -0.1566
      4 C4          2.3189    0.0485    0.1020 C.ar      1 <0>         0.1648
      5 C5          1.1500   -0.6925    0.3335 C.ar      1 <0>        -0.2314
      6 C6         -0.0519   -0.0408    0.5956 C.ar      1 <0>        -0.0322
      7 C7          1.2314   -2.1697    0.2950 C.2       1 <0>         0.4413
      8 O1          0.2313   -2.8597    0.2104 O.2       1 <0>        -0.4561
      9 C8          2.5332   -2.7498    0.3608 C.2       1 <0>        -0.2750
     10 C9          2.6955   -4.0910    0.2941 C.2       1 <0>         0.0376
     11 C10         4.0195   -4.6826    0.5235 C.ar      1 <0>        -0.1610
     12 C11         4.9103   -4.0834    1.4236 C.ar      1 <0>        -0.0492
     13 C12         6.1409   -4.6374    1.6342 C.ar      1 <0>        -0.2043
     14 C13         6.5108   -5.7960    0.9555 C.ar      1 <0>         0.2405
     15 C14         5.6286   -6.3948    0.0594 C.ar      1 <0>        -0.2033
     16 C15         4.3936   -5.8511   -0.1527 C.ar      1 <0>        -0.0318
     17 N1          7.7649   -6.3563    1.1727 N.pl3     1 <0>        -0.8675
     18 C16         3.7250   -1.8363    0.5059 C.3       1 <0>         0.1143
     19 O2          3.4811   -0.5968   -0.1574 O.3       1 <0>        -0.3100
     20 H1         -1.0139    1.8490    0.8362 H         1 <0>         0.1323
     21 H2          1.0329    3.1491    0.4311 H         1 <0>         0.1351
     22 H3          3.1606    2.0125   -0.0360 H         1 <0>         0.1383
     23 H4         -0.9522   -0.6108    0.7715 H         1 <0>         0.1361
     24 H5          1.8511   -4.7268    0.0721 H         1 <0>         0.1395
     25 H6          4.6246   -3.1846    1.9498 H         1 <0>         0.1308
     26 H7          6.8283   -4.1762    2.3279 H         1 <0>         0.1267
     27 H8          5.9197   -7.2929   -0.4651 H         1 <0>         0.1265
     28 H9          3.7083   -6.3188   -0.8442 H         1 <0>         0.1294
     29 H10         8.3806   -5.9403    1.7962 H         1 <0>         0.4019
     30 H11         8.0240   -7.1631    0.7008 H         1 <0>         0.4020
     31 H12         3.9098   -1.6493    1.5637 H         1 <0>         0.0749
     32 H13         4.6013   -2.3139    0.0677 H         1 <0>         0.1240
@<TRIPOS>BOND
     1    1    6 ar
     2    1    2 ar
     3    1   20 1
     4    2    3 ar
     5    2   21 1
     6    3    4 ar
     7    3   22 1
     8    4   19 1
     9    4    5 ar
    10    5    6 ar
    11    5    7 1
    12    6   23 1
    13    7    8 2
    14    7    9 1
    15    9   10 2
    16    9   18 1
    17   10   11 1
    18   10   24 1
    19   11   16 ar
    20   11   12 ar
    21   12   13 ar
    22   12   25 1
    23   13   14 ar
    24   13   26 1
    25   14   15 ar
    26   14   17 1
    27   15   16 ar
    28   15   27 1
    29   16   28 1
    30   17   29 1
    31   17   30 1
    32   18   19 1
    33   18   31 1
    34   18   32 1
@<TRIPOS>MOLECULE
ZINC13140780
   37    39     0     0     0
SMALL
USER_CHARGES
N-[4-[(E)-(4-oxochroman-3-ylidene)methyl]phenyl]acetamide
@<TRIPOS>ATOM
      1 C1         -4.3467    0.0809   -1.5014 C.3       1 <0>        -0.1706
      2 C2         -3.1158    0.9410   -1.3740 C.2       1 <0>         0.5109
      3 O1         -2.7289    1.5902   -2.3225 O.2       1 <0>        -0.5225
      4 N1         -2.4449    0.9888   -0.2061 N.am      1 <0>        -0.6751
      5 C3         -1.2531    1.7070   -0.1154 C.ar      1 <0>         0.1584
      6 C4         -0.2215    1.2401    0.6941 C.ar      1 <0>        -0.1448
      7 C5          0.9584    1.9425    0.7823 C.ar      1 <0>        -0.0701
      8 C6          1.1183    3.1320    0.0604 C.ar      1 <0>        -0.0983
      9 C7          0.0754    3.6008   -0.7482 C.ar      1 <0>        -0.0869
     10 C8         -1.1009    2.8917   -0.8302 C.ar      1 <0>        -0.1219
     11 C9          2.3761    3.8851    0.1509 C.2       1 <0>         0.0053
     12 C10         2.3647    5.2339    0.0572 C.2       1 <0>        -0.2511
     13 C11         1.0785    6.0423    0.0274 C.3       1 <0>         0.1042
     14 O2          1.1680    7.0665    1.0178 O.3       1 <0>        -0.3064
     15 C12         2.2857    7.8246    1.1007 C.ar      1 <0>         0.1799
     16 C13         2.2083    9.0879    1.6772 C.ar      1 <0>        -0.1631
     17 C14         3.3379    9.8728    1.7839 C.ar      1 <0>        -0.0516
     18 C15         4.5621    9.4172    1.3216 C.ar      1 <0>        -0.1644
     19 C16         4.6600    8.1692    0.7423 C.ar      1 <0>        -0.0284
     20 C17         3.5232    7.3726    0.6248 C.ar      1 <0>        -0.2422
     21 C18         3.6046    6.0396   -0.0181 C.2       1 <0>         0.4410
     22 O3          4.6150    5.6399   -0.5682 O.2       1 <0>        -0.4396
     23 H1         -4.5374   -0.4230   -0.5539 H         1 <0>         0.0798
     24 H2         -5.2016    0.7060   -1.7590 H         1 <0>         0.1010
     25 H3         -4.1912   -0.6623   -2.2834 H         1 <0>         0.1013
     26 H4         -2.7911    0.5235    0.5715 H         1 <0>         0.4143
     27 H5         -0.3458    0.3228    1.2503 H         1 <0>         0.1324
     28 H6          1.7600    1.5769    1.4069 H         1 <0>         0.1345
     29 H7          0.1941    4.5178   -1.3064 H         1 <0>         0.1337
     30 H8         -1.9057    3.2525   -1.4535 H         1 <0>         0.1446
     31 H9          3.3101    3.3615    0.2922 H         1 <0>         0.1389
     32 H10         0.9509    6.4933   -0.9567 H         1 <0>         0.0807
     33 H11         0.2312    5.3925    0.2467 H         1 <0>         0.1316
     34 H12         1.2608    9.4558    2.0421 H         1 <0>         0.1388
     35 H13         3.2671   10.8528    2.2322 H         1 <0>         0.1357
     36 H14         5.4399   10.0393    1.4152 H         1 <0>         0.1332
     37 H15         5.6131    7.8115    0.3817 H         1 <0>         0.1369
@<TRIPOS>BOND
     1    1    2 1
     2    1   23 1
     3    1   24 1
     4    1   25 1
     5    2    3 2
     6    2    4 am
     7    4    5 1
     8    4   26 1
     9    5   10 ar
    10    5    6 ar
    11    6    7 ar
    12    6   27 1
    13    7    8 ar
    14    7   28 1
    15    8    9 ar
    16    8   11 1
    17    9   10 ar
    18    9   29 1
    19   10   30 1
    20   11   12 2
    21   11   31 1
    22   12   21 1
    23   12   13 1
    24   13   14 1
    25   13   32 1
    26   13   33 1
    27   14   15 1
    28   15   20 ar
    29   15   16 ar
    30   16   17 ar
    31   16   34 1
    32   17   18 ar
    33   17   35 1
    34   18   19 ar
    35   18   36 1
    36   19   20 ar
    37   19   37 1
    38   20   21 1
    39   21   22 2
@<TRIPOS>MOLECULE
ZINC13140783
   35    37     0     0     0
SMALL
USER_CHARGES
(3E)-3-[(4-hydroxy-3-methoxy-phenyl)methylene]chroman-4-one
@<TRIPOS>ATOM
      1 C1          3.9136    1.4511   -2.1916 C.3       1 <0>         0.0222
      2 O1          2.9983    2.1735   -1.3655 O.3       1 <0>        -0.3050
      3 C2          2.1191    1.4408   -0.6309 C.ar      1 <0>         0.1052
      4 C3          2.1387    0.0623   -0.7048 C.ar      1 <0>        -0.1704
      5 C4          1.2316   -0.6887    0.0527 C.ar      1 <0>        -0.0494
      6 C5          0.3097   -0.0372    0.8809 C.ar      1 <0>        -0.1274
      7 C6          0.2975    1.3383    0.9484 C.ar      1 <0>        -0.1058
      8 C7          1.1977    2.0822    0.1966 C.ar      1 <0>         0.0918
      9 O2          1.1807    3.4384    0.2674 O.3       1 <0>        -0.4842
     10 C8          1.2475   -2.1558   -0.0210 C.2       1 <0>        -0.0037
     11 C9          0.0929   -2.8507    0.0889 C.2       1 <0>        -0.2404
     12 C10        -1.2689   -2.1775    0.1183 C.3       1 <0>         0.1030
     13 O3         -2.0992   -2.8080   -0.8634 O.3       1 <0>        -0.3059
     14 C11        -2.1598   -4.1585   -0.9220 C.ar      1 <0>         0.1794
     15 C12        -3.2716   -4.7638   -1.4980 C.ar      1 <0>        -0.1625
     16 C13        -3.3414   -6.1382   -1.5953 C.ar      1 <0>        -0.0509
     17 C14        -2.3102   -6.9340   -1.1229 C.ar      1 <0>        -0.1639
     18 C15        -1.2012   -6.3543   -0.5428 C.ar      1 <0>        -0.0286
     19 C16        -1.1244   -4.9674   -0.4364 C.ar      1 <0>        -0.2427
     20 C17         0.0567   -4.3270    0.1962 C.2       1 <0>         0.4409
     21 O4          0.9276   -4.9660    0.7588 O.2       1 <0>        -0.4371
     22 H1          3.3573    0.8520   -2.9126 H         1 <0>         0.0580
     23 H2          4.5565    2.1535   -2.7220 H         1 <0>         0.1050
     24 H3          4.5250    0.7967   -1.5703 H         1 <0>         0.0577
     25 H4          2.8520   -0.4355   -1.3450 H         1 <0>         0.1395
     26 H5         -0.3917   -0.6130    1.4664 H         1 <0>         0.1369
     27 H6         -0.4170    1.8400    1.5841 H         1 <0>         0.1444
     28 H7          1.7550    3.8036    0.9543 H         1 <0>         0.3915
     29 H8          2.1814   -2.6793   -0.1629 H         1 <0>         0.1403
     30 H9         -1.7134   -2.2912    1.1071 H         1 <0>         0.0833
     31 H10        -1.1602   -1.1186   -0.1164 H         1 <0>         0.1326
     32 H11        -4.0830   -4.1559   -1.8702 H         1 <0>         0.1394
     33 H12        -4.2088   -6.5986   -2.0448 H         1 <0>         0.1362
     34 H13        -2.3746   -8.0086   -1.2093 H         1 <0>         0.1336
     35 H14        -0.3966   -6.9724   -0.1726 H         1 <0>         0.1370
@<TRIPOS>BOND
     1    1    2 1
     2    1   22 1
     3    1   23 1
     4    1   24 1
     5    2    3 1
     6    3    8 ar
     7    3    4 ar
     8    4    5 ar
     9    4   25 1
    10    5    6 ar
    11    5   10 1
    12    6    7 ar
    13    6   26 1
    14    7    8 ar
    15    7   27 1
    16    8    9 1
    17    9   28 1
    18   10   11 2
    19   10   29 1
    20   11   20 1
    21   11   12 1
    22   12   13 1
    23   12   30 1
    24   12   31 1
    25   13   14 1
    26   14   19 ar
    27   14   15 ar
    28   15   16 ar
    29   15   32 1
    30   16   17 ar
    31   16   33 1
    32   17   18 ar
    33   17   34 1
    34   18   19 ar
    35   18   35 1
    36   19   20 1
    37   20   21 2
@<TRIPOS>MOLECULE
ZINC13135448
   35    37     0     0     0
SMALL
USER_CHARGES
(3E)-3-[(3-hydroxy-4-methoxy-phenyl)methylene]chroman-4-one
@<TRIPOS>ATOM
      1 C1         -1.3694    2.6887    1.0776 C.3       1 <0>         0.0220
      2 O1         -0.8481    1.3647    1.2088 O.3       1 <0>        -0.3032
      3 C2         -0.2739    1.0430    2.3967 C.ar      1 <0>         0.1208
      4 C3         -0.2147    1.9858    3.4149 C.ar      1 <0>        -0.1960
      5 C4          0.3659    1.6656    4.6219 C.ar      1 <0>        -0.0553
      6 C5          0.8984    0.3866    4.8246 C.ar      1 <0>        -0.1059
      7 C6          0.8381   -0.5631    3.7975 C.ar      1 <0>        -0.0936
      8 C7          0.2494   -0.2348    2.5925 C.ar      1 <0>         0.0756
      9 O2          0.1845   -1.1562    1.5944 O.3       1 <0>        -0.4825
     10 C8          1.5188    0.0422    6.1109 C.2       1 <0>         0.0077
     11 C9          2.5716   -0.8053    6.1483 C.2       1 <0>        -0.2516
     12 C10         3.2687   -1.3018    4.8928 C.3       1 <0>         0.1057
     13 O3          4.6739   -1.0703    5.0422 O.3       1 <0>        -0.3069
     14 C11         5.2943   -1.4315    6.1892 C.ar      1 <0>         0.1794
     15 C12         6.6652   -1.6648    6.1752 C.ar      1 <0>        -0.1628
     16 C13         7.3235   -2.0054    7.3388 C.ar      1 <0>        -0.0517
     17 C14         6.6330   -2.1196    8.5346 C.ar      1 <0>        -0.1639
     18 C15         5.2721   -1.8976    8.5696 C.ar      1 <0>        -0.0288
     19 C16         4.5986   -1.5581    7.3984 C.ar      1 <0>        -0.2418
     20 C17         3.1317   -1.3273    7.4156 C.2       1 <0>         0.4415
     21 O4          2.4434   -1.5497    8.3954 O.2       1 <0>        -0.4381
     22 H1         -0.5658    3.4113    1.2196 H         1 <0>         0.0589
     23 H2         -2.1414    2.8514    1.8297 H         1 <0>         0.0592
     24 H3         -1.7986    2.8134    0.0834 H         1 <0>         0.1052
     25 H4         -0.6254    2.9725    3.2597 H         1 <0>         0.1399
     26 H5          0.4102    2.4006    5.4120 H         1 <0>         0.1368
     27 H6          1.2477   -1.5509    3.9487 H         1 <0>         0.1436
     28 H7          0.9486   -1.1487    1.0018 H         1 <0>         0.3898
     29 H8          1.1339    0.4660    7.0267 H         1 <0>         0.1405
     30 H9          3.0806   -2.3679    4.7656 H         1 <0>         0.0819
     31 H10         2.8957   -0.7566    4.0258 H         1 <0>         0.1284
     32 H11         7.2163   -1.5794    5.2503 H         1 <0>         0.1389
     33 H12         8.3884   -2.1846    7.3174 H         1 <0>         0.1359
     34 H13         7.1605   -2.3822    9.4397 H         1 <0>         0.1334
     35 H14         4.7313   -1.9869    9.5002 H         1 <0>         0.1370
@<TRIPOS>BOND
     1    1    2 1
     2    1   22 1
     3    1   23 1
     4    1   24 1
     5    2    3 1
     6    3    8 ar
     7    3    4 ar
     8    4    5 ar
     9    4   25 1
    10    5    6 ar
    11    5   26 1
    12    6    7 ar
    13    6   10 1
    14    7    8 ar
    15    7   27 1
    16    8    9 1
    17    9   28 1
    18   10   11 2
    19   10   29 1
    20   11   20 1
    21   11   12 1
    22   12   13 1
    23   12   30 1
    24   12   31 1
    25   13   14 1
    26   14   19 ar
    27   14   15 ar
    28   15   16 ar
    29   15   32 1
    30   16   17 ar
    31   16   33 1
    32   17   18 ar
    33   17   34 1
    34   18   19 ar
    35   18   35 1
    36   19   20 1
    37   20   21 2
@<TRIPOS>MOLECULE
ZINC13135445
   32    34     0     0     0
SMALL
USER_CHARGES
(3E)-3-[(3,4-dihydroxyphenyl)methylene]chroman-4-one
@<TRIPOS>ATOM
      1 C1          0.7416    2.2350    0.5105 C.ar      1 <0>        -0.1637
      2 C2          1.9982    1.6990    0.2790 C.ar      1 <0>        -0.0508
      3 C3          2.1556    0.3484    0.0455 C.ar      1 <0>        -0.1622
      4 C4          1.0494   -0.4944    0.0389 C.ar      1 <0>         0.1793
      5 C5         -0.2180    0.0505    0.2820 C.ar      1 <0>        -0.2427
      6 C6         -0.3680    1.4157    0.5153 C.ar      1 <0>        -0.0284
      7 C7         -1.4000   -0.8484    0.2985 C.2       1 <0>         0.4413
      8 O1         -2.5086   -0.4696    0.6311 O.2       1 <0>        -0.4370
      9 C8         -1.1250   -2.2413   -0.1217 C.2       1 <0>        -0.2427
     10 C9         -2.0317   -2.9963   -0.7819 C.2       1 <0>        -0.0016
     11 C10        -1.7677   -4.4219   -1.0185 C.ar      1 <0>        -0.0729
     12 C11        -1.0509   -5.1691   -0.0761 C.ar      1 <0>        -0.0994
     13 C12        -0.8053   -6.5056   -0.3004 C.ar      1 <0>        -0.1291
     14 C13        -1.2668   -7.1153   -1.4598 C.ar      1 <0>         0.0973
     15 C14        -1.9815   -6.3779   -2.4035 C.ar      1 <0>         0.0829
     16 C15        -2.2371   -5.0388   -2.1846 C.ar      1 <0>        -0.1030
     17 O2         -2.4310   -6.9791   -3.5374 O.3       1 <0>        -0.4852
     18 O3         -1.0217   -8.4336   -1.6750 O.3       1 <0>        -0.4858
     19 C16         0.2562   -2.7558    0.2479 C.3       1 <0>         0.1035
     20 O4          1.2248   -1.8127   -0.2107 O.3       1 <0>        -0.3051
     21 H1          0.6310    3.2946    0.6877 H         1 <0>         0.1337
     22 H2          2.8635    2.3453    0.2813 H         1 <0>         0.1363
     23 H3          3.1412   -0.0557   -0.1325 H         1 <0>         0.1395
     24 H4         -1.3487    1.8311    0.6945 H         1 <0>         0.1372
     25 H5         -2.9501   -2.5513   -1.1353 H         1 <0>         0.1417
     26 H6         -0.6905   -4.6976    0.8262 H         1 <0>         0.1380
     27 H7         -0.2526   -7.0811    0.4274 H         1 <0>         0.1416
     28 H8         -2.7943   -4.4679   -2.9125 H         1 <0>         0.1411
     29 H9         -3.3158   -7.3608   -3.4561 H         1 <0>         0.3909
     30 H10        -1.7056   -9.0226   -1.3280 H         1 <0>         0.3922
     31 H11         0.3309   -2.8621    1.3301 H         1 <0>         0.0824
     32 H12         0.4282   -3.7209   -0.2286 H         1 <0>         0.1307
@<TRIPOS>BOND
     1    1    6 ar
     2    1    2 ar
     3    1   21 1
     4    2    3 ar
     5    2   22 1
     6    3    4 ar
     7    3   23 1
     8    4   20 1
     9    4    5 ar
    10    5    6 ar
    11    5    7 1
    12    6   24 1
    13    7    8 2
    14    7    9 1
    15    9   10 2
    16    9   19 1
    17   10   11 1
    18   10   25 1
    19   11   16 ar
    20   11   12 ar
    21   12   13 ar
    22   12   26 1
    23   13   14 ar
    24   13   27 1
    25   14   15 ar
    26   14   18 1
    27   15   16 ar
    28   15   17 1
    29   16   28 1
    30   17   29 1
    31   18   30 1
    32   19   20 1
    33   19   31 1
    34   19   32 1
@<TRIPOS>MOLECULE
ZINC13137348
   33    35     0     0     0
SMALL
USER_CHARGES

@<TRIPOS>ATOM
      1 C1         -0.3520    1.0695    0.5338 C.ar      1 <0>        -0.1614
      2 C2          0.7368    1.8971    0.3109 C.ar      1 <0>        -0.0497
      3 C3          1.9862    1.3662    0.0650 C.ar      1 <0>        -0.1604
      4 C4          2.1687   -0.0123    0.0410 C.ar      1 <0>         0.1769
      5 C5          1.0673   -0.8450    0.2776 C.ar      1 <0>        -0.2421
      6 C6         -0.1923   -0.3005    0.5177 C.ar      1 <0>        -0.0276
      7 C7          1.2629   -2.3170    0.2852 C.2       1 <0>         0.4408
      8 O1          0.3862   -3.0943    0.6176 O.2       1 <0>        -0.4315
      9 C8          2.6073   -2.7659   -0.1433 C.2       1 <0>        -0.2305
     10 C9          2.8107   -3.9230   -0.8122 C.2       1 <0>        -0.0092
     11 C10         4.1786   -4.3989   -1.0577 C.ar      1 <0>        -0.0836
     12 C11         5.1871   -4.1542   -0.1171 C.ar      1 <0>        -0.0460
     13 C12         6.4668   -4.6026   -0.3518 C.ar      1 <0>        -0.1433
     14 C13         6.7596   -5.2972   -1.5205 C.ar      1 <0>         0.1938
     15 C14         5.7622   -5.5427   -2.4574 C.ar      1 <0>        -0.0793
     16 C15         4.4776   -5.1037   -2.2300 C.ar      1 <0>        -0.0167
     17 N1          6.0812   -6.2822   -3.6994 N.pl3     1 <0>         0.0340
     18 O2          5.2148   -6.4964   -4.5149 O.2       1 <0>        -0.1629
     19 O3          7.2082   -6.6721   -3.8983 O.3       1 <0>        -0.1311
     20 O4          8.0236   -5.7365   -1.7475 O.3       1 <0>        -0.4706
     21 C16         3.7403   -1.8237    0.2272 C.3       1 <0>         0.1018
     22 O5          3.3989   -0.5116   -0.2198 O.3       1 <0>        -0.3037
     23 H1         -1.3251    1.4973    0.7246 H         1 <0>         0.1350
     24 H2          0.6058    2.9689    0.3295 H         1 <0>         0.1374
     25 H3          2.8253    2.0233   -0.1097 H         1 <0>         0.1402
     26 H4         -1.0395   -0.9477    0.6904 H         1 <0>         0.1383
     27 H5          1.9674   -4.4975   -1.1661 H         1 <0>         0.1489
     28 H6          4.9610   -3.6143    0.7905 H         1 <0>         0.1533
     29 H7          7.2453   -4.4145    0.3728 H         1 <0>         0.1618
     30 H8          3.7026   -5.2985   -2.9565 H         1 <0>         0.1643
     31 H9          8.1978   -6.6253   -1.4088 H         1 <0>         0.4107
     32 H10         3.8755   -1.8195    1.3088 H         1 <0>         0.0866
     33 H11         4.6612   -2.1485   -0.2571 H         1 <0>         0.1259
@<TRIPOS>BOND
     1    1    6 ar
     2    1    2 ar
     3    1   23 1
     4    2    3 ar
     5    2   24 1
     6    3    4 ar
     7    3   25 1
     8    4   22 1
     9    4    5 ar
    10    5    6 ar
    11    5    7 1
    12    6   26 1
    13    7    8 2
    14    7    9 1
    15    9   10 2
    16    9   21 1
    17   10   11 1
    18   10   27 1
    19   11   16 ar
    20   11   12 ar
    21   12   13 ar
    22   12   28 1
    23   13   14 ar
    24   13   29 1
    25   14   15 ar
    26   14   20 1
    27   15   16 ar
    28   15   17 1
    29   16   30 1
    30   17   18 2
    31   17   19 1
    32   20   31 1
    33   21   22 1
    34   21   32 1
    35   21   33 1
