@<TRIPOS>MOLECULE
ZINC00537822
   50    52     0     0     0
SMALL
USER_CHARGES

@<TRIPOS>ATOM
      1 C1         -0.0169    1.3952    0.0097 C.ar      1 <0>        -0.0260
      2 C2          1.1683    2.0970    0.0022 C.ar      1 <0>        -0.1650
      3 C3          2.3789    1.4198   -0.0130 C.ar      1 <0>         0.1439
      4 C4          2.4047    0.0329   -0.0212 C.ar      1 <0>        -0.1670
      5 C5          1.2267   -0.6810   -0.0142 C.ar      1 <0>        -0.0432
      6 C6          0.0021   -0.0041    0.0020 C.ar      1 <0>        -0.1967
      7 C7         -1.2591   -0.7596    0.0105 C.2       1 <0>         0.4038
      8 O1         -2.3189   -0.1702    0.0242 O.2       1 <0>        -0.4483
      9 C8         -1.2348   -2.2664    0.0022 C.3       1 <0>        -0.1653
     10 C9         -2.6689   -2.7996    0.0135 C.3       1 <0>        -0.1429
     11 C10        -2.6443   -4.3293    0.0051 C.3       1 <0>        -0.0092
     12 N1         -4.0211   -4.8413    0.0160 N.4       1 <0>        -0.3830
     13 C11        -4.6726   -4.4620    1.2755 C.3       1 <0>        -0.0093
     14 C12        -6.1318   -4.9225    1.2582 C.3       1 <0>        -0.1330
     15 C13        -6.1791   -6.4445    1.0954 C.3       1 <0>         0.1746
     16 C14        -5.4322   -6.8346   -0.1834 C.3       1 <0>        -0.1706
     17 C15        -3.9990   -6.3033   -0.1127 C.3       1 <0>        -0.0017
     18 C16        -7.6135   -6.8966    0.9991 C.ar      1 <0>        -0.1262
     19 C17        -8.5661   -6.0599    0.4482 C.ar      1 <0>        -0.1006
     20 C18        -9.8818   -6.4740    0.3596 C.ar      1 <0>        -0.1039
     21 C19       -10.2453   -7.7262    0.8224 C.ar      1 <0>        -0.0247
     22 C20        -9.2914   -8.5631    1.3735 C.ar      1 <0>        -0.1016
     23 C21        -7.9750   -8.1501    1.4564 C.ar      1 <0>        -0.0934
     24 Cl1       -11.8977   -8.2468    0.7119 Cl        1 <0>        -0.0500
     25 O2         -5.5554   -7.0652    2.2213 O.3       1 <0>        -0.5474
     26 F1          3.5378    2.1141   -0.0204 F         1 <0>        -0.1258
     27 H1         -0.9587    1.9236    0.0260 H         1 <0>         0.1459
     28 H2          1.1551    3.1769    0.0077 H         1 <0>         0.1477
     29 H3          3.3506   -0.4883   -0.0334 H         1 <0>         0.1469
     30 H4          1.2482   -1.7608   -0.0213 H         1 <0>         0.1412
     31 H5         -0.7241   -2.6166   -0.8948 H         1 <0>         0.1127
     32 H6         -0.7064   -2.6261    0.8850 H         1 <0>         0.1127
     33 H7         -3.1796   -2.4493    0.9105 H         1 <0>         0.0952
     34 H8         -3.1973   -2.4398   -0.8693 H         1 <0>         0.0947
     35 H9         -2.1335   -4.6796   -0.8919 H         1 <0>         0.1333
     36 H10        -2.1158   -4.6891    0.8880 H         1 <0>         0.1327
     37 H11        -4.1530   -4.9339    2.1093 H         1 <0>         0.1388
     38 H12        -4.6353   -3.3788    1.3915 H         1 <0>         0.1356
     39 H13        -6.6132   -4.6415    2.1949 H         1 <0>         0.1238
     40 H14        -6.6524   -4.4509    0.4248 H         1 <0>         0.1045
     41 H15        -5.4137   -7.9204   -0.2771 H         1 <0>         0.1175
     42 H16        -5.9384   -6.4027   -1.0467 H         1 <0>         0.1009
     43 H17        -3.4644   -6.5795   -1.0215 H         1 <0>         0.1329
     44 H18        -3.4937   -6.7360    0.7507 H         1 <0>         0.1354
     45 H19        -8.2824   -5.0823    0.0874 H         1 <0>         0.1334
     46 H20       -10.6260   -5.8201   -0.0704 H         1 <0>         0.1408
     47 H21        -9.5746   -9.5405    1.7352 H         1 <0>         0.1414
     48 H22        -7.2294   -8.8051    1.8823 H         1 <0>         0.1323
     49 H23        -5.5495   -8.0314    2.1846 H         1 <0>         0.3907
     50 H24        -4.5327   -4.4442   -0.7578 H         1 <0>         0.4215
@<TRIPOS>BOND
     1    1    6 ar
     2    1    2 ar
     3    1   27 1
     4    2    3 ar
     5    2   28 1
     6    3    4 ar
     7    3   26 1
     8    4    5 ar
     9    4   29 1
    10    5    6 ar
    11    5   30 1
    12    6    7 1
    13    7    8 2
    14    7    9 1
    15    9   10 1
    16    9   31 1
    17    9   32 1
    18   10   11 1
    19   10   33 1
    20   10   34 1
    21   11   12 1
    22   11   35 1
    23   11   36 1
    24   12   17 1
    25   12   13 1
    26   12   50 1
    27   13   14 1
    28   13   37 1
    29   13   38 1
    30   14   15 1
    31   14   39 1
    32   14   40 1
    33   15   16 1
    34   15   18 1
    35   15   25 1
    36   16   17 1
    37   16   41 1
    38   16   42 1
    39   17   43 1
    40   17   44 1
    41   18   23 ar
    42   18   19 ar
    43   19   20 ar
    44   19   45 1
    45   20   21 ar
    46   20   46 1
    47   21   22 ar
    48   21   24 1
    49   22   23 ar
    50   22   47 1
    51   23   48 1
    52   25   49 1
