@<TRIPOS>MOLECULE
ZINC29050027
   76    82     0     0     0
SMALL
USER_CHARGES
(2S)-2-[[2-indan-5-yloxy-9-[(4-phenylphenyl)methyl]purin-6-yl]amino]-3-phenyl-propan-1-ol
@<TRIPOS>ATOM
      1 C1         11.9075   -5.4519    5.2874 C.ar      1 <0>        -0.1240
      2 C2         11.6271   -4.0994    5.3413 C.ar      1 <0>        -0.1159
      3 C3         10.5302   -3.6487    6.0515 C.ar      1 <0>        -0.1095
      4 C4          9.7135   -4.5505    6.7078 C.ar      1 <0>        -0.0819
      5 C5          9.9969   -5.9026    6.6582 C.ar      1 <0>        -0.1161
      6 C6         11.0908   -6.3538    5.9436 C.ar      1 <0>        -0.1177
      7 C7          8.5179   -4.0591    7.4824 C.3       1 <0>        -0.0844
      8 C8          7.2969   -4.0144    6.5615 C.3       1 <0>         0.1652
      9 H1          7.1517   -4.9843    6.0633 H         1 <0>         0.1058
     10 C9          6.0579   -3.6357    7.3754 C.3       1 <0>         0.0772
     11 O1          6.2976   -2.4067    8.0639 O.3       1 <0>        -0.5969
     12 N1          7.5142   -3.0173    5.5104 N.pl3     1 <0>        -0.6821
     13 C10         6.8493   -3.1297    4.3022 C.ar      1 <0>         0.5443
     14 C11         7.0464   -2.1816    3.2830 C.ar      1 <0>        -0.1321
     15 C12         6.3403   -2.3422    2.0796 C.ar      1 <0>         0.3386
     16 N2          5.5246   -3.3829    1.9414 N.ar      1 <0>        -0.5649
     17 C13         5.3690   -4.2507    2.9257 C.ar      1 <0>         0.5630
     18 N3          6.0105   -4.1354    4.0800 N.ar      1 <0>        -0.6231
     19 O2          4.5236   -5.2949    2.7490 O.3       1 <0>        -0.2282
     20 C14         4.4513   -6.2307    3.7319 C.ar      1 <0>         0.1016
     21 C15         3.7402   -5.9659    4.8937 C.ar      1 <0>        -0.1040
     22 C16         3.6696   -6.9193    5.8889 C.ar      1 <0>        -0.0966
     23 C17         4.3059   -8.1402    5.7335 C.ar      1 <0>        -0.0914
     24 C18         5.0152   -8.4063    4.5769 C.ar      1 <0>        -0.0867
     25 C19         5.0830   -7.4543    3.5744 C.ar      1 <0>        -0.1001
     26 C20         5.6120   -9.7955    4.6508 C.3       1 <0>        -0.0865
     27 C21         4.8332  -10.5103    5.7754 C.3       1 <0>        -0.1166
     28 C22         4.3779   -9.3328    6.6632 C.3       1 <0>        -0.0796
     29 N4          6.7198   -1.2973    1.2756 N.pl3     1 <0>        -0.4648
     30 C23         7.6101   -0.5415    1.9806 C.2       1 <0>         0.2413
     31 N5          7.8002   -1.0620    3.1577 N.2       1 <0>        -0.4523
     32 C24         6.2503   -1.0373   -0.0875 C.3       1 <0>         0.1522
     33 C25         4.9523   -0.2735   -0.0347 C.ar      1 <0>        -0.1203
     34 C26         4.9667    1.1096   -0.0228 C.ar      1 <0>        -0.0945
     35 C27         3.7809    1.8142    0.0251 C.ar      1 <0>        -0.1153
     36 C28         2.5678    1.1297    0.0619 C.ar      1 <0>        -0.0319
     37 C29         2.5594   -0.2636    0.0555 C.ar      1 <0>        -0.1133
     38 C30         3.7509   -0.9581    0.0013 C.ar      1 <0>        -0.0826
     39 C31         1.2897    1.8818    0.1140 C.ar      1 <0>        -0.0507
     40 C32         0.0766    1.1974    0.1508 C.ar      1 <0>        -0.1089
     41 C33        -1.1094    1.9020    0.1944 C.ar      1 <0>        -0.1175
     42 C34        -1.0948    3.2850    0.2121 C.ar      1 <0>        -0.1166
     43 C35         0.1066    3.9696    0.1756 C.ar      1 <0>        -0.1180
     44 C36         1.2983    3.2751    0.1267 C.ar      1 <0>        -0.1091
     45 H2         12.7647   -5.8040    4.7328 H         1 <0>         0.1194
     46 H3         12.2654   -3.3948    4.8289 H         1 <0>         0.1204
     47 H4         10.3113   -2.5919    6.0939 H         1 <0>         0.1184
     48 H5          9.3614   -6.6068    7.1746 H         1 <0>         0.1192
     49 H6         11.3101   -7.4104    5.9018 H         1 <0>         0.1200
     50 H7          8.3192   -4.7415    8.3219 H         1 <0>         0.0878
     51 H8          8.7217   -3.0502    7.8703 H         1 <0>         0.0894
     52 H9          5.1980   -3.5159    6.6999 H         1 <0>         0.0478
     53 H10         5.8425   -4.4293    8.1060 H         1 <0>         0.0493
     54 H11         5.5151   -1.9733    8.7041 H         1 <0>         0.4077
     55 H12         8.2059   -2.1793    5.6817 H         1 <0>         0.4420
     56 H13         3.2425   -5.0156    5.0186 H         1 <0>         0.1257
     57 H14         3.1163   -6.7127    6.7931 H         1 <0>         0.1258
     58 H15         5.6333   -7.6638    2.6690 H         1 <0>         0.1261
     59 H16         5.4819  -10.3024    3.6833 H         1 <0>         0.0765
     60 H17         6.6843   -9.7220    4.8849 H         1 <0>         0.0816
     61 H18         3.9911  -11.0687    5.3405 H         1 <0>         0.0747
     62 H19         5.5035  -11.2072    6.2998 H         1 <0>         0.0788
     63 H20         5.1013   -9.1285    7.4663 H         1 <0>         0.0830
     64 H21         3.3858   -9.5166    7.1014 H         1 <0>         0.0776
     65 H22         8.0866    0.3563    1.6156 H         1 <0>         0.2194
     66 H23         7.0030   -0.4443   -0.6277 H         1 <0>         0.1094
     67 H24         6.0926   -1.9926   -0.6095 H         1 <0>         0.1058
     68 H25         5.9075    1.6391   -0.0513 H         1 <0>         0.1262
     69 H26         3.7932    2.8941    0.0344 H         1 <0>         0.1279
     70 H27         1.6221   -0.7991    0.0884 H         1 <0>         0.1272
     71 H28         3.7454   -2.0380   -0.0086 H         1 <0>         0.1323
     72 H29         0.0642    0.1175    0.1408 H         1 <0>         0.1254
     73 H30        -2.0504    1.3725    0.2188 H         1 <0>         0.1254
     74 H31        -2.0250    3.8324    0.2499 H         1 <0>         0.1239
     75 H32         0.1120    5.0496    0.1852 H         1 <0>         0.1253
     76 H33         2.2357    3.8106    0.0980 H         1 <0>         0.1253
@<TRIPOS>BOND
     1    1    6 ar
     2    1    2 ar
     3    1   45 1
     4    2    3 ar
     5    2   46 1
     6    3    4 ar
     7    3   47 1
     8    4    5 ar
     9    4    7 1
    10    5    6 ar
    11    5   48 1
    12    6   49 1
    13    7    8 1
    14    7   50 1
    15    7   51 1
    16    8    9 1
    17    8   10 1
    18    8   12 1
    19   10   11 1
    20   10   52 1
    21   10   53 1
    22   11   54 1
    23   12   13 1
    24   12   55 1
    25   13   18 ar
    26   13   14 ar
    27   14   31 1
    28   14   15 ar
    29   15   16 ar
    30   15   29 1
    31   16   17 ar
    32   17   18 ar
    33   17   19 1
    34   19   20 1
    35   20   25 ar
    36   20   21 ar
    37   21   22 ar
    38   21   56 1
    39   22   23 ar
    40   22   57 1
    41   23   28 1
    42   23   24 ar
    43   24   25 ar
    44   24   26 1
    45   25   58 1
    46   26   27 1
    47   26   59 1
    48   26   60 1
    49   27   28 1
    50   27   61 1
    51   27   62 1
    52   28   63 1
    53   28   64 1
    54   29   30 1
    55   29   32 1
    56   30   31 2
    57   30   65 1
    58   32   33 1
    59   32   66 1
    60   32   67 1
    61   33   38 ar
    62   33   34 ar
    63   34   35 ar
    64   34   68 1
    65   35   36 ar
    66   35   69 1
    67   36   37 ar
    68   36   39 1
    69   37   38 ar
    70   37   70 1
    71   38   71 1
    72   39   44 ar
    73   39   40 ar
    74   40   41 ar
    75   40   72 1
    76   41   42 ar
    77   41   73 1
    78   42   43 ar
    79   42   74 1
    80   43   44 ar
    81   43   75 1
    82   44   76 1
