@<TRIPOS>MOLECULE
ZINC03870237
   24    24     0     0     0
SMALL
USER_CHARGES

@<TRIPOS>ATOM
      1 C1         -0.0183    1.4968    0.0103 C.3       1 <0>        -0.0716
      2 C2          1.4110    2.0429   -0.0004 C.3       1 <0>         0.1128
      3 H1          1.3910    3.1175   -0.1816 H         1 <0>         0.0490
      4 C3          2.1904    1.3457   -1.1222 C.3       1 <0>         0.1072
      5 H2          3.1664    1.8171   -1.2376 H         1 <0>         0.0574
      6 C4          2.3718   -0.1262   -0.7457 C.3       1 <0>         0.1658
      7 H3          3.0768   -0.2032    0.0820 H         1 <0>         0.0640
      8 C5          1.0559   -0.7205   -0.3355 C.2       1 <0>        -0.0909
      9 C6          0.0021   -0.0041    0.0020 C.2       1 <0>        -0.2096
     10 C7         -1.2209   -0.7144    0.3919 C.2       1 <0>         0.5239
     11 O1         -1.2425   -1.9379    0.3974 O.co2     1 <0>        -0.6981
     12 O2         -2.2194   -0.0833    0.7117 O.co2     1 <0>        -0.7225
     13 O3          2.8823   -0.8436   -1.8712 O.3       1 <0>        -0.7513
     14 P1          4.2879   -1.6284   -1.8467 P.3       1 <0>         2.1338
     15 O4          5.4281   -0.6442   -1.4158 O.2       1 <0>        -1.1934
     16 O5          4.2067   -2.8131   -0.8248 O.3       1 <0>        -1.1885
     17 O6          4.5965   -2.1916   -3.2757 O.3       1 <0>        -1.1754
     18 O7          1.4612    1.4455   -2.3471 O.3       1 <0>        -0.5625
     19 O8          2.0348    1.7798    1.2580 O.3       1 <0>        -0.5516
     20 H4         -0.5320    1.8463    0.9059 H         1 <0>         0.0603
     21 H5         -0.5489    1.8558   -0.8715 H         1 <0>         0.0704
     22 H6          0.9673   -1.7966   -0.3161 H         1 <0>         0.1142
     23 H7          1.8980    1.0246   -3.1002 H         1 <0>         0.3888
     24 H8          1.5830    2.1817    2.0126 H         1 <0>         0.3678
@<TRIPOS>BOND
     1    1    9 1
     2    1    2 1
     3    1   20 1
     4    1   21 1
     5    2    3 1
     6    2    4 1
     7    2   19 1
     8    4    5 1
     9    4    6 1
    10    4   18 1
    11    6    7 1
    12    6    8 1
    13    6   13 1
    14    8    9 2
    15    8   22 1
    16    9   10 1
    17   10   11 2
    18   10   12 1
    19   13   14 1
    20   14   15 2
    21   14   16 1
    22   14   17 1
    23   18   23 1
    24   19   24 1
@<TRIPOS>MOLECULE
ZINC03870237
   25    25     0     0     0
SMALL
USER_CHARGES

@<TRIPOS>ATOM
      1 C1         -0.0183    1.4968    0.0103 C.3       1 <0>        -0.0841
      2 C2          1.4110    2.0429   -0.0004 C.3       1 <0>         0.0727
      3 H1          1.3910    3.1175   -0.1816 H         1 <0>         0.0526
      4 C3          2.1904    1.3457   -1.1222 C.3       1 <0>         0.1032
      5 H2          3.1664    1.8171   -1.2376 H         1 <0>         0.0654
      6 C4          2.3718   -0.1262   -0.7457 C.3       1 <0>         0.2180
      7 H3          3.0768   -0.2032    0.0820 H         1 <0>         0.0826
      8 C5          1.0559   -0.7205   -0.3355 C.2       1 <0>        -0.1201
      9 C6          0.0021   -0.0041    0.0020 C.2       1 <0>        -0.1779
     10 C7         -1.2209   -0.7144    0.3919 C.2       1 <0>         0.5195
     11 O1         -1.2425   -1.9379    0.3974 O.co2     1 <0>        -0.6935
     12 O2         -2.2194   -0.0833    0.7117 O.co2     1 <0>        -0.7100
     13 O3          2.8823   -0.8436   -1.8712 O.3       1 <0>        -0.7410
     14 P1          4.2879   -1.6284   -1.8467 P.3       1 <0>         2.2052
     15 O4          4.2981   -2.6298   -0.6702 O.2       1 <0>        -1.1089
     16 O5          4.4816   -2.4258   -3.2319 O.3       1 <0>        -0.8949
     17 O6          5.4406   -0.6149   -1.6704 O.3       1 <0>        -1.1119
     18 O7          1.4612    1.4455   -2.3471 O.3       1 <0>        -0.5278
     19 O8          2.0348    1.7798    1.2580 O.3       1 <0>        -0.5534
     20 H4         -0.5320    1.8463    0.9059 H         1 <0>         0.0713
     21 H5         -0.5489    1.8558   -0.8715 H         1 <0>         0.0738
     22 H6          0.9673   -1.7966   -0.3161 H         1 <0>         0.1194
     23 H7          1.2998    2.3542   -2.6359 H         1 <0>         0.3577
     24 H8          1.5830    2.1817    2.0126 H         1 <0>         0.3738
     25 H9          5.3093   -2.9226   -3.2873 H         1 <0>         0.4082
@<TRIPOS>BOND
     1    1    9 1
     2    1    2 1
     3    1   20 1
     4    1   21 1
     5    2    3 1
     6    2    4 1
     7    2   19 1
     8    4    5 1
     9    4    6 1
    10    4   18 1
    11    6    7 1
    12    6    8 1
    13    6   13 1
    14    8    9 2
    15    8   22 1
    16    9   10 1
    17   10   11 2
    18   10   12 1
    19   13   14 1
    20   14   15 2
    21   14   16 1
    22   14   17 1
    23   16   25 1
    24   18   23 1
    25   19   24 1
@<TRIPOS>MOLECULE
ZINC27436162
   43    45     0     0     0
SMALL
USER_CHARGES
(2E)-2-[(4-diethylaminophenyl)methylene]-6,7-dihydroxy-benzofuran-3-one
@<TRIPOS>ATOM
      1 C1         -6.6689   -1.7705   -1.0254 C.3       1 <0>        -0.1752
      2 C2         -6.1675   -1.9400    0.4101 C.3       1 <0>         0.1132
      3 N1         -4.9145   -2.6991    0.4034 N.pl3     1 <0>        -0.6192
      4 C3         -4.9429   -4.1606    0.5010 C.3       1 <0>         0.1129
      5 C4         -4.8877   -4.5746    1.9729 C.3       1 <0>        -0.1742
      6 C5         -3.6977   -2.0321    0.3043 C.ar      1 <0>         0.2444
      7 C6         -2.5079   -2.7559    0.2981 C.ar      1 <0>        -0.2117
      8 C7         -1.3107   -2.1054    0.2005 C.ar      1 <0>        -0.0328
      9 C8         -1.2811   -0.7074    0.1070 C.ar      1 <0>        -0.1543
     10 C9         -2.4807    0.0170    0.1200 C.ar      1 <0>        -0.0025
     11 C10        -3.6733   -0.6427    0.2121 C.ar      1 <0>        -0.2049
     12 C11         0.0021   -0.0041    0.0020 C.2       1 <0>         0.0054
     13 C12         0.1229    1.0692   -0.8220 C.2       1 <0>        -0.0623
     14 C13        -0.8754    1.5332   -1.7950 C.2       1 <0>         0.4121
     15 O1         -1.9683    1.0477   -2.0316 O.2       1 <0>        -0.4132
     16 C14        -0.2612    2.7196   -2.4187 C.ar      1 <0>        -0.2716
     17 C15        -0.6896    3.6084   -3.4061 C.ar      1 <0>        -0.0056
     18 C16         0.1202    4.6379   -3.7958 C.ar      1 <0>        -0.1648
     19 C17         1.3715    4.8041   -3.2107 C.ar      1 <0>         0.1959
     20 C18         1.8122    3.9287   -2.2267 C.ar      1 <0>         0.0459
     21 C19         0.9980    2.8742   -1.8193 C.ar      1 <0>         0.0871
     22 O2          1.1876    1.9019   -0.8999 O.3       1 <0>        -0.2187
     23 O3          3.0377    4.1010   -1.6609 O.3       1 <0>        -0.5166
     24 O4          2.1688    5.8307   -3.6053 O.3       1 <0>        -0.4923
     25 H1         -7.6097   -1.2005   -1.0203 H         1 <0>         0.0660
     26 H2         -6.8424   -2.7605   -1.4725 H         1 <0>         0.0565
     27 H3         -5.9151   -1.2286   -1.6155 H         1 <0>         0.0615
     28 H4         -5.9940   -0.9500    0.8572 H         1 <0>         0.0784
     29 H5         -6.9213   -2.4818    1.0002 H         1 <0>         0.0757
     30 H6         -5.8705   -4.5404    0.0478 H         1 <0>         0.0757
     31 H7         -4.0764   -4.5805   -0.0308 H         1 <0>         0.0784
     32 H8         -4.9090   -5.6719    2.0462 H         1 <0>         0.0661
     33 H9         -5.7543   -4.1547    2.5046 H         1 <0>         0.0568
     34 H10        -3.9601   -4.1948    2.4261 H         1 <0>         0.0601
     35 H11        -2.5318   -3.8332    0.3702 H         1 <0>         0.1257
     36 H12        -0.3886   -2.6675    0.1951 H         1 <0>         0.1251
     37 H13        -2.4625    1.0947    0.0527 H         1 <0>         0.1169
     38 H14        -4.5985   -0.0856    0.2176 H         1 <0>         0.1241
     39 H15         0.8664   -0.3458    0.5904 H         1 <0>         0.1470
     40 H16        -1.6606    3.4826   -3.8619 H         1 <0>         0.1429
     41 H17        -0.2122    5.3247   -4.5601 H         1 <0>         0.1492
     42 H18         3.3861    3.4073   -0.8816 H         1 <0>         0.4494
     43 H19         3.1589    5.9662   -3.1456 H         1 <0>         0.4475
@<TRIPOS>BOND
     1    1    2 1
     2    1   25 1
     3    1   26 1
     4    1   27 1
     5    2    3 1
     6    2   28 1
     7    2   29 1
     8    3    4 1
     9    3    6 1
    10    4    5 1
    11    4   30 1
    12    4   31 1
    13    5   32 1
    14    5   33 1
    15    5   34 1
    16    6   11 ar
    17    6    7 ar
    18    7    8 ar
    19    7   35 1
    20    8    9 ar
    21    8   36 1
    22    9   10 ar
    23    9   12 1
    24   10   11 ar
    25   10   37 1
    26   11   38 1
    27   12   13 2
    28   12   39 1
    29   13   22 1
    30   13   14 1
    31   14   15 2
    32   14   16 1
    33   16   21 ar
    34   16   17 ar
    35   17   18 ar
    36   17   40 1
    37   18   19 ar
    38   18   41 1
    39   19   20 ar
    40   19   24 1
    41   20   21 ar
    42   20   23 1
    43   21   22 1
    44   23   42 1
    45   24   43 1
@<TRIPOS>MOLECULE
ZINC03872713
   16    15     0     0     0
SMALL
USER_CHARGES

@<TRIPOS>ATOM
      1 C1         -0.0184    1.5028    0.0103 C.3       1 <0>        -0.0826
      2 C2          0.0021   -0.0041    0.0020 C.2       1 <0>         0.4872
      3 O1          1.0661   -0.5992   -0.0113 O.co2     1 <0>        -0.6705
      4 O2         -1.0454   -0.6280    0.0087 O.co2     1 <0>        -0.6708
      5 N1          1.3598    2.0112   -0.0001 N.4       1 <0>        -0.4491
      6 C3          1.3399    3.4801    0.0080 C.3       1 <0>        -0.5986
      7 P1          3.0501    4.1111   -0.0050 P.3       1 <0>         2.1308
      8 O3          3.8448    3.4905    1.1941 O.2       1 <0>        -1.1410
      9 O4          3.7433    3.7134   -1.3525 O.3       1 <0>        -1.1411
     10 O5          3.0321    5.6716    0.1323 O.3       1 <0>        -1.1394
     11 H1         -0.5455    1.8639   -0.8728 H         1 <0>         0.1089
     12 H2         -0.5286    1.8543    0.9071 H         1 <0>         0.1090
     13 H3          1.8478    1.6770    0.8173 H         1 <0>         0.4268
     14 H4          0.8127    3.8412   -0.8751 H         1 <0>         0.1027
     15 H5          0.8297    3.8316    0.9047 H         1 <0>         0.1027
     16 H6          1.8321    1.6858   -0.8303 H         1 <0>         0.4250
@<TRIPOS>BOND
     1    1    2 1
     2    1    5 1
     3    1   11 1
     4    1   12 1
     5    2    3 2
     6    2    4 1
     7    5    6 1
     8    5   13 1
     9    5   16 1
    10    6    7 1
    11    6   14 1
    12    6   15 1
    13    7    8 2
    14    7    9 1
    15    7   10 1
@<TRIPOS>MOLECULE
ZINC05178422
   16    15     0     0     0
SMALL
USER_CHARGES

@<TRIPOS>ATOM
      1 C1         -0.0184    1.5028    0.0103 C.3       1 <0>         0.0520
      2 C2          0.0021   -0.0041    0.0020 C.2       1 <0>         0.4898
      3 O1          1.0661   -0.5992   -0.0113 O.co2     1 <0>        -0.6908
      4 O2         -1.0454   -0.6280    0.0087 O.co2     1 <0>        -0.7140
      5 N1          1.3560    2.0099   -0.0001 N.pl3     1 <0>        -0.3282
      6 C3          2.0311    2.2702   -1.2739 C.3       1 <0>        -0.5171
      7 P1          1.7163    3.9907   -1.7880 P.3       1 <0>         2.1991
      8 O3          0.1715    4.2471   -1.8358 O.2       1 <0>        -1.1773
      9 O4          2.3770    4.9718   -0.7607 O.3       1 <0>        -1.1643
     10 O5          2.3300    4.2317   -3.2092 O.3       1 <0>        -1.1838
     11 N2          1.9718    2.2271    1.1124 N.2       1 <0>        -0.0949
     12 O6          3.1145    2.6487    1.1038 O.2       1 <0>        -0.1764
     13 H1         -0.5455    1.8639   -0.8728 H         1 <0>         0.1026
     14 H2         -0.5286    1.8543    0.9071 H         1 <0>         0.0759
     15 H3          3.1037    2.1171   -1.1547 H         1 <0>         0.0706
     16 H4          1.6491    1.5883   -2.0337 H         1 <0>         0.0567
@<TRIPOS>BOND
     1    1    2 1
     2    1    5 1
     3    1   13 1
     4    1   14 1
     5    2    3 2
     6    2    4 1
     7    5    6 1
     8    5   11 1
     9    6    7 1
    10    6   15 1
    11    6   16 1
    12    7    8 2
    13    7    9 1
    14    7   10 1
    15   11   12 2
@<TRIPOS>MOLECULE
ZINC05178422
   17    16     0     0     0
SMALL
USER_CHARGES

@<TRIPOS>ATOM
      1 C1         -0.0184    1.5028    0.0103 C.3       1 <0>         0.0463
      2 C2          0.0021   -0.0041    0.0020 C.2       1 <0>         0.4869
      3 O1          1.0661   -0.5992   -0.0113 O.co2     1 <0>        -0.6883
      4 O2         -1.0454   -0.6280    0.0087 O.co2     1 <0>        -0.7006
      5 N1          1.3560    2.0099   -0.0001 N.pl3     1 <0>        -0.3459
      6 C3          2.0311    2.2702   -1.2739 C.3       1 <0>        -0.5233
      7 P1          1.7163    3.9907   -1.7880 P.3       1 <0>         2.2386
      8 O3          2.1432    4.9525   -0.6567 O.2       1 <0>        -1.0769
      9 O4          2.5632    4.3169   -3.1178 O.3       1 <0>        -0.9006
     10 O5          0.2100    4.1739   -2.0787 O.3       1 <0>        -1.0905
     11 N2          1.9718    2.2271    1.1124 N.2       1 <0>        -0.0789
     12 O6          3.1145    2.6487    1.1038 O.2       1 <0>        -0.1377
     13 H1         -0.5455    1.8639   -0.8728 H         1 <0>         0.1027
     14 H2         -0.5286    1.8543    0.9071 H         1 <0>         0.0866
     15 H3          3.1037    2.1171   -1.1547 H         1 <0>         0.0913
     16 H4          1.6491    1.5883   -2.0337 H         1 <0>         0.0819
     17 H5          2.4440    5.2176   -3.4489 H         1 <0>         0.4084
@<TRIPOS>BOND
     1    1    2 1
     2    1    5 1
     3    1   13 1
     4    1   14 1
     5    2    3 2
     6    2    4 1
     7    5    6 1
     8    5   11 1
     9    6    7 1
    10    6   15 1
    11    6   16 1
    12    7    8 2
    13    7    9 1
    14    7   10 1
    15    9   17 1
    16   11   12 2
