@<TRIPOS>MOLECULE
ZINC27436162
   43    45     0     0     0
SMALL
USER_CHARGES
(2E)-2-[(4-diethylaminophenyl)methylene]-6,7-dihydroxy-benzofuran-3-one
@<TRIPOS>ATOM
      1 C1         -6.6689   -1.7705   -1.0254 C.3       1 <0>        -0.1752
      2 C2         -6.1675   -1.9400    0.4101 C.3       1 <0>         0.1132
      3 N1         -4.9145   -2.6991    0.4034 N.pl3     1 <0>        -0.6192
      4 C3         -4.9429   -4.1606    0.5010 C.3       1 <0>         0.1129
      5 C4         -4.8877   -4.5746    1.9729 C.3       1 <0>        -0.1742
      6 C5         -3.6977   -2.0321    0.3043 C.ar      1 <0>         0.2444
      7 C6         -2.5079   -2.7559    0.2981 C.ar      1 <0>        -0.2117
      8 C7         -1.3107   -2.1054    0.2005 C.ar      1 <0>        -0.0328
      9 C8         -1.2811   -0.7074    0.1070 C.ar      1 <0>        -0.1543
     10 C9         -2.4807    0.0170    0.1200 C.ar      1 <0>        -0.0025
     11 C10        -3.6733   -0.6427    0.2121 C.ar      1 <0>        -0.2049
     12 C11         0.0021   -0.0041    0.0020 C.2       1 <0>         0.0054
     13 C12         0.1229    1.0692   -0.8220 C.2       1 <0>        -0.0623
     14 C13        -0.8754    1.5332   -1.7950 C.2       1 <0>         0.4121
     15 O1         -1.9683    1.0477   -2.0316 O.2       1 <0>        -0.4132
     16 C14        -0.2612    2.7196   -2.4187 C.ar      1 <0>        -0.2716
     17 C15        -0.6896    3.6084   -3.4061 C.ar      1 <0>        -0.0056
     18 C16         0.1202    4.6379   -3.7958 C.ar      1 <0>        -0.1648
     19 C17         1.3715    4.8041   -3.2107 C.ar      1 <0>         0.1959
     20 C18         1.8122    3.9287   -2.2267 C.ar      1 <0>         0.0459
     21 C19         0.9980    2.8742   -1.8193 C.ar      1 <0>         0.0871
     22 O2          1.1876    1.9019   -0.8999 O.3       1 <0>        -0.2187
     23 O3          3.0377    4.1010   -1.6609 O.3       1 <0>        -0.5166
     24 O4          2.1688    5.8307   -3.6053 O.3       1 <0>        -0.4923
     25 H1         -7.6097   -1.2005   -1.0203 H         1 <0>         0.0660
     26 H2         -6.8424   -2.7605   -1.4725 H         1 <0>         0.0565
     27 H3         -5.9151   -1.2286   -1.6155 H         1 <0>         0.0615
     28 H4         -5.9940   -0.9500    0.8572 H         1 <0>         0.0784
     29 H5         -6.9213   -2.4818    1.0002 H         1 <0>         0.0757
     30 H6         -5.8705   -4.5404    0.0478 H         1 <0>         0.0757
     31 H7         -4.0764   -4.5805   -0.0308 H         1 <0>         0.0784
     32 H8         -4.9090   -5.6719    2.0462 H         1 <0>         0.0661
     33 H9         -5.7543   -4.1547    2.5046 H         1 <0>         0.0568
     34 H10        -3.9601   -4.1948    2.4261 H         1 <0>         0.0601
     35 H11        -2.5318   -3.8332    0.3702 H         1 <0>         0.1257
     36 H12        -0.3886   -2.6675    0.1951 H         1 <0>         0.1251
     37 H13        -2.4625    1.0947    0.0527 H         1 <0>         0.1169
     38 H14        -4.5985   -0.0856    0.2176 H         1 <0>         0.1241
     39 H15         0.8664   -0.3458    0.5904 H         1 <0>         0.1470
     40 H16        -1.6606    3.4826   -3.8619 H         1 <0>         0.1429
     41 H17        -0.2122    5.3247   -4.5601 H         1 <0>         0.1492
     42 H18         3.3861    3.4073   -0.8816 H         1 <0>         0.4494
     43 H19         3.1589    5.9662   -3.1456 H         1 <0>         0.4475
@<TRIPOS>BOND
     1    1    2 1
     2    1   25 1
     3    1   26 1
     4    1   27 1
     5    2    3 1
     6    2   28 1
     7    2   29 1
     8    3    4 1
     9    3    6 1
    10    4    5 1
    11    4   30 1
    12    4   31 1
    13    5   32 1
    14    5   33 1
    15    5   34 1
    16    6   11 ar
    17    6    7 ar
    18    7    8 ar
    19    7   35 1
    20    8    9 ar
    21    8   36 1
    22    9   10 ar
    23    9   12 1
    24   10   11 ar
    25   10   37 1
    26   11   38 1
    27   12   13 2
    28   12   39 1
    29   13   22 1
    30   13   14 1
    31   14   15 2
    32   14   16 1
    33   16   21 ar
    34   16   17 ar
    35   17   18 ar
    36   17   40 1
    37   18   19 ar
    38   18   41 1
    39   19   20 ar
    40   19   24 1
    41   20   21 ar
    42   20   23 1
    43   21   22 1
    44   23   42 1
    45   24   43 1
