@<TRIPOS>MOLECULE
ZINC12590430
   20    21     0     0     0
SMALL
USER_CHARGES
(5Z)-5-[(4-chlorophenyl)methylene]-2-sulfanyl-thiazol-4-one
@<TRIPOS>ATOM
      1 C1          4.2574    5.5930    0.1834 C.ar      1 <0>        -0.0862
      2 C2          4.3114    6.9662    0.2872 C.ar      1 <0>        -0.1154
      3 C3          5.5339    7.6182    0.2697 C.ar      1 <0>        -0.0311
      4 C4          6.7107    6.8959    0.1543 C.ar      1 <0>        -0.1048
      5 C5          6.6730    5.5218    0.0559 C.ar      1 <0>        -0.0921
      6 C6          5.4421    4.8561    0.0723 C.ar      1 <0>        -0.0590
      7 C7          5.3933    3.3909   -0.0326 C.2       1 <0>        -0.0089
      8 C8          6.5214    2.6936   -0.3146 C.2       1 <0>        -0.1923
      9 C9          6.7560    1.2291   -0.3225 C.2       1 <0>         0.5344
     10 O1          5.8712    0.4336   -0.0504 O.3       1 <0>        -0.4931
     11 N1          7.9690    0.8354   -0.6389 N.2       1 <0>        -0.6458
     12 C10         8.9380    1.6883   -0.9366 C.2       1 <0>         0.4078
     13 S1          8.1468    3.2813   -0.7740 S.3       1 <0>        -0.1413
     14 S2         10.6069    1.3364   -1.3788 S.2       1 <0>        -0.6151
     15 Cl1         5.5914    9.3488    0.3936 Cl        1 <0>        -0.0754
     16 H1          3.3036    5.0864    0.1927 H         1 <0>         0.1377
     17 H2          3.3983    7.5358    0.3781 H         1 <0>         0.1347
     18 H3          7.6598    7.4110    0.1417 H         1 <0>         0.1369
     19 H4          7.5911    4.9600   -0.0333 H         1 <0>         0.1537
     20 H5          4.4417    2.8600    0.1177 H         1 <0>         0.1552
@<TRIPOS>BOND
     1    1    6 ar
     2    1    2 ar
     3    1   16 1
     4    2    3 ar
     5    2   17 1
     6    3    4 ar
     7    3   15 1
     8    4    5 ar
     9    4   18 1
    10    5    6 ar
    11    5   19 1
    12    6    7 1
    13    7    8 2
    14    7   20 1
    15    8   13 1
    16    8    9 1
    17    9   10 1
    18    9   11 2
    19   11   12 1
    20   12   13 1
    21   12   14 2
@<TRIPOS>MOLECULE
ZINC01084626
   22    23     0     0     0
SMALL
USER_CHARGES
(5Z)-5-[(2-hydroxyphenyl)methylene]-2-thioxo-thiazolidin-4-one
@<TRIPOS>ATOM
      1 C1          4.0722    2.4859   -0.3058 C.ar      1 <0>        -0.1248
      2 C2          3.6922    1.9279    0.9042 C.ar      1 <0>        -0.0698
      3 C3          2.4954    1.2463    1.0158 C.ar      1 <0>        -0.1484
      4 C4          1.6689    1.1074   -0.0874 C.ar      1 <0>         0.1534
      5 C5          2.0488    1.6715   -1.3164 C.ar      1 <0>        -0.1332
      6 C6          3.2619    2.3634   -1.4132 C.ar      1 <0>        -0.0740
      7 C7          1.1799    1.5359   -2.4915 C.2       1 <0>         0.1068
      8 C8          1.3426    2.3636   -3.5552 C.2       1 <0>        -0.2544
      9 C9          0.7006    2.3257   -4.8843 C.2       1 <0>         0.5469
     10 O1         -0.1108    1.4673   -5.1781 O.2       1 <0>        -0.4589
     11 N1          1.0521    3.2711   -5.7395 N.am      1 <0>        -0.6281
     12 C10         1.9519    4.2200   -5.4100 C.2       1 <0>         0.2647
     13 S1          2.5310    5.5147   -6.3688 S.2       1 <0>        -0.3266
     14 S2          2.3872    3.8039   -3.7291 S.3       1 <0>         0.0884
     15 O2          0.4952    0.4345    0.0203 O.3       1 <0>        -0.4920
     16 H1          5.0080    3.0198   -0.3811 H         1 <0>         0.1384
     17 H2          4.3341    2.0296    1.7668 H         1 <0>         0.1378
     18 H3          2.2054    0.8181    1.9640 H         1 <0>         0.1404
     19 H4          3.5618    2.8006   -2.3541 H         1 <0>         0.1375
     20 H5          0.4111    0.7776   -2.5100 H         1 <0>         0.1657
     21 H6          0.6534    3.2825   -6.6237 H         1 <0>         0.4300
     22 H7          0.5658   -0.5117   -0.1663 H         1 <0>         0.4001
@<TRIPOS>BOND
     1    1    6 ar
     2    1    2 ar
     3    1   16 1
     4    2    3 ar
     5    2   17 1
     6    3    4 ar
     7    3   18 1
     8    4    5 ar
     9    4   15 1
    10    5    6 ar
    11    5    7 1
    12    6   19 1
    13    7    8 2
    14    7   20 1
    15    8   14 1
    16    8    9 1
    17    9   10 2
    18    9   11 am
    19   11   12 1
    20   11   21 1
    21   12   13 2
    22   12   14 1
    23   15   22 1
@<TRIPOS>MOLECULE
ZINC20220036
   24    25     0     0     0
SMALL
USER_CHARGES
(5Z)-5-[(4-hydroxy-3,5-diiodo-phenyl)methylene]-3-methyl-2-thioxo-thiazolidin-4-one
@<TRIPOS>ATOM
      1 C1          7.3641    1.7672   -0.4853 C.3       1 <0>         0.0503
      2 N1          5.9695    2.1950   -0.3495 N.am      1 <0>        -0.5211
      3 C2          5.0188    1.2802   -0.2600 C.2       1 <0>         0.5483
      4 O1          5.2720    0.0900   -0.2882 O.2       1 <0>        -0.4878
      5 C3          3.6344    1.7757   -0.1246 C.2       1 <0>        -0.3328
      6 C4          2.4735    1.0809   -0.0148 C.2       1 <0>         0.1566
      7 C5          1.2236    1.7845    0.2998 C.ar      1 <0>        -0.2539
      8 C6         -0.0000    1.1066    0.2344 C.ar      1 <0>         0.0289
      9 C7         -1.1698    1.7727    0.5258 C.ar      1 <0>        -0.2220
     10 C8         -1.1363    3.1129    0.8946 C.ar      1 <0>         0.3345
     11 C9          0.0758    3.7907    0.9611 C.ar      1 <0>        -0.2160
     12 C10         1.2511    3.1357    0.6667 C.ar      1 <0>         0.0218
     13 I1          0.1148    5.8119    1.5109 I         1 <0>        -0.0566
     14 O2         -2.2920    3.7633    1.1863 O.3       1 <0>        -0.6156
     15 I2         -3.0022    0.7625    0.4209 I         1 <0>        -0.0612
     16 S1          3.9068    3.5422   -0.1529 S.3       1 <0>         0.0977
     17 C11         5.6845    3.5127   -0.3182 C.2       1 <0>         0.2646
     18 S2          6.7650    4.8368   -0.4192 S.2       1 <0>        -0.4130
     19 H1          7.4114    0.6682   -0.4930 H         1 <0>         0.1027
     20 H2          7.9502    2.1535    0.3616 H         1 <0>         0.0893
     21 H3          7.7777    2.1587   -1.4264 H         1 <0>         0.0895
     22 H4          2.4690   -0.0093   -0.1615 H         1 <0>         0.1548
     23 H5         -0.0268    0.0647   -0.0484 H         1 <0>         0.1212
     24 H6          2.1920    3.6632    0.7183 H         1 <0>         0.1200
@<TRIPOS>BOND
     1    1    2 1
     2    1   19 1
     3    1   20 1
     4    1   21 1
     5    2   17 1
     6    2    3 am
     7    3    4 2
     8    3    5 1
     9    5    6 2
    10    5   16 1
    11    6    7 1
    12    6   22 1
    13    7   12 ar
    14    7    8 ar
    15    8    9 ar
    16    8   23 1
    17    9   10 ar
    18    9   15 1
    19   10   11 ar
    20   10   14 1
    21   11   12 ar
    22   11   13 1
    23   12   24 1
    24   16   17 1
    25   17   18 2
@<TRIPOS>MOLECULE
ZINC20220036
   25    26     0     0     0
SMALL
USER_CHARGES
(5Z)-5-[(4-hydroxy-3,5-diiodo-phenyl)methylene]-3-methyl-2-thioxo-thiazolidin-4-one
@<TRIPOS>ATOM
      1 C1          7.3641    1.7672   -0.4853 C.3       1 <0>         0.0463
      2 N1          5.9695    2.1950   -0.3495 N.am      1 <0>        -0.5214
      3 C2          5.0188    1.2802   -0.2600 C.2       1 <0>         0.5476
      4 O1          5.2720    0.0900   -0.2882 O.2       1 <0>        -0.4559
      5 C3          3.6344    1.7757   -0.1246 C.2       1 <0>        -0.2500
      6 C4          2.4735    1.0809   -0.0148 C.2       1 <0>         0.0981
      7 C5          1.2236    1.7845    0.2998 C.ar      1 <0>        -0.1378
      8 C6         -0.0000    1.1066    0.2344 C.ar      1 <0>         0.0200
      9 C7         -1.1698    1.7727    0.5258 C.ar      1 <0>        -0.1536
     10 C8         -1.1363    3.1129    0.8946 C.ar      1 <0>         0.2574
     11 C9          0.0758    3.7907    0.9611 C.ar      1 <0>        -0.2031
     12 C10         1.2511    3.1357    0.6667 C.ar      1 <0>         0.0041
     13 I1          0.1148    5.8119    1.5109 I         1 <0>         0.0005
     14 O2         -2.2920    3.7633    1.1863 O.3       1 <0>        -0.4768
     15 I2         -3.0022    0.7625    0.4209 I         1 <0>         0.0078
     16 S1          3.9068    3.5422   -0.1529 S.3       1 <0>         0.0634
     17 C11         5.6845    3.5127   -0.3182 C.2       1 <0>         0.2611
     18 S2          6.7650    4.8368   -0.4192 S.2       1 <0>        -0.3241
     19 H1          7.4114    0.6682   -0.4930 H         1 <0>         0.1084
     20 H2          7.9502    2.1535    0.3616 H         1 <0>         0.0963
     21 H3          7.7777    2.1587   -1.4264 H         1 <0>         0.0965
     22 H4          2.4690   -0.0093   -0.1615 H         1 <0>         0.1757
     23 H5         -0.0268    0.0647   -0.0484 H         1 <0>         0.1560
     24 H6          2.1920    3.6632    0.7183 H         1 <0>         0.1450
     25 H7         -2.2678    4.8236    1.4783 H         1 <0>         0.4388
@<TRIPOS>BOND
     1    1    2 1
     2    1   19 1
     3    1   20 1
     4    1   21 1
     5    2   17 1
     6    2    3 am
     7    3    4 2
     8    3    5 1
     9    5    6 2
    10    5   16 1
    11    6    7 1
    12    6   22 1
    13    7   12 ar
    14    7    8 ar
    15    8    9 ar
    16    8   23 1
    17    9   10 ar
    18    9   15 1
    19   10   11 ar
    20   10   14 1
    21   11   12 ar
    22   11   13 1
    23   12   24 1
    24   14   25 1
    25   16   17 1
    26   17   18 2
@<TRIPOS>MOLECULE
ZINC12407284
   22    23     0     0     0
SMALL
USER_CHARGES
(5Z)-5-[(3-hydroxyphenyl)methylene]-2-thioxo-thiazolidin-4-one
@<TRIPOS>ATOM
      1 C1          0.4440    1.3540    1.0281 C.ar      1 <0>        -0.1040
      2 C2          0.3133    0.0029    0.7846 C.ar      1 <0>        -0.0824
      3 C3          1.3838   -0.7151    0.2400 C.ar      1 <0>        -0.0868
      4 C4          2.5819   -0.0560   -0.0544 C.ar      1 <0>        -0.1153
      5 C5          2.6990    1.2998    0.1951 C.ar      1 <0>         0.1131
      6 C6          1.6299    2.0029    0.7360 C.ar      1 <0>        -0.1144
      7 O1          3.8611    1.9446   -0.0898 O.3       1 <0>        -0.4933
      8 C7          1.2497   -2.1555   -0.0220 C.2       1 <0>         0.0947
      9 C8          2.2171   -2.8127   -0.7085 C.2       1 <0>        -0.2488
     10 C9          2.3873   -4.2627   -0.9425 C.2       1 <0>         0.5474
     11 O2          1.6012   -5.0789   -0.4991 O.2       1 <0>        -0.4574
     12 N1          3.4376   -4.6269   -1.6588 N.am      1 <0>        -0.6279
     13 C10         4.3060   -3.7190   -2.1485 C.2       1 <0>         0.2580
     14 S1          5.7109   -3.9912   -3.0883 S.2       1 <0>        -0.3260
     15 S2          3.6328   -2.1638   -1.5861 S.3       1 <0>         0.0913
     16 H1         -0.3842    1.9083    1.4442 H         1 <0>         0.1398
     17 H2         -0.6143   -0.5005    1.0136 H         1 <0>         0.1403
     18 H3          3.4126   -0.6035   -0.4745 H         1 <0>         0.1370
     19 H4          1.7253    3.0612    0.9293 H         1 <0>         0.1392
     20 H5          3.9007    2.3064   -0.9856 H         1 <0>         0.3974
     21 H6          0.3808   -2.6902    0.3323 H         1 <0>         0.1685
     22 H7          3.5869   -5.5689   -1.8357 H         1 <0>         0.4298
@<TRIPOS>BOND
     1    1    6 ar
     2    1    2 ar
     3    1   16 1
     4    2    3 ar
     5    2   17 1
     6    3    4 ar
     7    3    8 1
     8    4    5 ar
     9    4   18 1
    10    5    6 ar
    11    5    7 1
    12    6   19 1
    13    7   20 1
    14    8    9 2
    15    8   21 1
    16    9   15 1
    17    9   10 1
    18   10   11 2
    19   10   12 am
    20   12   13 1
    21   12   22 1
    22   13   14 2
    23   13   15 1
@<TRIPOS>MOLECULE
ZINC09036122
   22    23     0     0     0
SMALL
USER_CHARGES
5-[(4-hydroxy-3,5-diiodo-phenyl)methylene]-2-thioxo-thiazolidin-4-one
@<TRIPOS>ATOM
      1 C1         -0.0036    1.0777   -0.2289 C.ar      1 <0>        -0.0248
      2 C2          1.1794    1.7713    0.0546 C.ar      1 <0>        -0.1014
      3 C3          1.1241    3.1259    0.4055 C.ar      1 <0>        -0.0100
      4 C4         -0.0923    3.7688    0.4700 C.ar      1 <0>        -0.1376
      5 C5         -1.2639    3.0752    0.1880 C.ar      1 <0>         0.2048
      6 C6         -1.2141    1.7318   -0.1670 C.ar      1 <0>        -0.1324
      7 I1         -2.9843    0.6983   -0.5998 I         1 <0>         0.0099
      8 O1         -2.4605    3.7137    0.2535 O.3       1 <0>        -0.4710
      9 I2         -0.1773    5.7952    0.9947 I         1 <0>         0.0069
     10 C7          2.4734    1.0809   -0.0163 C.2       1 <0>         0.0915
     11 C8          2.5447   -0.1772   -0.5210 C.2       1 <0>        -0.2409
     12 C9          3.6860   -1.1133   -0.5581 C.2       1 <0>         0.5483
     13 O2          4.7718   -0.8164   -0.0952 O.2       1 <0>        -0.4535
     14 N1          3.4676   -2.2923   -1.1159 N.am      1 <0>        -0.6272
     15 C10         2.2647   -2.6149   -1.6332 C.2       1 <0>         0.2600
     16 S1          1.7915   -4.0732   -2.3950 S.2       1 <0>        -0.3101
     17 S2          1.2848   -1.1532   -1.3307 S.3       1 <0>         0.0787
     18 H1          0.0336    0.0330   -0.5000 H         1 <0>         0.1447
     19 H2          2.0335    3.6656    0.6247 H         1 <0>         0.1543
     20 H3         -2.7344    4.1222   -0.5791 H         1 <0>         0.4053
     21 H4          3.3685    1.5740    0.3332 H         1 <0>         0.1733
     22 H5          4.1900   -2.9382   -1.1574 H         1 <0>         0.4313
@<TRIPOS>BOND
     1    1    6 ar
     2    1    2 ar
     3    1   18 1
     4    2    3 ar
     5    2   10 1
     6    3    4 ar
     7    3   19 1
     8    4    5 ar
     9    4    9 1
    10    5    6 ar
    11    5    8 1
    12    6    7 1
    13    8   20 1
    14   10   11 2
    15   10   21 1
    16   11   17 1
    17   11   12 1
    18   12   13 2
    19   12   14 am
    20   14   15 1
    21   14   22 1
    22   15   16 2
    23   15   17 1
@<TRIPOS>MOLECULE
ZINC16971828
   23    24     0     0     0
SMALL
USER_CHARGES
(5Z)-5-(o-tolylmethylene)-2-thioxo-thiazolidin-4-one
@<TRIPOS>ATOM
      1 C1          4.0927    6.0547   -0.1991 C.3       1 <0>        -0.1203
      2 C2          2.6348    6.4361   -0.1814 C.ar      1 <0>        -0.0656
      3 C3          2.2660    7.7620   -0.2676 C.ar      1 <0>        -0.1279
      4 C4          0.9279    8.1147   -0.2457 C.ar      1 <0>        -0.1118
      5 C5         -0.0509    7.1411   -0.1430 C.ar      1 <0>        -0.1239
      6 C6          0.3009    5.8108   -0.0612 C.ar      1 <0>        -0.0978
      7 C7          1.6517    5.4456   -0.0827 C.ar      1 <0>        -0.0674
      8 C8          2.0357    4.0292    0.0040 C.2       1 <0>        -0.0066
      9 C9          1.1464    3.1122    0.4592 C.2       1 <0>        -0.1962
     10 C10         1.2397    1.6367    0.4770 C.2       1 <0>         0.5278
     11 O1          2.2151    1.0521    0.0440 O.3       1 <0>        -0.5023
     12 N1          0.2087    0.9850    0.9880 N.2       1 <0>        -0.6499
     13 C11        -0.8723    1.6368    1.4625 C.2       1 <0>         0.3794
     14 S1         -2.2948    0.9765    2.1490 S.2       1 <0>        -0.5680
     15 S2         -0.4607    3.3548    1.2034 S.3       1 <0>        -0.1431
     16 H1          4.7082    6.9627   -0.2809 H         1 <0>         0.0658
     17 H2          4.2898    5.3993   -1.0602 H         1 <0>         0.0736
     18 H3          4.3441    5.5238    0.7309 H         1 <0>         0.0732
     19 H4          3.0235    8.5276   -0.3476 H         1 <0>         0.1217
     20 H5          0.6458    9.1553   -0.3087 H         1 <0>         0.1206
     21 H6         -1.0929    7.4246   -0.1265 H         1 <0>         0.1242
     22 H7         -0.4639    5.0525    0.0197 H         1 <0>         0.1441
     23 H8          3.0444    3.7132   -0.3004 H         1 <0>         0.1502
@<TRIPOS>BOND
     1    1    2 1
     2    1   16 1
     3    1   17 1
     4    1   18 1
     5    2    7 ar
     6    2    3 ar
     7    3    4 ar
     8    3   19 1
     9    4    5 ar
    10    4   20 1
    11    5    6 ar
    12    5   21 1
    13    6    7 ar
    14    6   22 1
    15    7    8 1
    16    8    9 2
    17    8   23 1
    18    9   15 1
    19    9   10 1
    20   10   11 1
    21   10   12 2
    22   12   13 1
    23   13   14 2
    24   13   15 1
@<TRIPOS>MOLECULE
ZINC01199540
   31    33     0     0     0
SMALL
USER_CHARGES
5-[(4-phenylphenyl)methylene]-2-thioxo-thiazolidin-4-one
@<TRIPOS>ATOM
      1 C1         -1.6671   -8.7342    0.5383 C.ar      1 <0>        -0.1095
      2 C2         -2.3728   -7.5474    0.4526 C.ar      1 <0>        -0.1183
      3 C3         -1.6996   -6.3464    0.3600 C.ar      1 <0>        -0.1030
      4 C4         -0.3054   -6.3306    0.3534 C.ar      1 <0>        -0.0627
      5 C5          0.4004   -7.5303    0.4351 C.ar      1 <0>        -0.1031
      6 C6         -0.2837   -8.7248    0.5317 C.ar      1 <0>        -0.1189
      7 C7          0.4237   -5.0438    0.2537 C.ar      1 <0>        -0.0041
      8 C8          1.8194   -5.0326    0.2474 C.ar      1 <0>        -0.1176
      9 C9          2.4937   -3.8481    0.1560 C.ar      1 <0>        -0.0649
     10 C10         1.7832   -2.6441    0.0686 C.ar      1 <0>        -0.1084
     11 C11         0.3826   -2.6579    0.0805 C.ar      1 <0>        -0.0757
     12 C12        -0.2868   -3.8455    0.1667 C.ar      1 <0>        -0.1111
     13 C13         2.5053   -1.3694   -0.0292 C.2       1 <0>         0.0985
     14 C14         1.8264   -0.2229   -0.2876 C.2       1 <0>        -0.2541
     15 C15         2.3028    1.1762   -0.2807 C.2       1 <0>         0.5472
     16 O1          3.4574    1.4574   -0.0184 O.2       1 <0>        -0.4594
     17 N1          1.4103    2.1067   -0.5747 N.am      1 <0>        -0.6278
     18 C16         0.1320    1.7905   -0.8651 C.2       1 <0>         0.2582
     19 S1         -1.1566    2.8414   -1.2727 S.2       1 <0>        -0.3319
     20 S2          0.1101    0.0103   -0.7296 S.3       1 <0>         0.0914
     21 H1         -2.1983   -9.6718    0.6102 H         1 <0>         0.1257
     22 H2         -3.4527   -7.5609    0.4578 H         1 <0>         0.1276
     23 H3         -2.2515   -5.4205    0.2925 H         1 <0>         0.1279
     24 H4          1.4803   -7.5245    0.4260 H         1 <0>         0.1274
     25 H5          0.2618   -9.6545    0.5985 H         1 <0>         0.1271
     26 H6          2.3668   -5.9612    0.3144 H         1 <0>         0.1369
     27 H7          3.5737   -3.8399    0.1515 H         1 <0>         0.1393
     28 H8         -0.1676   -1.7307    0.0177 H         1 <0>         0.1307
     29 H9         -1.3668   -3.8569    0.1721 H         1 <0>         0.1374
     30 H10         3.5768   -1.3441    0.1044 H         1 <0>         0.1660
     31 H11         1.6814    3.0380   -0.5815 H         1 <0>         0.4291
@<TRIPOS>BOND
     1    1    6 ar
     2    1    2 ar
     3    1   21 1
     4    2    3 ar
     5    2   22 1
     6    3    4 ar
     7    3   23 1
     8    4    5 ar
     9    4    7 1
    10    5    6 ar
    11    5   24 1
    12    6   25 1
    13    7   12 ar
    14    7    8 ar
    15    8    9 ar
    16    8   26 1
    17    9   10 ar
    18    9   27 1
    19   10   11 ar
    20   10   13 1
    21   11   12 ar
    22   11   28 1
    23   12   29 1
    24   13   14 2
    25   13   30 1
    26   14   20 1
    27   14   15 1
    28   15   16 2
    29   15   17 am
    30   17   18 1
    31   17   31 1
    32   18   19 2
    33   18   20 1
@<TRIPOS>MOLECULE
ZINC17022326
   20    21     0     0     0
SMALL
USER_CHARGES
(5Z)-5-[(3,4-dichlorophenyl)methylene]-2-thioxo-thiazolidin-4-one
@<TRIPOS>ATOM
      1 C1          0.6171   -2.7412   -0.1145 C.ar      1 <0>        -0.0914
      2 C2          0.9059   -4.0857   -0.2109 C.ar      1 <0>        -0.0910
      3 C3         -0.1187   -5.0130   -0.3048 C.ar      1 <0>        -0.0300
      4 C4         -1.4419   -4.5976   -0.2973 C.ar      1 <0>        -0.0328
      5 C5         -1.7462   -3.2564   -0.1956 C.ar      1 <0>        -0.0810
      6 C6         -0.7155   -2.3142   -0.1004 C.ar      1 <0>        -0.0412
      7 C7         -1.0311   -0.8829    0.0078 C.2       1 <0>        -0.0183
      8 C8         -0.0455    0.0109    0.2714 C.2       1 <0>        -0.1811
      9 C9         -0.0896    1.4883    0.2756 C.2       1 <0>         0.5277
     10 O1         -1.1092    2.0985    0.0133 O.3       1 <0>        -0.4965
     11 N1          1.0372    2.1131    0.5736 N.2       1 <0>        -0.6469
     12 C10         2.1662    1.4330    0.8584 C.2       1 <0>         0.3750
     13 S1          3.7086    2.0557    1.2638 S.2       1 <0>        -0.5565
     14 S2          1.6638   -0.2740    0.7105 S.3       1 <0>        -0.1416
     15 Cl1        -2.7180   -5.7687   -0.4156 Cl        1 <0>        -0.0527
     16 Cl2         0.2552   -6.7035   -0.4320 Cl        1 <0>        -0.0533
     17 H1          1.4174   -2.0194   -0.0455 H         1 <0>         0.1595
     18 H2          1.9339   -4.4166   -0.2173 H         1 <0>         0.1468
     19 H3         -2.7769   -2.9338   -0.1898 H         1 <0>         0.1479
     20 H4         -2.0666   -0.5365   -0.1250 H         1 <0>         0.1574
@<TRIPOS>BOND
     1    1    6 ar
     2    1    2 ar
     3    1   17 1
     4    2    3 ar
     5    2   18 1
     6    3    4 ar
     7    3   16 1
     8    4    5 ar
     9    4   15 1
    10    5    6 ar
    11    5   19 1
    12    6    7 1
    13    7    8 2
    14    7   20 1
    15    8   14 1
    16    8    9 1
    17    9   10 1
    18    9   11 2
    19   11   12 1
    20   12   13 2
    21   12   14 1
