@<TRIPOS>MOLECULE
ZINC16052819
   53    55     0     0     0
SMALL
USER_CHARGES
2,2-diphenyl-N-[(1R)-2,2,2-trichloro-1-[(4-fluoro-3-nitro-phenyl)carbamothioylamino]ethyl]acetamide
@<TRIPOS>ATOM
      1 C1          4.5566    1.5531    0.1988 C.ar      1 <0>        -0.1123
      2 C2          3.5052    2.4176    0.4401 C.ar      1 <0>        -0.1156
      3 C3          2.2067    1.9433    0.4408 C.ar      1 <0>        -0.1081
      4 C4          1.9597    0.6046    0.2007 C.ar      1 <0>        -0.0836
      5 C5          3.0115   -0.2609   -0.0350 C.ar      1 <0>        -0.1039
      6 C6          4.3096    0.2144   -0.0413 C.ar      1 <0>        -0.1129
      7 C7          0.5442    0.0875    0.2019 C.3       1 <0>        -0.0178
      8 C8          0.1544   -0.3127   -1.1977 C.ar      1 <0>        -0.0716
      9 C9          0.7858   -1.3772   -1.8134 C.ar      1 <0>        -0.0780
     10 C10         0.4245   -1.7477   -3.0952 C.ar      1 <0>        -0.1200
     11 C11        -0.5605   -1.0467   -3.7655 C.ar      1 <0>        -0.1131
     12 C12        -1.1879    0.0214   -3.1520 C.ar      1 <0>        -0.1228
     13 C13        -0.8306    0.3882   -1.8680 C.ar      1 <0>        -0.1079
     14 C14         0.4475   -1.1097    1.1121 C.2       1 <0>         0.5223
     15 O1          0.0966   -2.1823    0.6679 O.2       1 <0>        -0.4610
     16 N1          0.7510   -0.9885    2.4196 N.am      1 <0>        -0.7297
     17 C15         0.6570   -2.1523    3.3044 C.3       1 <0>         0.3588
     18 H1          0.5923   -3.0603    2.7048 H         1 <0>         0.1994
     19 C16         1.8991   -2.2171    4.1955 C.3       1 <0>         0.1070
     20 Cl1         2.0062   -0.7153    5.1873 Cl        1 <0>        -0.0871
     21 Cl2         1.7834   -3.6495    5.2844 Cl        1 <0>        -0.0558
     22 Cl3         3.3712   -2.3630    3.1648 Cl        1 <0>        -0.0432
     23 N2         -0.5392   -2.0338    4.1418 N.pl3     1 <0>        -0.6876
     24 C17        -1.6242   -2.7883    3.8776 C.2       1 <0>         0.5430
     25 S1         -1.6047   -3.8852    2.5633 S.2       1 <0>        -0.5220
     26 N3         -2.7247   -2.6793    4.6480 N.pl3     1 <0>        -0.6270
     27 C18        -3.8081   -3.5430    4.4473 C.ar      1 <0>         0.1196
     28 C19        -5.1069   -3.0545    4.5054 C.ar      1 <0>        -0.0430
     29 C20        -6.1739   -3.9070    4.3010 C.ar      1 <0>        -0.1465
     30 C21        -5.9500   -5.2504    4.0500 C.ar      1 <0>         0.1767
     31 C22        -4.6562   -5.7406    3.9978 C.ar      1 <0>        -0.0748
     32 C23        -3.5858   -4.8901    4.1956 C.ar      1 <0>         0.0132
     33 N4         -4.4198   -7.1769    3.7293 N.pl3     1 <0>         0.0307
     34 O2         -3.2818   -7.6085    3.6829 O.2       1 <0>        -0.1409
     35 O3         -5.3633   -7.9272    3.5549 O.3       1 <0>        -0.1477
     36 F1         -6.9954   -6.0837    3.8554 F         1 <0>        -0.0978
     37 H2          5.5710    1.9238    0.1975 H         1 <0>         0.1233
     38 H3          3.6982    3.4635    0.6277 H         1 <0>         0.1245
     39 H4          1.3853    2.6187    0.6293 H         1 <0>         0.1233
     40 H5          2.8188   -1.3077   -0.2182 H         1 <0>         0.1219
     41 H6          5.1310   -0.4609   -0.2302 H         1 <0>         0.1231
     42 H7         -0.1278    0.8689    0.5568 H         1 <0>         0.1109
     43 H8          1.5584   -1.9221   -1.2913 H         1 <0>         0.1206
     44 H9          0.9144   -2.5824   -3.5744 H         1 <0>         0.1224
     45 H10        -0.8402   -1.3338   -4.7684 H         1 <0>         0.1216
     46 H11        -1.9575    0.5690   -3.6757 H         1 <0>         0.1221
     47 H12        -1.3208    1.2227   -1.3886 H         1 <0>         0.1188
     48 H13         1.0317   -0.1306    2.7748 H         1 <0>         0.4053
     49 H14        -0.5502   -1.4123    4.8865 H         1 <0>         0.4024
     50 H15        -2.7661   -2.0024    5.3415 H         1 <0>         0.4150
     51 H16        -5.2821   -2.0079    4.7059 H         1 <0>         0.1562
     52 H17        -7.1839   -3.5266    4.3417 H         1 <0>         0.1678
     53 H18        -2.5768   -5.2729    4.1547 H         1 <0>         0.1822
@<TRIPOS>BOND
     1    1    6 ar
     2    1    2 ar
     3    1   37 1
     4    2    3 ar
     5    2   38 1
     6    3    4 ar
     7    3   39 1
     8    4    5 ar
     9    4    7 1
    10    5    6 ar
    11    5   40 1
    12    6   41 1
    13    7    8 1
    14    7   14 1
    15    7   42 1
    16    8   13 ar
    17    8    9 ar
    18    9   10 ar
    19    9   43 1
    20   10   11 ar
    21   10   44 1
    22   11   12 ar
    23   11   45 1
    24   12   13 ar
    25   12   46 1
    26   13   47 1
    27   14   15 2
    28   14   16 am
    29   16   17 1
    30   16   48 1
    31   17   18 1
    32   17   19 1
    33   17   23 1
    34   19   20 1
    35   19   21 1
    36   19   22 1
    37   23   24 1
    38   23   49 1
    39   24   25 2
    40   24   26 1
    41   26   27 1
    42   26   50 1
    43   27   32 ar
    44   27   28 ar
    45   28   29 ar
    46   28   51 1
    47   29   30 ar
    48   29   52 1
    49   30   31 ar
    50   30   36 1
    51   31   32 ar
    52   31   33 1
    53   32   53 1
    54   33   34 2
    55   33   35 1
@<TRIPOS>MOLECULE
ZINC16052820
   53    55     0     0     0
SMALL
USER_CHARGES
2,2-diphenyl-N-[(1S)-2,2,2-trichloro-1-[(4-fluoro-3-nitro-phenyl)carbamothioylamino]ethyl]acetamide
@<TRIPOS>ATOM
      1 C1         -5.8649    0.0595    4.8234 C.ar      1 <0>        -0.1116
      2 C2         -6.1979    1.2418    4.1893 C.ar      1 <0>        -0.1214
      3 C3         -5.2082    2.0294    3.6315 C.ar      1 <0>        -0.1066
      4 C4         -3.8857    1.6345    3.7074 C.ar      1 <0>        -0.0730
      5 C5         -3.5533    0.4494    4.3366 C.ar      1 <0>        -0.0775
      6 C6         -4.5424   -0.3357    4.8990 C.ar      1 <0>        -0.1205
      7 C7         -2.8068    2.4930    3.0990 C.3       1 <0>        -0.0177
      8 C8         -1.9301    3.0477    4.1920 C.ar      1 <0>        -0.0830
      9 C9         -1.1028    2.2041    4.9095 C.ar      1 <0>        -0.1036
     10 C10        -0.2950    2.7137    5.9089 C.ar      1 <0>        -0.1134
     11 C11        -0.3219    4.0653    6.1974 C.ar      1 <0>        -0.1127
     12 C12        -1.1534    4.9080    5.4837 C.ar      1 <0>        -0.1158
     13 C13        -1.9573    4.3992    4.4809 C.ar      1 <0>        -0.1079
     14 C14        -1.9726    1.6606    2.1596 C.2       1 <0>         0.5220
     15 O1         -2.2289    0.4860    2.0000 O.2       1 <0>        -0.4597
     16 N1         -0.9417    2.2216    1.4970 N.am      1 <0>        -0.7299
     17 C15        -0.1308    1.4124    0.5838 C.3       1 <0>         0.3587
     18 H1         -0.3260    0.3553    0.7642 H         1 <0>         0.1991
     19 C16         1.3518    1.7053    0.8228 C.3       1 <0>         0.1076
     20 Cl1         1.7779    1.2976    2.5266 Cl        1 <0>        -0.0432
     21 Cl2         2.3499    0.7094   -0.3010 Cl        1 <0>        -0.0584
     22 Cl3         1.6748    3.4538    0.5244 Cl        1 <0>        -0.0865
     23 N2         -0.4770    1.7437   -0.8006 N.pl3     1 <0>        -0.6879
     24 C17        -1.2263    0.8932   -1.5298 C.2       1 <0>         0.5431
     25 S1         -1.7736   -0.5741   -0.8382 S.2       1 <0>        -0.5222
     26 N3         -1.5448    1.1980   -2.8034 N.pl3     1 <0>        -0.6271
     27 C18        -2.4191    0.3743   -3.5227 C.ar      1 <0>         0.1186
     28 C19        -2.1659    0.0898   -4.8582 C.ar      1 <0>        -0.0430
     29 C20        -3.0262   -0.7279   -5.5641 C.ar      1 <0>        -0.1467
     30 C21        -4.1471   -1.2546   -4.9444 C.ar      1 <0>         0.1764
     31 C22        -4.4047   -0.9673   -3.6147 C.ar      1 <0>        -0.0748
     32 C23        -3.5434   -0.1548   -2.9033 C.ar      1 <0>         0.0129
     33 N4         -5.6035   -1.5316   -2.9549 N.pl3     1 <0>         0.0301
     34 O2         -5.8302   -1.2794   -1.7851 O.2       1 <0>        -0.1390
     35 O3         -6.3632   -2.2481   -3.5818 O.3       1 <0>        -0.1485
     36 F1         -4.9903   -2.0502   -5.6382 F         1 <0>        -0.0980
     37 H2         -6.6381   -0.5557    5.2595 H         1 <0>         0.1215
     38 H3         -7.2312    1.5503    4.1299 H         1 <0>         0.1225
     39 H4         -5.4684    2.9532    3.1360 H         1 <0>         0.1188
     40 H5         -2.5204    0.1386    4.3921 H         1 <0>         0.1197
     41 H6         -4.2823   -1.2596    5.3941 H         1 <0>         0.1217
     42 H7         -3.2640    3.3147    2.5478 H         1 <0>         0.1113
     43 H8         -1.0848    1.1474    4.6868 H         1 <0>         0.1217
     44 H9          0.3544    2.0552    6.4667 H         1 <0>         0.1226
     45 H10         0.3065    4.4628    6.9807 H         1 <0>         0.1229
     46 H11        -1.1746    5.9639    5.7094 H         1 <0>         0.1243
     47 H12        -2.6069    5.0576    3.9233 H         1 <0>         0.1235
     48 H13        -0.7368    3.1610    1.6247 H         1 <0>         0.4053
     49 H14        -0.1669    2.5751   -1.1924 H         1 <0>         0.4024
     50 H15        -1.1683    1.9880   -3.2218 H         1 <0>         0.4151
     51 H16        -1.2945    0.5043   -5.3432 H         1 <0>         0.1568
     52 H17        -2.8273   -0.9529   -6.6015 H         1 <0>         0.1679
     53 H18        -3.7446    0.0691   -1.8661 H         1 <0>         0.1828
@<TRIPOS>BOND
     1    1    6 ar
     2    1    2 ar
     3    1   37 1
     4    2    3 ar
     5    2   38 1
     6    3    4 ar
     7    3   39 1
     8    4    5 ar
     9    4    7 1
    10    5    6 ar
    11    5   40 1
    12    6   41 1
    13    7    8 1
    14    7   14 1
    15    7   42 1
    16    8   13 ar
    17    8    9 ar
    18    9   10 ar
    19    9   43 1
    20   10   11 ar
    21   10   44 1
    22   11   12 ar
    23   11   45 1
    24   12   13 ar
    25   12   46 1
    26   13   47 1
    27   14   15 2
    28   14   16 am
    29   16   17 1
    30   16   48 1
    31   17   18 1
    32   17   19 1
    33   17   23 1
    34   19   20 1
    35   19   21 1
    36   19   22 1
    37   23   24 1
    38   23   49 1
    39   24   25 2
    40   24   26 1
    41   26   27 1
    42   26   50 1
    43   27   32 ar
    44   27   28 ar
    45   28   29 ar
    46   28   51 1
    47   29   30 ar
    48   29   52 1
    49   30   31 ar
    50   30   36 1
    51   31   32 ar
    52   31   33 1
    53   32   53 1
    54   33   34 2
    55   33   35 1
@<TRIPOS>MOLECULE
ZINC03817388
   44    48     0     0     0
SMALL
USER_CHARGES
2-morpholino-6-thianthren-1-yl-pyran-4-one
@<TRIPOS>ATOM
      1 C1         -0.0126    1.0758    0.0080 C.ar      1 <0>        -0.0962
      2 C2         -1.2178    1.7530    0.0173 C.ar      1 <0>        -0.0960
      3 C3         -1.2290    3.1318    0.0292 C.ar      1 <0>        -0.0786
      4 C4         -0.0354    3.8584    0.0205 C.ar      1 <0>        -0.1130
      5 C5          1.1703    3.1811    0.0067 C.ar      1 <0>        -0.1118
      6 C6          1.1707    1.7837    0.0005 C.ar      1 <0>        -0.0782
      7 S1          2.7249    3.9920   -0.0029 S.3       1 <0>         0.0473
      8 C7          2.4855    5.5379   -0.7955 C.ar      1 <0>        -0.1136
      9 C8          3.5773    6.0950   -1.4653 C.ar      1 <0>        -0.0568
     10 C9          3.4748    7.3097   -2.1156 C.ar      1 <0>        -0.0984
     11 C10         2.2794    7.9944   -2.1115 C.ar      1 <0>        -0.0604
     12 C11         1.1775    7.4549   -1.4479 C.ar      1 <0>        -0.0294
     13 C12         1.2797    6.2143   -0.7821 C.ar      1 <0>        -0.0806
     14 S2         -0.1517    5.6080    0.0287 S.3       1 <0>         0.0481
     15 C13        -0.1032    8.1853   -1.4422 C.2       1 <0>         0.1725
     16 C14        -0.1265    9.4998   -1.0893 C.2       1 <0>        -0.2662
     17 C15        -1.3620   10.1914   -1.0927 C.2       1 <0>         0.4064
     18 O1         -1.4187   11.3740   -0.7859 O.2       1 <0>        -0.4949
     19 C16        -2.5273    9.4817   -1.4538 C.2       1 <0>        -0.3317
     20 C17        -2.4253    8.1661   -1.7894 C.2       1 <0>         0.3238
     21 O2         -1.2363    7.5434   -1.7804 O.3       1 <0>        -0.2204
     22 N1         -3.5546    7.4666   -2.1425 N.pl3     1 <0>        -0.4524
     23 C18        -4.5684    7.5318   -1.0798 C.3       1 <0>         0.0142
     24 C19        -5.8283    6.7923   -1.5378 C.3       1 <0>         0.0625
     25 O3         -5.4872    5.4459   -1.8789 O.3       1 <0>        -0.3783
     26 C20        -4.5027    5.3453   -2.9113 C.3       1 <0>         0.0620
     27 C21        -3.2294    6.0702   -2.4672 C.3       1 <0>         0.0054
     28 H1          0.0021   -0.0041    0.0020 H         1 <0>         0.1391
     29 H2         -2.1477    1.2038    0.0196 H         1 <0>         0.1390
     30 H3         -2.1726    3.6571    0.0401 H         1 <0>         0.1334
     31 H4          2.1102    1.2512   -0.0108 H         1 <0>         0.1372
     32 H5          4.5192    5.5668   -1.4745 H         1 <0>         0.1435
     33 H6          4.3317    7.7222   -2.6274 H         1 <0>         0.1491
     34 H7          2.1957    8.9437   -2.6196 H         1 <0>         0.1476
     35 H8          0.7854   10.0092   -0.8147 H         1 <0>         0.1607
     36 H9         -3.4875    9.9760   -1.4641 H         1 <0>         0.1585
     37 H10        -4.1793    7.0626   -0.1762 H         1 <0>         0.0684
     38 H11        -4.8128    8.5738   -0.8733 H         1 <0>         0.1081
     39 H12        -6.2478    7.2936   -2.4101 H         1 <0>         0.0687
     40 H13        -6.5623    6.7888   -0.7320 H         1 <0>         0.1129
     41 H14        -4.8836    5.8046   -3.8235 H         1 <0>         0.0665
     42 H15        -4.2772    4.2955   -3.0991 H         1 <0>         0.1090
     43 H16        -2.4963    6.0452   -3.2735 H         1 <0>         0.1007
     44 H17        -2.8188    5.5776   -1.5858 H         1 <0>         0.0724
@<TRIPOS>BOND
     1    1    6 ar
     2    1    2 ar
     3    1   28 1
     4    2    3 ar
     5    2   29 1
     6    3    4 ar
     7    3   30 1
     8    4   14 1
     9    4    5 ar
    10    5    6 ar
    11    5    7 1
    12    6   31 1
    13    7    8 1
    14    8   13 ar
    15    8    9 ar
    16    9   10 ar
    17    9   32 1
    18   10   11 ar
    19   10   33 1
    20   11   12 ar
    21   11   34 1
    22   12   13 ar
    23   12   15 1
    24   13   14 1
    25   15   21 1
    26   15   16 2
    27   16   17 1
    28   16   35 1
    29   17   18 2
    30   17   19 1
    31   19   20 2
    32   19   36 1
    33   20   21 1
    34   20   22 1
    35   22   27 1
    36   22   23 1
    37   23   24 1
    38   23   37 1
    39   23   38 1
    40   24   25 1
    41   24   39 1
    42   24   40 1
    43   25   26 1
    44   26   27 1
    45   26   41 1
    46   26   42 1
    47   27   43 1
    48   27   44 1
@<TRIPOS>MOLECULE
ZINC08437745
    8     7     0     0     0
SMALL
USER_CHARGES

@<TRIPOS>ATOM
      1 C1         -0.0211    1.7077    0.0114 C.2       1 <0>         0.5828
      2 S1          0.0021   -0.0041    0.0020 S.2       1 <0>        -0.6417
      3 N1          1.1368    2.3974    0.0041 N.pl3     1 <0>        -0.8030
      4 N2         -1.1974    2.3657    0.0206 N.pl3     1 <0>        -0.8030
      5 H1          1.9833    1.9239   -0.0065 H         1 <0>         0.4347
      6 H2          1.1236    3.3673    0.0094 H         1 <0>         0.3978
      7 H3         -2.0307    1.8693    0.0218 H         1 <0>         0.4347
      8 H4         -1.2105    3.3356    0.0259 H         1 <0>         0.3978
@<TRIPOS>BOND
     1    1    2 2
     2    1    3 1
     3    1    4 1
     4    3    5 1
     5    3    6 1
     6    4    7 1
     7    4    8 1
