@<TRIPOS>MOLECULE
ZINC01482603
   45    48     0     0     0
SMALL
USER_CHARGES

@<TRIPOS>ATOM
      1 C1         -0.0184    1.5028    0.0103 C.3       1 <0>        -0.1464
      2 C2          0.0021   -0.0041    0.0020 C.ar      1 <0>         0.2689
      3 C3          0.0053   -0.6726   -1.2154 C.ar      1 <0>        -0.2389
      4 C4          0.0240   -2.0536   -1.2478 C.ar      1 <0>         0.3381
      5 C5          0.0396   -2.7368   -0.0025 C.ar      1 <0>        -0.0797
      6 C6          0.0595   -4.1377    0.0540 C.ar      1 <0>        -0.0953
      7 C7          0.0745   -4.7641    1.2642 C.ar      1 <0>        -0.0740
      8 C8          0.0704   -4.0314    2.4476 C.ar      1 <0>        -0.1393
      9 C9          0.0508   -2.6657    2.4293 C.ar      1 <0>         0.1087
     10 C10         0.0353   -1.9851    1.1939 C.ar      1 <0>         0.1504
     11 N1          0.0217   -0.6483    1.1454 N.ar      1 <0>        -0.4979
     12 O1          0.0470   -1.9668    3.5945 O.3       1 <0>        -0.3186
     13 C11         0.0644   -2.7248    4.8057 C.3       1 <0>         0.0242
     14 N2          0.0248   -2.5436   -2.5412 N.pl3     1 <0>        -0.4924
     15 C12         0.0055   -1.4355   -3.5010 C.3       1 <0>         0.0998
     16 C13        -0.0080   -0.1620   -2.6381 C.3       1 <0>        -0.0693
     17 C14         0.0422   -3.9005   -2.8840 C.ar      1 <0>         0.0547
     18 C15        -1.1497   -4.5903   -3.0545 C.ar      1 <0>        -0.0648
     19 C16        -1.1299   -5.9300   -3.3934 C.ar      1 <0>        -0.1438
     20 C17         0.0754   -6.5860   -3.5629 C.ar      1 <0>        -0.0497
     21 C18         1.2672   -5.9053   -3.3947 C.ar      1 <0>        -0.2006
     22 C19         1.2562   -4.5610   -3.0606 C.ar      1 <0>         0.1455
     23 O2          2.4275   -3.8890   -2.9000 O.3       1 <0>        -0.3119
     24 C20         3.6332   -4.6304   -3.0970 C.3       1 <0>         0.0219
     25 H1          1.0042    1.8801    0.0026 H         1 <0>         0.1171
     26 H2         -0.5455    1.8639   -0.8728 H         1 <0>         0.1151
     27 H3         -0.5286    1.8543    0.9071 H         1 <0>         0.0986
     28 H4          0.0625   -4.7174   -0.8572 H         1 <0>         0.1492
     29 H5          0.0895   -5.8433    1.3055 H         1 <0>         0.1500
     30 H6          0.0825   -4.5505    3.3946 H         1 <0>         0.1560
     31 H7         -0.8163   -3.3658    4.8459 H         1 <0>         0.0686
     32 H8          0.9634   -3.3403    4.8363 H         1 <0>         0.0682
     33 H9          0.0593   -2.0465    5.6590 H         1 <0>         0.1171
     34 H10         0.8981   -1.4601   -4.1262 H         1 <0>         0.1022
     35 H11        -0.8917   -1.4845   -4.1182 H         1 <0>         0.1022
     36 H12        -0.9124    0.4163   -2.8268 H         1 <0>         0.1082
     37 H13         0.8787    0.4407   -2.8348 H         1 <0>         0.1081
     38 H14        -2.0926   -4.0805   -2.9220 H         1 <0>         0.1398
     39 H15        -2.0581   -6.4659   -3.5259 H         1 <0>         0.1423
     40 H16         0.0861   -7.6331   -3.8271 H         1 <0>         0.1415
     41 H17         2.2068   -6.4209   -3.5276 H         1 <0>         0.1442
     42 H18         3.6707   -5.4579   -2.3886 H         1 <0>         0.0626
     43 H19         3.6570   -5.0215   -4.1142 H         1 <0>         0.0648
     44 H20         4.4913   -3.9773   -2.9387 H         1 <0>         0.1081
     45 H21         0.0230   -0.1438    1.9739 H         1 <0>         0.4462
@<TRIPOS>BOND
     1    1    2 1
     2    1   25 1
     3    1   26 1
     4    1   27 1
     5    2   11 ar
     6    2    3 ar
     7    3   16 1
     8    3    4 ar
     9    4    5 ar
    10    4   14 1
    11    5   10 ar
    12    5    6 ar
    13    6    7 ar
    14    6   28 1
    15    7    8 ar
    16    7   29 1
    17    8    9 ar
    18    8   30 1
    19    9   10 ar
    20    9   12 1
    21   10   11 ar
    22   11   45 1
    23   12   13 1
    24   13   31 1
    25   13   32 1
    26   13   33 1
    27   14   15 1
    28   14   17 1
    29   15   16 1
    30   15   34 1
    31   15   35 1
    32   16   36 1
    33   16   37 1
    34   17   22 ar
    35   17   18 ar
    36   18   19 ar
    37   18   38 1
    38   19   20 ar
    39   19   39 1
    40   20   21 ar
    41   20   40 1
    42   21   22 ar
    43   21   41 1
    44   22   23 1
    45   23   24 1
    46   24   42 1
    47   24   43 1
    48   24   44 1
@<TRIPOS>MOLECULE
ZINC04693574
   44    46     0     0     0
SMALL
USER_CHARGES

@<TRIPOS>ATOM
      1 C1         -0.0184    1.5028    0.0103 C.3       1 <0>        -0.1220
      2 C2          0.0021   -0.0041    0.0020 C.ar      1 <0>        -0.1100
      3 C3          0.0060   -0.6969   -1.1913 C.ar      1 <0>         0.1417
      4 N1          0.0243   -2.0162   -1.2071 N.ar      1 <0>        -0.4435
      5 C4          0.0391   -2.7261   -0.0946 C.ar      1 <0>         0.1786
      6 C5          0.0364   -2.1077    1.1386 C.ar      1 <0>        -0.0998
      7 C6          0.0231   -0.7162    1.1984 C.ar      1 <0>         0.2271
      8 O1          0.0252   -0.0709    2.3926 O.3       1 <0>        -0.3165
      9 C7         -1.2469    0.2198    2.9751 C.3       1 <0>         0.0292
     10 C8          0.0534   -2.9265    2.4036 C.3       1 <0>        -0.1304
     11 C9          0.0587   -4.2309   -0.1724 C.3       1 <0>        -0.4766
     12 S1          1.7767   -4.8120   -0.2119 S.o       1 <0>         1.4367
     13 O2          2.3838   -4.5816    1.0521 O.2       1 <0>        -0.7983
     14 C10         1.6315   -6.5658   -0.3016 C.2       1 <0>        -0.1019
     15 N2          1.5647   -7.2524   -1.4042 N.2       1 <0>        -0.3890
     16 H1          1.6139   -7.1382    1.7064 H         1 <0>         0.4299
     17 C11         1.4585   -8.5753   -1.1128 C.ar      1 <0>        -0.0041
     18 C12         1.3568   -9.7278   -1.8961 C.ar      1 <0>        -0.0037
     19 C13         1.2620  -10.9524   -1.2986 C.ar      1 <0>        -0.2019
     20 C14         1.2655  -11.0665    0.0885 C.ar      1 <0>         0.1771
     21 C15         1.3650   -9.9376    0.8821 C.ar      1 <0>        -0.1734
     22 C16         1.4624   -8.6874    0.2881 C.ar      1 <0>         0.1195
     23 N3          1.5788   -7.4000    0.7731 N.pl3     1 <0>        -0.5684
     24 O3          1.1703  -12.2933    0.6665 O.3       1 <0>        -0.3090
     25 C17         1.0700  -13.4174   -0.2101 C.3       1 <0>         0.0224
     26 H2          1.0042    1.8801    0.0026 H         1 <0>         0.1042
     27 H3         -0.5455    1.8639   -0.8728 H         1 <0>         0.0945
     28 H4         -0.5286    1.8543    0.9071 H         1 <0>         0.0912
     29 H5         -0.0064   -0.1526   -2.1241 H         1 <0>         0.2203
     30 H6         -1.7894   -0.7101    3.1457 H         1 <0>         0.0633
     31 H7         -1.1025    0.7356    3.9244 H         1 <0>         0.1230
     32 H8         -1.8191    0.8557    2.2995 H         1 <0>         0.0660
     33 H9          1.0850   -3.1100    2.7039 H         1 <0>         0.1152
     34 H10        -0.4642   -2.3838    3.1946 H         1 <0>         0.0951
     35 H11        -0.4484   -3.8780    2.2274 H         1 <0>         0.0841
     36 H12        -0.4454   -4.6464    0.7001 H         1 <0>         0.1490
     37 H13        -0.4552   -4.5547   -1.0774 H         1 <0>         0.1649
     38 H14         1.3527   -9.6504   -2.9733 H         1 <0>         0.1443
     39 H15         1.1831  -11.8404   -1.9082 H         1 <0>         0.1463
     40 H16         1.3668  -10.0290    1.9582 H         1 <0>         0.1381
     41 H17         0.1796  -13.3160   -0.8305 H         1 <0>         0.0620
     42 H18         1.9535  -13.4614   -0.8470 H         1 <0>         0.0626
     43 H19         1.0005  -14.3321    0.3786 H         1 <0>         0.1083
     44 H20         0.0266   -2.4773   -2.0604 H         1 <0>         0.4540
@<TRIPOS>BOND
     1    1    2 1
     2    1   26 1
     3    1   27 1
     4    1   28 1
     5    2    7 ar
     6    2    3 ar
     7    3    4 ar
     8    3   29 1
     9    4    5 ar
    10    4   44 1
    11    5    6 ar
    12    5   11 1
    13    6    7 ar
    14    6   10 1
    15    7    8 1
    16    8    9 1
    17    9   30 1
    18    9   31 1
    19    9   32 1
    20   10   33 1
    21   10   34 1
    22   10   35 1
    23   11   12 1
    24   11   36 1
    25   11   37 1
    26   12   13 2
    27   12   14 1
    28   14   15 2
    29   14   23 1
    30   15   17 1
    31   16   23 1
    32   17   18 ar
    33   17   22 ar
    34   18   38 1
    35   18   19 ar
    36   19   39 1
    37   19   20 ar
    38   20   24 1
    39   20   21 ar
    40   21   40 1
    41   21   22 ar
    42   22   23 1
    43   24   25 1
    44   25   41 1
    45   25   42 1
    46   25   43 1
@<TRIPOS>MOLECULE
ZINC04693575
   44    46     0     0     0
SMALL
USER_CHARGES

@<TRIPOS>ATOM
      1 C1         -0.0184    1.5028    0.0103 C.3       1 <0>        -0.1222
      2 C2          0.0021   -0.0041    0.0020 C.ar      1 <0>        -0.1098
      3 C3          0.0060   -0.6969   -1.1913 C.ar      1 <0>         0.1437
      4 N1          0.0243   -2.0162   -1.2071 N.ar      1 <0>        -0.4453
      5 C4          0.0391   -2.7261   -0.0946 C.ar      1 <0>         0.1796
      6 C5          0.0364   -2.1077    1.1386 C.ar      1 <0>        -0.1047
      7 C6          0.0231   -0.7162    1.1984 C.ar      1 <0>         0.2273
      8 O1          0.0252   -0.0709    2.3926 O.3       1 <0>        -0.3154
      9 C7         -1.2469    0.2198    2.9751 C.3       1 <0>         0.0286
     10 C8          0.0534   -2.9265    2.4036 C.3       1 <0>        -0.1334
     11 C9          0.0587   -4.2309   -0.1724 C.3       1 <0>        -0.4767
     12 S1          1.7767   -4.8120   -0.2119 S.o       1 <0>         1.4262
     13 O2          2.3700   -4.4523   -1.4519 O.2       1 <0>        -0.7814
     14 C10         1.6315   -6.5658   -0.3016 C.2       1 <0>        -0.1050
     15 N2          1.5680   -7.3992    0.7731 N.pl3     1 <0>        -0.5588
     16 H1          1.5939   -7.1367    1.7065 H         1 <0>         0.4313
     17 C11         1.4593   -8.6871    0.2879 C.ar      1 <0>         0.1220
     18 C12         1.3595   -9.9376    0.8821 C.ar      1 <0>        -0.1712
     19 C13         1.2628  -11.0663    0.0887 C.ar      1 <0>         0.1765
     20 C14         1.2654  -10.9527   -1.2989 C.ar      1 <0>        -0.2020
     21 C15         1.3631   -9.7287   -1.8962 C.ar      1 <0>        -0.0053
     22 C16         1.4617   -8.5756   -1.1127 C.ar      1 <0>        -0.0076
     23 N3          1.5638   -7.2524   -1.4041 N.2       1 <0>        -0.4007
     24 O3          1.1653  -12.2929    0.6667 O.3       1 <0>        -0.3082
     25 C17         1.0686  -13.4173   -0.2099 C.3       1 <0>         0.0224
     26 H2          1.0042    1.8801    0.0026 H         1 <0>         0.1044
     27 H3         -0.5455    1.8639   -0.8728 H         1 <0>         0.0933
     28 H4         -0.5286    1.8543    0.9071 H         1 <0>         0.0925
     29 H5         -0.0064   -0.1526   -2.1241 H         1 <0>         0.2167
     30 H6         -1.7894   -0.7101    3.1457 H         1 <0>         0.0651
     31 H7         -1.1025    0.7356    3.9244 H         1 <0>         0.1233
     32 H8         -1.8191    0.8557    2.2995 H         1 <0>         0.0647
     33 H9          1.0850   -3.1100    2.7039 H         1 <0>         0.1116
     34 H10        -0.4642   -2.3838    3.1946 H         1 <0>         0.0986
     35 H11        -0.4484   -3.8780    2.2274 H         1 <0>         0.0950
     36 H12        -0.4454   -4.6464    0.7001 H         1 <0>         0.1748
     37 H13        -0.4552   -4.5547   -1.0774 H         1 <0>         0.1381
     38 H14         1.3576  -10.0286    1.9583 H         1 <0>         0.1415
     39 H15         1.1898  -11.8409   -1.9085 H         1 <0>         0.1454
     40 H16         1.3638   -9.6516   -2.9734 H         1 <0>         0.1404
     41 H17         0.1807  -13.3162   -0.8340 H         1 <0>         0.0615
     42 H18         1.9547  -13.4616   -0.8432 H         1 <0>         0.0622
     43 H19         0.9967  -14.3319    0.3788 H         1 <0>         0.1086
     44 H20         0.0266   -2.4773   -2.0604 H         1 <0>         0.4523
@<TRIPOS>BOND
     1    1    2 1
     2    1   26 1
     3    1   27 1
     4    1   28 1
     5    2    7 ar
     6    2    3 ar
     7    3    4 ar
     8    3   29 1
     9    4    5 ar
    10    4   44 1
    11    5    6 ar
    12    5   11 1
    13    6    7 ar
    14    6   10 1
    15    7    8 1
    16    8    9 1
    17    9   30 1
    18    9   31 1
    19    9   32 1
    20   10   33 1
    21   10   34 1
    22   10   35 1
    23   11   12 1
    24   11   36 1
    25   11   37 1
    26   12   13 2
    27   12   14 1
    28   14   23 2
    29   14   15 1
    30   15   16 1
    31   15   17 1
    32   17   22 ar
    33   17   18 ar
    34   18   19 ar
    35   18   38 1
    36   19   20 ar
    37   19   24 1
    38   20   21 ar
    39   20   39 1
    40   21   22 ar
    41   21   40 1
    42   22   23 1
    43   24   25 1
    44   25   41 1
    45   25   42 1
    46   25   43 1
@<TRIPOS>MOLECULE
ZINC04051000
   41    44     0     0     0
SMALL
USER_CHARGES

@<TRIPOS>ATOM
      1 C1          0.8264    1.5798   -0.2518 C.3       1 <0>        -0.1472
      2 C2          1.0528    0.0916   -0.3236 C.ar      1 <0>         0.2706
      3 C3          0.4769   -0.6298   -1.3614 C.ar      1 <0>        -0.2388
      4 C4          0.6709   -1.9946   -1.4480 C.ar      1 <0>         0.3332
      5 C5          1.4700   -2.6064   -0.4457 C.ar      1 <0>        -0.0812
      6 C6          1.7170   -3.9866   -0.4598 C.ar      1 <0>        -0.0978
      7 C7          2.4881   -4.5442    0.5157 C.ar      1 <0>        -0.0713
      8 C8          3.0351   -3.7613    1.5283 C.ar      1 <0>        -0.1387
      9 C9          2.8148   -2.4139    1.5726 C.ar      1 <0>         0.1096
     10 C10         2.0213   -1.8041    0.5784 C.ar      1 <0>         0.1495
     11 N1          1.7931   -0.4861    0.5933 N.ar      1 <0>        -0.4956
     12 O1          3.3573   -1.6653    2.5683 O.3       1 <0>        -0.3185
     13 C11         4.1495   -2.3527    3.5387 C.3       1 <0>         0.0239
     14 N2          0.0254   -2.5436   -2.5417 N.pl3     1 <0>        -0.5081
     15 C12        -0.6795   -1.4976   -3.2893 C.3       1 <0>         0.0989
     16 C13        -0.3942   -0.1971   -2.5187 C.3       1 <0>        -0.0706
     17 C14         0.0426   -3.8981   -2.8841 C.ar      1 <0>         0.0911
     18 C15        -0.9314   -4.7546   -2.3862 C.ar      1 <0>        -0.1039
     19 C16        -0.9116   -6.0927   -2.7270 C.ar      1 <0>        -0.1053
     20 C17         0.0763   -6.5804   -3.5629 C.ar      1 <0>        -0.0917
     21 C18         1.0474   -5.7307   -4.0603 C.ar      1 <0>        -0.1054
     22 C19         1.0305   -4.3904   -3.7278 C.ar      1 <0>        -0.1039
     23 H1          1.6078    2.0936   -0.8118 H         1 <0>         0.1180
     24 H2         -0.1462    1.8205   -0.6809 H         1 <0>         0.1155
     25 H3          0.8539    1.9017    0.7892 H         1 <0>         0.0993
     26 H4          1.2979   -4.6049   -1.2399 H         1 <0>         0.1522
     27 H5          2.6769   -5.6075    0.5033 H         1 <0>         0.1513
     28 H6          3.6426   -4.2262    2.2906 H         1 <0>         0.1567
     29 H7          4.5211   -1.6401    4.2751 H         1 <0>         0.1175
     30 H8          3.5400   -3.1061    4.0376 H         1 <0>         0.0688
     31 H9          4.9918   -2.8361    3.0437 H         1 <0>         0.0689
     32 H10        -0.2895   -1.4296   -4.3048 H         1 <0>         0.1030
     33 H11        -1.7503   -1.7006   -3.3066 H         1 <0>         0.1029
     34 H12        -1.3231    0.2407   -2.1533 H         1 <0>         0.1089
     35 H13         0.1387    0.5118   -3.1523 H         1 <0>         0.1092
     36 H14        -1.7029   -4.3744   -1.7331 H         1 <0>         0.1320
     37 H15        -1.6682   -6.7591   -2.3401 H         1 <0>         0.1398
     38 H16         0.0897   -7.6274   -3.8276 H         1 <0>         0.1386
     39 H17         1.8175   -6.1149   -4.7128 H         1 <0>         0.1398
     40 H18         1.7868   -3.7266   -4.1199 H         1 <0>         0.1320
     41 H19         2.1806    0.0542    1.2996 H         1 <0>         0.4470
@<TRIPOS>BOND
     1    1    2 1
     2    1   23 1
     3    1   24 1
     4    1   25 1
     5    2   11 ar
     6    2    3 ar
     7    3   16 1
     8    3    4 ar
     9    4    5 ar
    10    4   14 1
    11    5   10 ar
    12    5    6 ar
    13    6    7 ar
    14    6   26 1
    15    7    8 ar
    16    7   27 1
    17    8    9 ar
    18    8   28 1
    19    9   10 ar
    20    9   12 1
    21   10   11 ar
    22   11   41 1
    23   12   13 1
    24   13   29 1
    25   13   30 1
    26   13   31 1
    27   14   15 1
    28   14   17 1
    29   15   16 1
    30   15   32 1
    31   15   33 1
    32   16   34 1
    33   16   35 1
    34   17   22 ar
    35   17   18 ar
    36   18   19 ar
    37   18   36 1
    38   19   20 ar
    39   19   37 1
    40   20   21 ar
    41   20   38 1
    42   21   22 ar
    43   21   39 1
    44   22   40 1
@<TRIPOS>MOLECULE
ZINC13742268
   33    35     0     0     0
SMALL
USER_CHARGES
N'-(o-tolyl)quinazoline-2,4-diamine
@<TRIPOS>ATOM
      1 C1         -6.0588    2.0912   -0.9704 C.3       1 <0>        -0.1172
      2 C2         -6.0330    3.4463   -0.3115 C.ar      1 <0>        -0.1187
      3 C3         -7.1979    4.1786   -0.1905 C.ar      1 <0>        -0.1002
      4 C4         -7.1752    5.4217    0.4143 C.ar      1 <0>        -0.1340
      5 C5         -5.9869    5.9363    0.9001 C.ar      1 <0>        -0.1057
      6 C6         -4.8197    5.2070    0.7875 C.ar      1 <0>        -0.1197
      7 C7         -4.8380    3.9600    0.1752 C.ar      1 <0>         0.1503
      8 N1         -3.6572    3.2216    0.0544 N.pl3     1 <0>        -0.6323
      9 C8         -2.4377    3.8663    0.0529 C.ar      1 <0>         0.5002
     10 C9         -1.2264    3.1300    0.0582 C.ar      1 <0>        -0.2318
     11 C10        -1.2088    1.7312    0.0584 C.ar      1 <0>        -0.0579
     12 C11        -0.0134    1.0740    0.0686 C.ar      1 <0>        -0.1509
     13 C12         1.1882    1.7763    0.0674 C.ar      1 <0>        -0.0620
     14 C13         1.2049    3.1396    0.0617 C.ar      1 <0>        -0.1261
     15 C14        -0.0052    3.8466    0.0569 C.ar      1 <0>         0.2354
     16 N2         -0.0430    5.1874    0.0507 N.ar      1 <0>        -0.6047
     17 C15        -1.1991    5.8229    0.0459 C.ar      1 <0>         0.6077
     18 N3         -2.3687    5.1894    0.0470 N.ar      1 <0>        -0.6148
     19 N4         -1.1948    7.2060    0.0401 N.pl3     1 <0>        -0.8179
     20 H1         -6.2471    1.3251   -0.2184 H         1 <0>         0.0719
     21 H2         -6.8498    2.0667   -1.7200 H         1 <0>         0.0740
     22 H3         -5.0982    1.9018   -1.4495 H         1 <0>         0.0604
     23 H4         -8.1276    3.7795   -0.5685 H         1 <0>         0.1254
     24 H5         -8.0875    5.9921    0.5079 H         1 <0>         0.1224
     25 H6         -5.9726    6.9076    1.3720 H         1 <0>         0.1241
     26 H7         -3.8930    5.6072    1.1714 H         1 <0>         0.1505
     27 H8         -3.6955    2.2559   -0.0284 H         1 <0>         0.4215
     28 H9         -2.1349    1.1756    0.0546 H         1 <0>         0.1212
     29 H10         0.0008   -0.0059    0.0731 H         1 <0>         0.1288
     30 H11         2.1216    1.2331    0.0714 H         1 <0>         0.1321
     31 H12         2.1449    3.6714    0.0612 H         1 <0>         0.1381
     32 H13        -0.3533    7.6884    0.0395 H         1 <0>         0.4165
     33 H14        -2.0334    7.6936    0.0365 H         1 <0>         0.4133
@<TRIPOS>BOND
     1    1    2 1
     2    1   20 1
     3    1   21 1
     4    1   22 1
     5    2    7 ar
     6    2    3 ar
     7    3    4 ar
     8    3   23 1
     9    4    5 ar
    10    4   24 1
    11    5    6 ar
    12    5   25 1
    13    6    7 ar
    14    6   26 1
    15    7    8 1
    16    8    9 1
    17    8   27 1
    18    9   18 ar
    19    9   10 ar
    20   10   15 ar
    21   10   11 ar
    22   11   12 ar
    23   11   28 1
    24   12   13 ar
    25   12   29 1
    26   13   14 ar
    27   13   30 1
    28   14   15 ar
    29   14   31 1
    30   15   16 ar
    31   16   17 ar
    32   17   18 ar
    33   17   19 1
    34   19   32 1
    35   19   33 1
@<TRIPOS>MOLECULE
ZINC00010228
   43    46     0     0     0
SMALL
USER_CHARGES
N-(o-tolyl)-N'-phenyl-quinazoline-2,4-diamine
@<TRIPOS>ATOM
      1 C1         -6.7754    3.7351   -1.5394 C.3       1 <0>        -0.1149
      2 C2         -7.0000    5.1257   -1.0039 C.ar      1 <0>        -0.1182
      3 C3         -8.2172    5.7510   -1.1924 C.ar      1 <0>        -0.1013
      4 C4         -8.4243    7.0266   -0.7010 C.ar      1 <0>        -0.1358
      5 C5         -7.4142    7.6809   -0.0194 C.ar      1 <0>        -0.1062
      6 C6         -6.1970    7.0593    0.1775 C.ar      1 <0>        -0.1108
      7 C7         -5.9837    5.7799   -0.3199 C.ar      1 <0>         0.1662
      8 N1         -4.7505    5.1499   -0.1273 N.pl3     1 <0>        -0.6324
      9 C8         -3.5922    5.9044   -0.0514 C.ar      1 <0>         0.6009
     10 N2         -3.6652    7.2003   -0.2890 N.ar      1 <0>        -0.5830
     11 C9         -2.5655    7.9651   -0.2257 C.ar      1 <0>         0.2278
     12 C10        -2.6071    9.3443   -0.4717 C.ar      1 <0>        -0.1218
     13 C11        -1.4625   10.0795   -0.3790 C.ar      1 <0>        -0.0627
     14 C12        -0.2486    9.4790   -0.0579 C.ar      1 <0>        -0.1467
     15 C13        -0.1722    8.1383    0.1823 C.ar      1 <0>        -0.0594
     16 C14        -1.3300    7.3570    0.1054 C.ar      1 <0>        -0.2257
     17 C15        -1.3114    5.9603    0.3451 C.ar      1 <0>         0.5022
     18 N3         -2.4525    5.2925    0.2576 N.ar      1 <0>        -0.6108
     19 N4         -0.1362    5.3135    0.6669 N.pl3     1 <0>        -0.6376
     20 C16        -0.1178    3.9220    0.7986 C.ar      1 <0>         0.1485
     21 C17        -0.9185    3.1347   -0.0190 C.ar      1 <0>        -0.1093
     22 C18        -0.8975    1.7602    0.1133 C.ar      1 <0>        -0.1018
     23 C19        -0.0808    1.1675    1.0589 C.ar      1 <0>        -0.1324
     24 C20         0.7134    1.9486    1.8783 C.ar      1 <0>        -0.1002
     25 C21         0.7018    3.3233    1.7470 C.ar      1 <0>        -0.1447
     26 H1         -7.0620    3.0040   -0.7835 H         1 <0>         0.0700
     27 H2         -7.3798    3.5884   -2.4345 H         1 <0>         0.0711
     28 H3         -5.7217    3.6071   -1.7875 H         1 <0>         0.0616
     29 H4         -9.0081    5.2427   -1.7239 H         1 <0>         0.1240
     30 H5         -9.3770    7.5131   -0.8495 H         1 <0>         0.1212
     31 H6         -7.5792    8.6773    0.3632 H         1 <0>         0.1227
     32 H7         -5.4103    7.5689    0.7141 H         1 <0>         0.1389
     33 H8         -4.7064    4.1843   -0.0470 H         1 <0>         0.4214
     34 H9         -3.5420    9.8237   -0.7216 H         1 <0>         0.1390
     35 H10        -1.4971   11.1428   -0.5648 H         1 <0>         0.1327
     36 H11         0.6450   10.0826    0.0014 H         1 <0>         0.1294
     37 H12         0.7755    7.6833    0.4299 H         1 <0>         0.1228
     38 H13         0.6773    5.8243    0.8019 H         1 <0>         0.4225
     39 H14        -1.5571    3.5970   -0.7572 H         1 <0>         0.1325
     40 H15        -1.5199    1.1476   -0.5221 H         1 <0>         0.1252
     41 H16        -0.0665    0.0924    1.1606 H         1 <0>         0.1237
     42 H17         1.3468    1.4828    2.6187 H         1 <0>         0.1267
     43 H18         1.3254    3.9326    2.3845 H         1 <0>         0.1245
@<TRIPOS>BOND
     1    1    2 1
     2    1   26 1
     3    1   27 1
     4    1   28 1
     5    2    7 ar
     6    2    3 ar
     7    3    4 ar
     8    3   29 1
     9    4    5 ar
    10    4   30 1
    11    5    6 ar
    12    5   31 1
    13    6    7 ar
    14    6   32 1
    15    7    8 1
    16    8    9 1
    17    8   33 1
    18    9   18 ar
    19    9   10 ar
    20   10   11 ar
    21   11   16 ar
    22   11   12 ar
    23   12   13 ar
    24   12   34 1
    25   13   14 ar
    26   13   35 1
    27   14   15 ar
    28   14   36 1
    29   15   16 ar
    30   15   37 1
    31   16   17 ar
    32   17   18 ar
    33   17   19 1
    34   19   20 1
    35   19   38 1
    36   20   25 ar
    37   20   21 ar
    38   21   22 ar
    39   21   39 1
    40   22   23 ar
    41   22   40 1
    42   23   24 ar
    43   23   41 1
    44   24   25 ar
    45   24   42 1
    46   25   43 1
@<TRIPOS>MOLECULE
ZINC00002675
   36    38     0     0     0
SMALL
USER_CHARGES

@<TRIPOS>ATOM
      1 C1         -0.0184    1.5028    0.0103 C.3       1 <0>        -0.0787
      2 C2          0.0021   -0.0041    0.0020 C.2       1 <0>         0.0812
      3 C3          0.0077   -0.7867   -1.0998 C.2       1 <0>        -0.0733
      4 N1          0.0273   -2.0859   -0.6724 N.pl3     1 <0>        -0.3340
      5 C4          0.0404   -3.2783   -1.3402 C.2       1 <0>         0.0074
      6 C5          0.0589   -4.4459   -0.6647 C.2       1 <0>        -0.0925
      7 C6          0.0649   -4.4533    0.7398 C.2       1 <0>        -0.2215
      8 C7          0.0524   -3.2712    1.4210 C.2       1 <0>         0.1839
      9 C8          0.0331   -2.0571    0.6970 C.2       1 <0>         0.2231
     10 N2          0.0235   -0.7886    1.0815 N.2       1 <0>        -0.4625
     11 O1          0.0584   -3.2609    2.7801 O.3       1 <0>        -0.2831
     12 C9          0.0781   -4.5292    3.4383 C.3       1 <0>         0.1002
     13 C10         0.0821   -4.3205    4.9308 C.ar      1 <0>        -0.1006
     14 C11         1.2809   -4.2033    5.6091 C.ar      1 <0>        -0.0923
     15 C12         1.2846   -4.0119    6.9781 C.ar      1 <0>        -0.1231
     16 C13         0.0895   -3.9372    7.6688 C.ar      1 <0>        -0.1062
     17 C14        -1.1093   -4.0534    6.9904 C.ar      1 <0>        -0.1231
     18 C15        -1.1131   -4.2406    5.6207 C.ar      1 <0>        -0.0926
     19 C16        -0.0052   -0.3161   -2.5314 C.3       1 <0>         0.0632
     20 C17        -1.3971   -0.1811   -2.9910 C.1       1 <0>         0.1991
     21 N3         -2.4713   -0.0770   -3.3457 N.1       1 <0>        -0.4174
     22 H1          1.0042    1.8801    0.0026 H         1 <0>         0.0821
     23 H2         -0.5455    1.8639   -0.8728 H         1 <0>         0.0742
     24 H3         -0.5286    1.8543    0.9071 H         1 <0>         0.0800
     25 H4          0.0357   -3.2858   -2.4201 H         1 <0>         0.1651
     26 H5          0.0688   -5.3800   -1.2068 H         1 <0>         0.1556
     27 H6          0.0789   -5.3897    1.2777 H         1 <0>         0.1477
     28 H7         -0.8057   -5.1000    3.1536 H         1 <0>         0.0767
     29 H8          0.9741   -5.0766    3.1456 H         1 <0>         0.0773
     30 H9          2.2146   -4.2617    5.0695 H         1 <0>         0.1247
     31 H10         2.2212   -3.9211    7.5081 H         1 <0>         0.1266
     32 H11         0.0924   -3.7884    8.7385 H         1 <0>         0.1255
     33 H12        -2.0430   -3.9954    7.5300 H         1 <0>         0.1264
     34 H13        -2.0497   -4.3276    5.0902 H         1 <0>         0.1244
     35 H14         0.4956    0.6495   -2.6010 H         1 <0>         0.1382
     36 H15         0.5153   -1.0412   -3.1570 H         1 <0>         0.1184
@<TRIPOS>BOND
     1    1    2 1
     2    1   22 1
     3    1   23 1
     4    1   24 1
     5    2   10 1
     6    2    3 2
     7    3    4 1
     8    3   19 1
     9    4    9 1
    10    4    5 1
    11    5    6 2
    12    5   25 1
    13    6    7 1
    14    6   26 1
    15    7    8 2
    16    7   27 1
    17    8    9 1
    18    8   11 1
    19    9   10 2
    20   11   12 1
    21   12   13 1
    22   12   28 1
    23   12   29 1
    24   13   18 ar
    25   13   14 ar
    26   14   15 ar
    27   14   30 1
    28   15   16 ar
    29   15   31 1
    30   16   17 ar
    31   16   32 1
    32   17   18 ar
    33   17   33 1
    34   18   34 1
    35   19   20 1
    36   19   35 1
    37   19   36 1
    38   20   21 3
@<TRIPOS>MOLECULE
ZINC00002675
   37    39     0     0     0
SMALL
USER_CHARGES

@<TRIPOS>ATOM
      1 C1         -0.0184    1.5028    0.0103 C.3       1 <0>        -0.1129
      2 C2          0.0021   -0.0041    0.0020 C.2       1 <0>         0.1328
      3 C3          0.0077   -0.7867   -1.0998 C.2       1 <0>        -0.0154
      4 N1          0.0273   -2.0859   -0.6724 N.pl3     1 <0>        -0.2891
      5 C4          0.0404   -3.2783   -1.3402 C.2       1 <0>         0.0357
      6 C5          0.0589   -4.4459   -0.6647 C.2       1 <0>        -0.0607
      7 C6          0.0649   -4.4533    0.7398 C.2       1 <0>        -0.1412
      8 C7          0.0524   -3.2712    1.4210 C.2       1 <0>         0.1474
      9 C8          0.0331   -2.0571    0.6970 C.cat     1 <0>         0.2871
     10 N2          0.0235   -0.7886    1.0815 N.pl3     1 <0>        -0.4904
     11 O1          0.0584   -3.2609    2.7801 O.3       1 <0>        -0.2953
     12 C9          0.0781   -4.5292    3.4383 C.3       1 <0>         0.1037
     13 C10         0.0821   -4.3205    4.9308 C.ar      1 <0>        -0.1180
     14 C11         1.2809   -4.2033    5.6091 C.ar      1 <0>        -0.0912
     15 C12         1.2846   -4.0119    6.9781 C.ar      1 <0>        -0.1206
     16 C13         0.0895   -3.9372    7.6688 C.ar      1 <0>        -0.0953
     17 C14        -1.1093   -4.0534    6.9904 C.ar      1 <0>        -0.1205
     18 C15        -1.1131   -4.2406    5.6207 C.ar      1 <0>        -0.0915
     19 C16        -0.0052   -0.3161   -2.5314 C.3       1 <0>         0.0571
     20 C17        -1.3971   -0.1811   -2.9910 C.1       1 <0>         0.1762
     21 N3         -2.4713   -0.0770   -3.3457 N.1       1 <0>        -0.3769
     22 H1          1.0042    1.8801    0.0026 H         1 <0>         0.1156
     23 H2         -0.5455    1.8639   -0.8728 H         1 <0>         0.1114
     24 H3         -0.5286    1.8543    0.9071 H         1 <0>         0.1010
     25 H4          0.0357   -3.2858   -2.4201 H         1 <0>         0.2021
     26 H5          0.0688   -5.3800   -1.2068 H         1 <0>         0.1876
     27 H6          0.0789   -5.3897    1.2777 H         1 <0>         0.1768
     28 H7         -0.8057   -5.1000    3.1536 H         1 <0>         0.0883
     29 H8          0.9741   -5.0766    3.1456 H         1 <0>         0.0889
     30 H9          2.2146   -4.2617    5.0695 H         1 <0>         0.1259
     31 H10         2.2212   -3.9211    7.5081 H         1 <0>         0.1312
     32 H11         0.0924   -3.7884    8.7385 H         1 <0>         0.1311
     33 H12        -2.0430   -3.9954    7.5300 H         1 <0>         0.1311
     34 H13        -2.0497   -4.3276    5.0902 H         1 <0>         0.1255
     35 H14         0.4956    0.6495   -2.6010 H         1 <0>         0.1570
     36 H15         0.5153   -1.0412   -3.1570 H         1 <0>         0.1402
     37 H16         0.0284   -0.4798    2.0010 H         1 <0>         0.4657
@<TRIPOS>BOND
     1    1    2 1
     2    1   22 1
     3    1   23 1
     4    1   24 1
     5    2   10 1
     6    2    3 2
     7    3    4 1
     8    3   19 1
     9    4    9 1
    10    4    5 1
    11    5    6 2
    12    5   25 1
    13    6    7 1
    14    6   26 1
    15    7    8 2
    16    7   27 1
    17    8    9 1
    18    8   11 1
    19    9   10 2
    20   10   37 1
    21   11   12 1
    22   12   13 1
    23   12   28 1
    24   12   29 1
    25   13   18 ar
    26   13   14 ar
    27   14   15 ar
    28   14   30 1
    29   15   16 ar
    30   15   31 1
    31   16   17 ar
    32   16   32 1
    33   17   18 ar
    34   17   33 1
    35   18   34 1
    36   19   20 1
    37   19   35 1
    38   19   36 1
    39   20   21 3
@<TRIPOS>MOLECULE
ZINC01427777
   42    44     0     0     0
SMALL
USER_CHARGES
ethyl 4-anilino-8-methoxy-quinoline-3-carboxylate
@<TRIPOS>ATOM
      1 C1         -2.4278    4.4489    6.0886 C.3       1 <0>        -0.1562
      2 C2         -3.0910    3.9117    4.8188 C.3       1 <0>         0.0641
      3 O1         -2.3693    4.3938    3.6547 O.3       1 <0>        -0.3548
      4 C3         -2.7674    3.9311    2.4528 C.2       1 <0>         0.5124
      5 O2         -3.7503    3.2206    2.3703 O.2       1 <0>        -0.4815
      6 C4         -2.0127    4.2858    1.2415 C.ar      1 <0>        -0.1837
      7 C5         -0.8143    5.0133    1.3387 C.ar      1 <0>         0.1712
      8 N1         -0.1233    5.3410    0.2779 N.ar      1 <0>        -0.4524
      9 C6         -0.5164    5.0043   -0.9587 C.ar      1 <0>         0.1345
     10 C7         -1.7102    4.2716   -1.1531 C.ar      1 <0>        -0.0857
     11 C8         -2.4809    3.9011   -0.0241 C.ar      1 <0>         0.2885
     12 N2         -3.6513    3.1874   -0.1638 N.pl3     1 <0>        -0.7056
     13 C9         -3.6164    1.7914   -0.2154 C.ar      1 <0>         0.2326
     14 C10        -2.4172    1.1173   -0.0222 C.ar      1 <0>        -0.1887
     15 C11        -2.3873   -0.2626   -0.0688 C.ar      1 <0>        -0.0740
     16 C12        -3.5474   -0.9728   -0.3182 C.ar      1 <0>        -0.1719
     17 C13        -4.7418   -0.3047   -0.5167 C.ar      1 <0>        -0.0748
     18 C14        -4.7799    1.0748   -0.4658 C.ar      1 <0>        -0.1801
     19 C15        -2.1153    3.9288   -2.4504 C.ar      1 <0>        -0.1175
     20 C16        -1.3517    4.2932   -3.5194 C.ar      1 <0>        -0.0730
     21 C17        -0.1754    5.0140   -3.3424 C.ar      1 <0>        -0.1952
     22 C18         0.2496    5.3723   -2.0822 C.ar      1 <0>         0.1538
     23 O3          1.4009    6.0761   -1.9237 O.3       1 <0>        -0.2899
     24 C19         2.1240    6.4128   -3.1094 C.3       1 <0>         0.0176
     25 H1         -2.9746    4.0837    6.9704 H         1 <0>         0.0826
     26 H2         -2.4467    5.5487    6.0750 H         1 <0>         0.0689
     27 H3         -1.3854    4.1006    6.1333 H         1 <0>         0.0687
     28 H4         -3.0721    2.8119    4.8324 H         1 <0>         0.0720
     29 H5         -4.1335    4.2600    4.7741 H         1 <0>         0.0722
     30 H6         -0.4551    5.3088    2.3134 H         1 <0>         0.1769
     31 H7         -4.6130    3.7166   -0.2347 H         1 <0>         0.4399
     32 H8         -1.5101    1.6716    0.1685 H         1 <0>         0.1097
     33 H9         -1.4562   -0.7874    0.0858 H         1 <0>         0.1197
     34 H10        -3.5204   -2.0517   -0.3585 H         1 <0>         0.1189
     35 H11        -5.6459   -0.8625   -0.7113 H         1 <0>         0.1223
     36 H12        -5.7130    1.5959   -0.6209 H         1 <0>         0.1217
     37 H13        -3.0289    3.3733   -2.6026 H         1 <0>         0.1352
     38 H14        -1.6664    4.0226   -4.5165 H         1 <0>         0.1348
     39 H15         0.4117    5.2965   -4.2037 H         1 <0>         0.1400
     40 H16         3.0284    6.9776   -2.8393 H         1 <0>         0.1077
     41 H17         1.4891    7.0282   -3.7637 H         1 <0>         0.0597
     42 H18         2.4110    5.4917   -3.6378 H         1 <0>         0.0598
@<TRIPOS>BOND
     1    1    2 1
     2    1   25 1
     3    1   26 1
     4    1   27 1
     5    2    3 1
     6    2   28 1
     7    2   29 1
     8    3    4 1
     9    4    5 2
    10    4    6 1
    11    6   11 ar
    12    6    7 ar
    13    7    8 ar
    14    7   30 1
    15    8    9 ar
    16    9   22 ar
    17    9   10 ar
    18   10   11 ar
    19   10   19 ar
    20   11   12 1
    21   12   13 1
    22   12   31 1
    23   13   18 ar
    24   13   14 ar
    25   14   15 ar
    26   14   32 1
    27   15   16 ar
    28   15   33 1
    29   16   17 ar
    30   16   34 1
    31   17   18 ar
    32   17   35 1
    33   18   36 1
    34   19   20 ar
    35   19   37 1
    36   20   21 ar
    37   20   38 1
    38   21   22 ar
    39   21   39 1
    40   22   23 1
    41   23   24 1
    42   24   40 1
    43   24   41 1
    44   24   42 1
@<TRIPOS>MOLECULE
ZINC13727176
   32    34     0     0     0
SMALL
USER_CHARGES
N-(o-tolyl)quinolin-4-amine
@<TRIPOS>ATOM
      1 C1          6.0423    3.5169   -0.2455 C.3       1 <0>        -0.1085
      2 C2          4.7218    4.2428   -0.2289 C.ar      1 <0>        -0.1491
      3 C3          4.6888    5.6202   -0.3253 C.ar      1 <0>        -0.0781
      4 C4          3.4776    6.2870   -0.3106 C.ar      1 <0>        -0.1612
      5 C5          2.2954    5.5778   -0.1998 C.ar      1 <0>        -0.0805
      6 C6          2.3208    4.2003   -0.1079 C.ar      1 <0>        -0.1748
      7 C7          3.5364    3.5274   -0.1171 C.ar      1 <0>         0.2027
      8 N1          3.5661    2.1338   -0.0198 N.pl3     1 <0>        -0.6983
      9 C8          2.3812    1.4128   -0.0256 C.ar      1 <0>         0.2127
     10 C9          1.9029    0.8135    1.1294 C.ar      1 <0>        -0.1864
     11 C10         0.7142    0.0983    1.0912 C.ar      1 <0>         0.1417
     12 N2          0.0185   -0.0314   -0.0147 N.ar      1 <0>        -0.4764
     13 C11         0.4195    0.5202   -1.1657 C.ar      1 <0>         0.1366
     14 C12         1.6217    1.2659   -1.2109 C.ar      1 <0>        -0.1092
     15 C13         2.0366    1.8423   -2.4193 C.ar      1 <0>        -0.0860
     16 C14         1.2778    1.6788   -3.5392 C.ar      1 <0>        -0.1165
     17 C15         0.0943    0.9458   -3.4983 C.ar      1 <0>        -0.0955
     18 C16        -0.3367    0.3726   -2.3413 C.ar      1 <0>        -0.0961
     19 H1          6.3079    3.2693   -1.2732 H         1 <0>         0.0684
     20 H2          6.8135    4.1555    0.1853 H         1 <0>         0.0703
     21 H3          5.9607    2.6007    0.3395 H         1 <0>         0.0578
     22 H4          5.6101    6.1771   -0.4126 H         1 <0>         0.1239
     23 H5          3.4546    7.3642   -0.3861 H         1 <0>         0.1213
     24 H6          1.3510    6.1017   -0.1890 H         1 <0>         0.1220
     25 H7          1.3971    3.6468   -0.0255 H         1 <0>         0.1170
     26 H8          4.4154    1.6706    0.0518 H         1 <0>         0.4124
     27 H9          2.4530    0.9026    2.0546 H         1 <0>         0.1408
     28 H10         0.3487   -0.3608    1.9978 H         1 <0>         0.1635
     29 H11         2.9525    2.4131   -2.4625 H         1 <0>         0.1275
     30 H12         1.5983    2.1229   -4.4700 H         1 <0>         0.1282
     31 H13        -0.4904    0.8299   -4.3989 H         1 <0>         0.1319
     32 H14        -1.2564   -0.1934   -2.3266 H         1 <0>         0.1379
@<TRIPOS>BOND
     1    1    2 1
     2    1   19 1
     3    1   20 1
     4    1   21 1
     5    2    7 ar
     6    2    3 ar
     7    3    4 ar
     8    3   22 1
     9    4    5 ar
    10    4   23 1
    11    5    6 ar
    12    5   24 1
    13    6    7 ar
    14    6   25 1
    15    7    8 1
    16    8    9 1
    17    8   26 1
    18    9   14 ar
    19    9   10 ar
    20   10   11 ar
    21   10   27 1
    22   11   12 ar
    23   11   28 1
    24   12   13 ar
    25   13   18 ar
    26   13   14 ar
    27   14   15 ar
    28   15   16 ar
    29   15   29 1
    30   16   17 ar
    31   16   30 1
    32   17   18 ar
    33   17   31 1
    34   18   32 1
@<TRIPOS>MOLECULE
ZINC00098409
   41    43     0     0     0
SMALL
USER_CHARGES
ethyl 4-(o-tolylamino)quinoline-3-carboxylate
@<TRIPOS>ATOM
      1 C1         -4.5630   -1.7139   -4.8850 C.3       1 <0>        -0.1540
      2 C2         -3.0437   -1.5393   -4.9337 C.3       1 <0>         0.0663
      3 O1         -2.4542   -2.0917   -3.7272 O.3       1 <0>        -0.3556
      4 C3         -1.1082   -2.1021   -3.6532 C.2       1 <0>         0.5113
      5 O2         -0.4474   -1.5741   -4.5261 O.2       1 <0>        -0.4804
      6 C4         -0.4393   -2.7522   -2.5161 C.ar      1 <0>        -0.1956
      7 C5         -1.1876   -3.4668   -1.5660 C.ar      1 <0>         0.1862
      8 N1         -0.6186   -4.0544   -0.5454 N.ar      1 <0>        -0.4758
      9 C6          0.7068   -4.0093   -0.3470 C.ar      1 <0>         0.1562
     10 C7          1.2890   -4.6506    0.7582 C.ar      1 <0>        -0.1009
     11 C8          2.6379   -4.5940    0.9412 C.ar      1 <0>        -0.0812
     12 C9          3.4548   -3.9072    0.0477 C.ar      1 <0>        -0.1172
     13 C10         2.9239   -3.2726   -1.0359 C.ar      1 <0>        -0.0765
     14 C11         1.5399   -3.3120   -1.2532 C.ar      1 <0>        -0.1216
     15 C12         0.9544   -2.6703   -2.3715 C.ar      1 <0>         0.2922
     16 N2          1.7259   -1.9843   -3.2835 N.pl3     1 <0>        -0.6947
     17 C13         2.1431   -2.6138   -4.4592 C.ar      1 <0>         0.2297
     18 C14         1.8121   -3.9428   -4.6927 C.ar      1 <0>        -0.1825
     19 C15         2.2219   -4.5603   -5.8578 C.ar      1 <0>        -0.0799
     20 C16         2.9696   -3.8603   -6.7873 C.ar      1 <0>        -0.1644
     21 C17         3.3053   -2.5391   -6.5557 C.ar      1 <0>        -0.0770
     22 C18         2.8946   -1.9139   -5.3945 C.ar      1 <0>        -0.1420
     23 C19         3.2617   -0.4742   -5.1425 C.3       1 <0>        -0.1072
     24 H1         -4.8048   -2.7744   -4.8152 H         1 <0>         0.0680
     25 H2         -4.9609   -1.1924   -4.0145 H         1 <0>         0.0681
     26 H3         -5.0055   -1.2992   -5.7907 H         1 <0>         0.0817
     27 H4         -2.8019   -0.4788   -5.0035 H         1 <0>         0.0709
     28 H5         -2.6458   -2.0608   -5.8042 H         1 <0>         0.0710
     29 H6         -2.2594   -3.5330   -1.6813 H         1 <0>         0.1763
     30 H7          0.6693   -5.1873    1.4612 H         1 <0>         0.1428
     31 H8          3.0802   -5.0892    1.7930 H         1 <0>         0.1362
     32 H9          4.5213   -3.8762    0.2150 H         1 <0>         0.1333
     33 H10         3.5666   -2.7427   -1.7233 H         1 <0>         0.1332
     34 H11         1.9795   -1.0644   -3.1095 H         1 <0>         0.4155
     35 H12         1.2320   -4.4913   -3.9654 H         1 <0>         0.1107
     36 H13         1.9617   -5.5922   -6.0417 H         1 <0>         0.1201
     37 H14         3.2924   -4.3468   -7.6958 H         1 <0>         0.1199
     38 H15         3.8896   -1.9955   -7.2833 H         1 <0>         0.1227
     39 H16         4.2139   -0.4292   -4.6140 H         1 <0>         0.0661
     40 H17         3.3492    0.0504   -6.0940 H         1 <0>         0.0690
     41 H18         2.4876   -0.0024   -4.5373 H         1 <0>         0.0591
@<TRIPOS>BOND
     1    1    2 1
     2    1   24 1
     3    1   25 1
     4    1   26 1
     5    2    3 1
     6    2   27 1
     7    2   28 1
     8    3    4 1
     9    4    5 2
    10    4    6 1
    11    6   15 ar
    12    6    7 ar
    13    7    8 ar
    14    7   29 1
    15    8    9 ar
    16    9   14 ar
    17    9   10 ar
    18   10   11 ar
    19   10   30 1
    20   11   12 ar
    21   11   31 1
    22   12   13 ar
    23   12   32 1
    24   13   14 ar
    25   13   33 1
    26   14   15 ar
    27   15   16 1
    28   16   17 1
    29   16   34 1
    30   17   22 ar
    31   17   18 ar
    32   18   19 ar
    33   18   35 1
    34   19   20 ar
    35   19   36 1
    36   20   21 ar
    37   20   37 1
    38   21   22 ar
    39   21   38 1
    40   22   23 1
    41   23   39 1
    42   23   40 1
    43   23   41 1
@<TRIPOS>MOLECULE
ZINC13742283
   33    35     0     0     0
SMALL
USER_CHARGES
N'-methyl-N'-phenyl-quinazoline-2,4-diamine
@<TRIPOS>ATOM
      1 C1          0.6181    4.9826   -1.2380 C.3       1 <0>         0.0961
      2 N1         -0.0691    5.2402    0.0299 N.pl3     1 <0>        -0.5842
      3 C2          0.5373    4.8850    1.2383 C.ar      1 <0>         0.2102
      4 C3          1.7348    4.1811    1.2358 C.ar      1 <0>        -0.1795
      5 C4          2.3314    3.8321    2.4314 C.ar      1 <0>        -0.0758
      6 C5          1.7380    4.1827    3.6303 C.ar      1 <0>        -0.1638
      7 C6          0.5431    4.8789    3.6364 C.ar      1 <0>        -0.0747
      8 C7         -0.0561    5.2356    2.4444 C.ar      1 <0>        -0.1756
      9 C8         -1.3145    5.8334    0.0313 C.ar      1 <0>         0.4992
     10 C9         -1.4477    7.2439   -0.0128 C.ar      1 <0>        -0.2046
     11 C10        -0.3367    8.0926   -0.0598 C.ar      1 <0>        -0.0492
     12 C11        -0.5237    9.4433   -0.1011 C.ar      1 <0>        -0.1436
     13 C12        -1.8046    9.9877   -0.0979 C.ar      1 <0>        -0.0625
     14 C13        -2.9077    9.1877   -0.0526 C.ar      1 <0>        -0.1230
     15 C14        -2.7517    7.7956   -0.0090 C.ar      1 <0>         0.2158
     16 N2         -3.8043    6.9651    0.0360 N.ar      1 <0>        -0.5723
     17 C15        -3.6232    5.6590    0.0759 C.ar      1 <0>         0.5847
     18 N3         -2.4166    5.0990    0.0685 N.ar      1 <0>        -0.5693
     19 N4         -4.7347    4.8371    0.1216 N.pl3     1 <0>        -0.8175
     20 H1          0.2882    4.0255   -1.6421 H         1 <0>         0.0590
     21 H2          0.3830    5.7767   -1.9466 H         1 <0>         0.0699
     22 H3          1.6945    4.9538   -1.0686 H         1 <0>         0.0861
     23 H4          2.1986    3.9067    0.2998 H         1 <0>         0.1272
     24 H5          3.2622    3.2845    2.4301 H         1 <0>         0.1256
     25 H6          2.2064    3.9082    4.5639 H         1 <0>         0.1219
     26 H7          0.0800    5.1472    4.5744 H         1 <0>         0.1226
     27 H8         -0.9872    5.7828    2.4498 H         1 <0>         0.1106
     28 H9          0.6620    7.6815   -0.0628 H         1 <0>         0.1304
     29 H10         0.3337   10.0990   -0.1367 H         1 <0>         0.1305
     30 H11        -1.9266   11.0603   -0.1315 H         1 <0>         0.1341
     31 H12        -3.8956    9.6240   -0.0507 H         1 <0>         0.1396
     32 H13        -5.6242    5.2240    0.1239 H         1 <0>         0.4172
     33 H14        -4.6247    3.8738    0.1515 H         1 <0>         0.4150
@<TRIPOS>BOND
     1    1    2 1
     2    1   20 1
     3    1   21 1
     4    1   22 1
     5    2    3 1
     6    2    9 1
     7    3    8 ar
     8    3    4 ar
     9    4    5 ar
    10    4   23 1
    11    5    6 ar
    12    5   24 1
    13    6    7 ar
    14    6   25 1
    15    7    8 ar
    16    7   26 1
    17    8   27 1
    18    9   18 ar
    19    9   10 ar
    20   10   15 ar
    21   10   11 ar
    22   11   12 ar
    23   11   28 1
    24   12   13 ar
    25   12   29 1
    26   13   14 ar
    27   13   30 1
    28   14   15 ar
    29   14   31 1
    30   15   16 ar
    31   16   17 ar
    32   17   18 ar
    33   17   19 1
    34   19   32 1
    35   19   33 1
@<TRIPOS>MOLECULE
ZINC01554414
   51    53     0     0     0
SMALL
USER_CHARGES
1-[8-(2-hydroxyethoxy)-4-(o-tolylamino)-3-quinolyl]butan-1-one
@<TRIPOS>ATOM
      1 C1          1.7130    0.4845   -6.1131 C.3       1 <0>        -0.1542
      2 C2          2.6378    0.7121   -4.9157 C.3       1 <0>        -0.1153
      3 C3          1.8007    0.8365   -3.6411 C.3       1 <0>        -0.1580
      4 C4          2.7014    1.1668   -2.4788 C.2       1 <0>         0.3956
      5 O1          3.9047    1.1971   -2.6332 O.2       1 <0>        -0.4287
      6 C5          2.1247    1.4511   -1.1638 C.ar      1 <0>        -0.2239
      7 C6          0.7409    1.3099   -0.9471 C.ar      1 <0>         0.1607
      8 N1          0.2017    1.5575    0.2175 N.ar      1 <0>        -0.4493
      9 C7          0.9306    1.9580    1.2694 C.ar      1 <0>         0.1315
     10 C8          2.3293    2.1272    1.1466 C.ar      1 <0>        -0.0839
     11 C9          2.9464    1.8680   -0.1016 C.ar      1 <0>         0.2717
     12 N2          4.3042    2.0187   -0.2690 N.pl3     1 <0>        -0.6897
     13 C10         4.8335    3.2706   -0.5934 C.ar      1 <0>         0.2202
     14 C11         3.9922    4.3677   -0.7312 C.ar      1 <0>        -0.1831
     15 C12         4.5191    5.6043   -1.0471 C.ar      1 <0>        -0.0800
     16 C13         5.8816    5.7495   -1.2360 C.ar      1 <0>        -0.1646
     17 C14         6.7210    4.6587   -1.1048 C.ar      1 <0>        -0.0772
     18 C15         6.2012    3.4198   -0.7843 C.ar      1 <0>        -0.1429
     19 C16         7.1168    2.2313   -0.6424 C.3       1 <0>        -0.1061
     20 C17         3.0816    2.5463    2.2524 C.ar      1 <0>        -0.1219
     21 C18         2.4627    2.7895    3.4428 C.ar      1 <0>        -0.0709
     22 C19         1.0881    2.6276    3.5773 C.ar      1 <0>        -0.2005
     23 C20         0.3193    2.2109    2.5127 C.ar      1 <0>         0.1589
     24 O2         -1.0220    2.0507    2.6597 O.3       1 <0>        -0.2794
     25 C21        -1.5706    2.3261    3.9502 C.3       1 <0>         0.0525
     26 C22        -3.0823    2.0919    3.9222 C.3       1 <0>         0.0787
     27 O3         -3.3456    0.7072    3.6871 O.3       1 <0>        -0.5659
     28 H1          1.1423   -0.4319   -5.9623 H         1 <0>         0.0556
     29 H2          1.0283    1.3272   -6.2088 H         1 <0>         0.0558
     30 H3          2.3093    0.3959   -7.0212 H         1 <0>         0.0582
     31 H4          3.2085    1.6285   -5.0665 H         1 <0>         0.0680
     32 H5          3.3224   -0.1306   -4.8200 H         1 <0>         0.0680
     33 H6          1.3322   -0.0291   -3.4642 H         1 <0>         0.0922
     34 H7          1.0636    1.6296   -3.7664 H         1 <0>         0.0992
     35 H8          0.1097    0.9897   -1.7628 H         1 <0>         0.1705
     36 H9          4.8937    1.2558   -0.1619 H         1 <0>         0.4161
     37 H10         2.9278    4.2542   -0.5878 H         1 <0>         0.1124
     38 H11         3.8661    6.4583   -1.1510 H         1 <0>         0.1202
     39 H12         6.2906    6.7170   -1.4870 H         1 <0>         0.1198
     40 H13         7.7844    4.7754   -1.2533 H         1 <0>         0.1228
     41 H14         7.2208    1.7355   -1.6076 H         1 <0>         0.0705
     42 H15         8.0955    2.5656   -0.2983 H         1 <0>         0.0678
     43 H16         6.6962    1.5330    0.0812 H         1 <0>         0.0559
     44 H17         4.1499    2.6761    2.1618 H         1 <0>         0.1332
     45 H18         3.0473    3.1123    4.2917 H         1 <0>         0.1340
     46 H19         0.6183    2.8261    4.5292 H         1 <0>         0.1380
     47 H20        -1.1142    1.6656    4.6875 H         1 <0>         0.0733
     48 H21        -1.3685    3.3634    4.2171 H         1 <0>         0.0801
     49 H22        -3.5134    2.3864    4.8791 H         1 <0>         0.0704
     50 H23        -3.5275    2.6869    3.1247 H         1 <0>         0.0600
     51 H24        -4.2863    0.4853    3.6567 H         1 <0>         0.3837
@<TRIPOS>BOND
     1    1    2 1
     2    1   28 1
     3    1   29 1
     4    1   30 1
     5    2    3 1
     6    2   31 1
     7    2   32 1
     8    3    4 1
     9    3   33 1
    10    3   34 1
    11    4    5 2
    12    4    6 1
    13    6   11 ar
    14    6    7 ar
    15    7    8 ar
    16    7   35 1
    17    8    9 ar
    18    9   23 ar
    19    9   10 ar
    20   10   11 ar
    21   10   20 ar
    22   11   12 1
    23   12   13 1
    24   12   36 1
    25   13   18 ar
    26   13   14 ar
    27   14   15 ar
    28   14   37 1
    29   15   16 ar
    30   15   38 1
    31   16   17 ar
    32   16   39 1
    33   17   18 ar
    34   17   40 1
    35   18   19 1
    36   19   41 1
    37   19   42 1
    38   19   43 1
    39   20   21 ar
    40   20   44 1
    41   21   22 ar
    42   21   45 1
    43   22   23 ar
    44   22   46 1
    45   23   24 1
    46   24   25 1
    47   25   26 1
    48   25   47 1
    49   25   48 1
    50   26   27 1
    51   26   49 1
    52   26   50 1
    53   27   51 1
@<TRIPOS>MOLECULE
ZINC05659810
   46    49     0     0     0
SMALL
USER_CHARGES
N,N'-bis(o-tolyl)quinazoline-2,4-diamine
@<TRIPOS>ATOM
      1 C1         -6.1890    2.0316   -0.8562 C.3       1 <0>        -0.1175
      2 C2         -6.3748    3.4979   -0.5619 C.ar      1 <0>        -0.1145
      3 C3         -7.5857    4.1079   -0.8253 C.ar      1 <0>        -0.1009
      4 C4         -7.7572    5.4530   -0.5551 C.ar      1 <0>        -0.1305
      5 C5         -6.7176    6.1922   -0.0204 C.ar      1 <0>        -0.1060
      6 C6         -5.5064    5.5872    0.2507 C.ar      1 <0>        -0.1114
      7 C7         -5.3289    4.2372   -0.0249 C.ar      1 <0>         0.1491
      8 N1         -4.1021    3.6230    0.2429 N.pl3     1 <0>        -0.6330
      9 C8         -2.9357    4.3571    0.1838 C.ar      1 <0>         0.5011
     10 C9         -1.6984    3.7889    0.5785 C.ar      1 <0>        -0.2250
     11 C10        -1.6001    2.4707    1.0360 C.ar      1 <0>        -0.0600
     12 C11        -0.3839    1.9771    1.4081 C.ar      1 <0>        -0.1461
     13 C12         0.7615    2.7637    1.3278 C.ar      1 <0>        -0.0625
     14 C13         0.7000    4.0504    0.8810 C.ar      1 <0>        -0.1216
     15 C14        -0.5344    4.5911    0.4960 C.ar      1 <0>         0.2272
     16 N2         -0.6484    5.8506    0.0492 N.ar      1 <0>        -0.5824
     17 C15        -1.8254    6.3294   -0.3058 C.ar      1 <0>         0.5998
     18 N3         -2.9432    5.6111   -0.2437 N.ar      1 <0>        -0.6095
     19 N4         -1.9003    7.6344   -0.7617 N.pl3     1 <0>        -0.6312
     20 C16        -0.7688    8.4547   -0.7222 C.ar      1 <0>         0.1658
     21 C17         0.2103    8.2443    0.2406 C.ar      1 <0>        -0.1147
     22 C18         1.3294    9.0527    0.2732 C.ar      1 <0>        -0.1060
     23 C19         1.4706   10.0781   -0.6442 C.ar      1 <0>        -0.1370
     24 C20         0.4952   10.2938   -1.6001 C.ar      1 <0>        -0.1009
     25 C21        -0.6239    9.4853   -1.6419 C.ar      1 <0>        -0.1195
     26 C22        -1.6867    9.7215   -2.6838 C.3       1 <0>        -0.1152
     27 H1         -6.4673    1.4469    0.0206 H         1 <0>         0.0721
     28 H2         -6.8203    1.7472   -1.6980 H         1 <0>         0.0739
     29 H3         -5.1449    1.8403   -1.1041 H         1 <0>         0.0611
     30 H4         -8.3996    3.5335   -1.2425 H         1 <0>         0.1260
     31 H5         -8.7051    5.9275   -0.7618 H         1 <0>         0.1233
     32 H6         -6.8550    7.2426    0.1898 H         1 <0>         0.1245
     33 H7         -4.6965    6.1639    0.6727 H         1 <0>         0.1398
     34 H8         -4.0709    2.6805    0.4703 H         1 <0>         0.4220
     35 H9         -2.4814    1.8495    1.0984 H         1 <0>         0.1220
     36 H10        -0.3082    0.9607    1.7655 H         1 <0>         0.1296
     37 H11         1.7134    2.3487    1.6244 H         1 <0>         0.1329
     38 H12         1.5969    4.6493    0.8243 H         1 <0>         0.1393
     39 H13        -2.7378    7.9797   -1.1085 H         1 <0>         0.4216
     40 H14         0.0986    7.4466    0.9600 H         1 <0>         0.1445
     41 H15         2.0929    8.8871    1.0188 H         1 <0>         0.1225
     42 H16         2.3445   10.7120   -0.6135 H         1 <0>         0.1209
     43 H17         0.6083   11.0956   -2.3148 H         1 <0>         0.1238
     44 H18        -2.4288   10.4184   -2.2944 H         1 <0>         0.0701
     45 H19        -1.2298   10.1406   -3.5803 H         1 <0>         0.0712
     46 H20        -2.1702    8.7762   -2.9304 H         1 <0>         0.0614
@<TRIPOS>BOND
     1    1    2 1
     2    1   27 1
     3    1   28 1
     4    1   29 1
     5    2    7 ar
     6    2    3 ar
     7    3    4 ar
     8    3   30 1
     9    4    5 ar
    10    4   31 1
    11    5    6 ar
    12    5   32 1
    13    6    7 ar
    14    6   33 1
    15    7    8 1
    16    8    9 1
    17    8   34 1
    18    9   18 ar
    19    9   10 ar
    20   10   15 ar
    21   10   11 ar
    22   11   12 ar
    23   11   35 1
    24   12   13 ar
    25   12   36 1
    26   13   14 ar
    27   13   37 1
    28   14   15 ar
    29   14   38 1
    30   15   16 ar
    31   16   17 ar
    32   17   18 ar
    33   17   19 1
    34   19   20 1
    35   19   39 1
    36   20   25 ar
    37   20   21 ar
    38   21   22 ar
    39   21   40 1
    40   22   23 ar
    41   22   41 1
    42   23   24 ar
    43   23   42 1
    44   24   25 ar
    45   24   43 1
    46   25   26 1
    47   26   44 1
    48   26   45 1
    49   26   46 1
@<TRIPOS>MOLECULE
ZINC13742269
   39    41     0     0     0
SMALL
USER_CHARGES
N-ethyl-N'-(o-tolyl)quinazoline-2,4-diamine
@<TRIPOS>ATOM
      1 C1         -4.6883   -3.0533    0.0059 C.3       1 <0>        -0.1675
      2 C2         -3.5406   -2.0417    0.0189 C.3       1 <0>         0.1344
      3 N1         -2.2610   -2.7547   -0.0041 N.pl3     1 <0>        -0.6962
      4 C3         -1.0737   -2.0451    0.0025 C.ar      1 <0>         0.6042
      5 N2         -1.1254   -0.7269    0.0297 N.ar      1 <0>        -0.5999
      6 C4          0.0038   -0.0033    0.0369 C.ar      1 <0>         0.2352
      7 C5         -0.0143    1.3979    0.0651 C.ar      1 <0>        -0.1260
      8 C6          1.1624    2.0865    0.0708 C.ar      1 <0>        -0.0625
      9 C7          2.3837    1.4193    0.0508 C.ar      1 <0>        -0.1519
     10 C8          2.4370    0.0564    0.0222 C.ar      1 <0>        -0.0577
     11 C9          1.2476   -0.6800    0.0148 C.ar      1 <0>        -0.2323
     12 C10         1.2413   -2.0969   -0.0135 C.ar      1 <0>         0.4993
     13 N3          0.0720   -2.7201   -0.0184 N.ar      1 <0>        -0.6144
     14 N4          2.4225   -2.8091   -0.0354 N.pl3     1 <0>        -0.6331
     15 C11         2.3999   -4.2033    0.0629 C.ar      1 <0>         0.1515
     16 C12         1.3282   -4.8407    0.6755 C.ar      1 <0>        -0.1197
     17 C13         1.3067   -6.2184    0.7667 C.ar      1 <0>        -0.1056
     18 C14         2.3553   -6.9630    0.2579 C.ar      1 <0>        -0.1345
     19 C15         3.4259   -6.3315   -0.3477 C.ar      1 <0>        -0.1002
     20 C16         3.4514   -4.9541   -0.4465 C.ar      1 <0>        -0.1192
     21 C17         4.6192   -4.2666   -1.1059 C.3       1 <0>        -0.1170
     22 H1         -4.6153   -3.6970    0.8825 H         1 <0>         0.0617
     23 H2         -5.6404   -2.5229    0.0231 H         1 <0>         0.0769
     24 H3         -4.6271   -3.6608   -0.8970 H         1 <0>         0.0616
     25 H4         -3.6018   -1.4343    0.9219 H         1 <0>         0.0679
     26 H5         -3.6136   -1.3980   -0.8577 H         1 <0>         0.0675
     27 H6         -2.2463   -3.7244   -0.0239 H         1 <0>         0.4120
     28 H7         -0.9547    1.9290    0.0778 H         1 <0>         0.1374
     29 H8          1.1466    3.1661    0.0926 H         1 <0>         0.1314
     30 H9          3.3017    1.9883    0.0565 H         1 <0>         0.1282
     31 H10         3.3906   -0.4503    0.0051 H         1 <0>         0.1205
     32 H11         3.2687   -2.3424   -0.1190 H         1 <0>         0.4212
     33 H12         0.5110   -4.2596    1.0767 H         1 <0>         0.1503
     34 H13         0.4723   -6.7147    1.2398 H         1 <0>         0.1236
     35 H14         2.3380   -8.0402    0.3342 H         1 <0>         0.1222
     36 H15         4.2433   -6.9160   -0.7437 H         1 <0>         0.1252
     37 H16         5.3801   -4.0450   -0.3576 H         1 <0>         0.0716
     38 H17         5.0406   -4.9192   -1.8704 H         1 <0>         0.0738
     39 H18         4.2814   -3.3382   -1.5665 H         1 <0>         0.0604
@<TRIPOS>BOND
     1    1    2 1
     2    1   22 1
     3    1   23 1
     4    1   24 1
     5    2    3 1
     6    2   25 1
     7    2   26 1
     8    3    4 1
     9    3   27 1
    10    4   13 ar
    11    4    5 ar
    12    5    6 ar
    13    6   11 ar
    14    6    7 ar
    15    7    8 ar
    16    7   28 1
    17    8    9 ar
    18    8   29 1
    19    9   10 ar
    20    9   30 1
    21   10   11 ar
    22   10   31 1
    23   11   12 ar
    24   12   13 ar
    25   12   14 1
    26   14   15 1
    27   14   32 1
    28   15   20 ar
    29   15   16 ar
    30   16   17 ar
    31   16   33 1
    32   17   18 ar
    33   17   34 1
    34   18   19 ar
    35   18   35 1
    36   19   20 ar
    37   19   36 1
    38   20   21 1
    39   21   37 1
    40   21   38 1
    41   21   39 1
