@<TRIPOS>MOLECULE
ZINC22864790
   25    26     0     0     0
SMALL
USER_CHARGES

@<TRIPOS>ATOM
      1 C1          0.0435    1.4113    0.0022 C.ar      1 <0>        -0.1177
      2 C2          1.2367    2.1116   -0.0067 C.ar      1 <0>        -0.1039
      3 C3          2.4423    1.4343   -0.0218 C.ar      1 <0>        -0.1174
      4 C4          2.4613    0.0531   -0.0281 C.ar      1 <0>        -0.0123
      5 C5          1.2612   -0.6576   -0.0187 C.ar      1 <0>        -0.0173
      6 C6          0.0497    0.0314   -0.0036 C.ar      1 <0>        -0.0957
      7 C7          1.2742   -2.1407   -0.0259 C.2       1 <0>         0.1046
      8 C8          0.0998   -2.8400   -0.0219 C.2       1 <0>        -0.2026
      9 S1          0.7111   -4.5202   -0.0337 S.3       1 <0>        -0.0693
     10 C9          2.4541   -4.1245   -0.0427 C.2       1 <0>         0.3605
     11 N1          2.4237   -2.7981   -0.0417 N.2       1 <0>        -0.5037
     12 N2          3.5260   -4.9604   -0.0527 N.2       1 <0>        -0.5803
     13 C10         4.1163   -5.2871    1.0775 C.2       1 <0>         0.6939
     14 N3          3.5855   -4.8750    2.2720 N.pl3     1 <0>        -0.8673
     15 N4          5.2618   -6.0394    1.0597 N.pl3     1 <0>        -0.8244
     16 Cl1         3.9752   -0.7962   -0.0482 Cl        1 <0>        -0.0319
     17 H1         -0.8948    1.9458    0.0181 H         1 <0>         0.1317
     18 H2          1.2265    3.1916   -0.0022 H         1 <0>         0.1322
     19 H3          3.3706    1.9862   -0.0290 H         1 <0>         0.1337
     20 H4         -0.8826   -0.5137    0.0033 H         1 <0>         0.1327
     21 H5         -0.9175   -2.4775   -0.0139 H         1 <0>         0.1926
     22 H6          2.7356   -4.4079    2.2896 H         1 <0>         0.4166
     23 H7          5.6375   -6.3311    0.2143 H         1 <0>         0.4275
     24 H8          5.6968   -6.2802    1.8926 H         1 <0>         0.4142
     25 H9          4.0599   -5.0503    3.0997 H         1 <0>         0.4037
@<TRIPOS>BOND
     1    1    6 ar
     2    1    2 ar
     3    1   17 1
     4    2    3 ar
     5    2   18 1
     6    3    4 ar
     7    3   19 1
     8    4    5 ar
     9    4   16 1
    10    5    6 ar
    11    5    7 1
    12    6   20 1
    13    7   11 1
    14    7    8 2
    15    8    9 1
    16    8   21 1
    17    9   10 1
    18   10   11 2
    19   10   12 1
    20   12   13 2
    21   13   14 1
    22   13   15 1
    23   14   22 1
    24   14   25 1
    25   15   23 1
    26   15   24 1
@<TRIPOS>MOLECULE
ZINC22864790
   26    27     0     0     0
SMALL
USER_CHARGES
1-[4-(2-chlorophenyl)thiazol-2-yl]guanidine
@<TRIPOS>ATOM
      1 C1         -1.0133    2.7312   -0.9286 C.ar      1 <0>        -0.1116
      2 C2         -1.2246    1.7578    0.0316 C.ar      1 <0>        -0.0857
      3 C3         -0.2490    1.4837    0.9728 C.ar      1 <0>        -0.1106
      4 C4          0.9384    2.1895    0.9658 C.ar      1 <0>        -0.0031
      5 C5          1.1541    3.1758    0.0035 C.ar      1 <0>        -0.0390
      6 C6          0.1689    3.4429   -0.9456 C.ar      1 <0>        -0.0836
      7 C7          2.4265    3.9377   -0.0095 C.2       1 <0>         0.1300
      8 C8          2.4134    5.3001   -0.1159 C.2       1 <0>        -0.1393
      9 S1          4.1661    5.6523   -0.0796 S.3       1 <0>         0.0121
     10 C9          4.7302    3.9630    0.0722 C.2       1 <0>         0.2951
     11 N1          3.5863    3.3041    0.0875 N.2       1 <0>        -0.4650
     12 N2          6.0269    3.4741    0.1573 N.pl3     1 <0>        -0.6011
     13 C10         7.0887    4.3480    0.2378 C.cat     1 <0>         0.7496
     14 N3          6.8719    5.6291    0.3377 N.pl3     1 <0>        -0.7910
     15 N4          8.3771    3.8686    0.2127 N.pl3     1 <0>        -0.8293
     16 Cl1         2.1597    1.8493    2.1517 Cl        1 <0>        -0.0552
     17 H1         -1.7770    2.9376   -1.6637 H         1 <0>         0.1400
     18 H2         -2.1535    1.2069    0.0437 H         1 <0>         0.1411
     19 H3         -0.4178    0.7199    1.7175 H         1 <0>         0.1418
     20 H4          0.3306    4.2052   -1.6933 H         1 <0>         0.1375
     21 H5          1.5759    5.9770   -0.1986 H         1 <0>         0.2226
     22 H6          6.2064    2.3889    0.1604 H         1 <0>         0.4903
     23 H7          9.2250    4.5665    0.2770 H         1 <0>         0.4739
     24 H8          8.5600    2.7872    0.1283 H         1 <0>         0.4701
     25 H9          7.7197    6.3270    0.4020 H         1 <0>         0.4756
     26 H10         5.8411    6.0126    0.3577 H         1 <0>         0.4348
@<TRIPOS>BOND
     1    1    6 ar
     2    1    2 ar
     3    1   17 1
     4    2    3 ar
     5    2   18 1
     6    3    4 ar
     7    3   19 1
     8    4    5 ar
     9    4   16 1
    10    5    6 ar
    11    5    7 1
    12    6   20 1
    13    7   11 1
    14    7    8 2
    15    8    9 1
    16    8   21 1
    17    9   10 1
    18   10   11 2
    19   10   12 1
    20   12   13 1
    21   12   22 1
    22   13   14 2
    23   13   15 1
    24   14   25 1
    25   14   26 1
    26   15   23 1
    27   15   24 1
@<TRIPOS>MOLECULE
ZINC27633331
   29    31     0     0     0
SMALL
USER_CHARGES

@<TRIPOS>ATOM
      1 C1         -0.0659    1.3922    0.0183 C.ar      1 <0>        -0.1519
      2 C2          1.1139    2.1234    0.0125 C.ar      1 <0>        -0.0968
      3 C3          2.3349    1.4860   -0.0032 C.ar      1 <0>        -0.1345
      4 C4          2.3887    0.0953   -0.0127 C.ar      1 <0>         0.0907
      5 C5          1.1905   -0.6393   -0.0063 C.ar      1 <0>        -0.0820
      6 C6         -0.0350    0.0258    0.0091 C.ar      1 <0>        -0.0543
      7 C7          1.5827   -2.0574   -0.0192 C.2       1 <0>        -0.1099
      8 C8          2.9366   -2.0874   -0.0321 C.2       1 <0>         0.0729
      9 N1          3.4268   -0.8101   -0.0284 N.pl3     1 <0>        -0.5901
     10 H1          4.3682   -0.5761   -0.0360 H         1 <0>         0.4186
     11 C9          0.6713   -3.2279   -0.0178 C.2       1 <0>         0.1581
     12 C10         1.1796   -4.4965   -0.0257 C.2       1 <0>        -0.2258
     13 S1         -0.3263   -5.4603   -0.0199 S.3       1 <0>        -0.0728
     14 C11        -1.4709   -4.0875   -0.0076 C.2       1 <0>         0.3609
     15 N2         -0.6406   -3.0518   -0.0034 N.2       1 <0>        -0.5231
     16 N3         -2.8301   -4.1006    0.0008 N.2       1 <0>        -0.5815
     17 C12        -3.4963   -3.9970   -1.1295 C.2       1 <0>         0.6933
     18 N4         -2.8230   -3.9870   -2.3234 N.pl3     1 <0>        -0.8679
     19 N5         -4.8633   -3.8990   -1.1129 N.pl3     1 <0>        -0.8245
     20 H2         -1.0153    1.9067    0.0348 H         1 <0>         0.1208
     21 H3          1.0742    3.2027    0.0199 H         1 <0>         0.1243
     22 H4          3.2475    2.0635   -0.0083 H         1 <0>         0.1194
     23 H5         -0.9567   -0.5370    0.0133 H         1 <0>         0.1310
     24 H6          3.5384   -2.9841   -0.0436 H         1 <0>         0.1743
     25 H7          2.2081   -4.8261   -0.0337 H         1 <0>         0.1890
     26 H8         -1.8641   -4.1321   -2.3406 H         1 <0>         0.4168
     27 H9         -5.3398   -3.9061   -0.2680 H         1 <0>         0.4275
     28 H10        -5.3543   -3.8227   -1.9460 H         1 <0>         0.4141
     29 H11        -3.3054   -3.8348   -3.1510 H         1 <0>         0.4036
@<TRIPOS>BOND
     1    1    6 ar
     2    1    2 ar
     3    1   20 1
     4    2    3 ar
     5    2   21 1
     6    3    4 ar
     7    3   22 1
     8    4    9 1
     9    4    5 ar
    10    5    6 ar
    11    5    7 1
    12    6   23 1
    13    7    8 2
    14    7   11 1
    15    8    9 1
    16    8   24 1
    17    9   10 1
    18   11   15 1
    19   11   12 2
    20   12   13 1
    21   12   25 1
    22   13   14 1
    23   14   15 2
    24   14   16 1
    25   16   17 2
    26   17   18 1
    27   17   19 1
    28   18   26 1
    29   18   29 1
    30   19   27 1
    31   19   28 1
@<TRIPOS>MOLECULE
ZINC27633331
   30    32     0     0     0
SMALL
USER_CHARGES
1-[4-(1H-indol-3-yl)thiazol-2-yl]guanidine
@<TRIPOS>ATOM
      1 C1          2.9308    3.8668   -0.0252 C.ar      1 <0>        -0.1411
      2 C2          3.3743    2.5516   -0.0409 C.ar      1 <0>        -0.0954
      3 C3          2.4756    1.5076   -0.0414 C.ar      1 <0>        -0.1241
      4 C4          1.1092    1.7716   -0.0255 C.ar      1 <0>         0.0841
      5 C5          0.6667    3.1055   -0.0092 C.ar      1 <0>        -0.0818
      6 C6          1.5933    4.1476   -0.0094 C.ar      1 <0>        -0.0676
      7 C7         -0.8035    3.0463    0.0044 C.2       1 <0>        -0.1482
      8 C8         -1.1409    1.7348   -0.0095 C.2       1 <0>         0.1175
      9 N1         -0.0087    0.9668   -0.0221 N.pl3     1 <0>        -0.5939
     10 H1          0.1015   -0.1276   -0.0292 H         1 <0>         0.4547
     11 C9         -1.7357    4.2001    0.0233 C.2       1 <0>         0.1948
     12 C10        -3.0890    4.0113    0.0346 C.2       1 <0>        -0.1893
     13 S1         -3.6612    5.7037    0.0555 S.3       1 <0>         0.0429
     14 C11        -2.1051    6.4732    0.0475 C.2       1 <0>         0.2722
     15 N2         -1.2807    5.4456    0.0354 N.2       1 <0>        -0.4861
     16 N3         -1.8051    7.8289    0.0576 N.pl3     1 <0>        -0.6026
     17 C12        -2.8172    8.7590   -0.0325 C.cat     1 <0>         0.7488
     18 N4         -4.0612    8.3710   -0.0238 N.pl3     1 <0>        -0.7890
     19 N5         -2.5148   10.0967   -0.1318 N.pl3     1 <0>        -0.8305
     20 H2          3.6480    4.6743   -0.0257 H         1 <0>         0.1239
     21 H3          4.4342    2.3447   -0.0532 H         1 <0>         0.1293
     22 H4          2.8302    0.4876   -0.0544 H         1 <0>         0.1252
     23 H5          1.2551    5.1732    0.0027 H         1 <0>         0.1243
     24 H6         -2.1512    1.3529   -0.0084 H         1 <0>         0.1778
     25 H7         -3.6563    3.0923    0.0320 H         1 <0>         0.2166
     26 H8         -0.7592    8.1602    0.1376 H         1 <0>         0.4883
     27 H9         -3.3230   10.8394   -0.2037 H         1 <0>         0.4732
     28 H10        -1.4647   10.4241   -0.1393 H         1 <0>         0.4696
     29 H11        -4.8695    9.1136   -0.0957 H         1 <0>         0.4745
     30 H12        -4.3030    7.3008    0.0555 H         1 <0>         0.4317
@<TRIPOS>BOND
     1    1    6 ar
     2    1    2 ar
     3    1   20 1
     4    2    3 ar
     5    2   21 1
     6    3    4 ar
     7    3   22 1
     8    4    9 1
     9    4    5 ar
    10    5    6 ar
    11    5    7 1
    12    6   23 1
    13    7    8 2
    14    7   11 1
    15    8    9 1
    16    8   24 1
    17    9   10 1
    18   11   15 1
    19   11   12 2
    20   12   13 1
    21   12   25 1
    22   13   14 1
    23   14   15 2
    24   14   16 1
    25   16   17 1
    26   16   26 1
    27   17   18 2
    28   17   19 1
    29   18   29 1
    30   18   30 1
    31   19   27 1
    32   19   28 1
@<TRIPOS>MOLECULE
ZINC06251082
   27    28     0     0     0
SMALL
USER_CHARGES

@<TRIPOS>ATOM
      1 C1          0.1864    0.8210   -2.2885 C.ar      1 <0>        -0.0967
      2 C2          1.3930    1.4152   -2.6003 C.ar      1 <0>        -0.1285
      3 C3          2.5728    0.6972   -2.4834 C.ar      1 <0>         0.0827
      4 C4          2.5451   -0.6264   -2.0508 C.ar      1 <0>         0.0773
      5 C5          1.3388   -1.2258   -1.7368 C.ar      1 <0>        -0.1011
      6 C6          0.1526   -0.5027   -1.8547 C.ar      1 <0>        -0.0118
      7 C7         -1.1433   -1.1417   -1.5191 C.2       1 <0>         0.1232
      8 C8         -2.3165   -0.4743   -1.7343 C.2       1 <0>        -0.2396
      9 S1         -3.5005   -1.6877   -1.1660 S.3       1 <0>         0.0355
     10 C9         -2.3229   -2.9502   -0.7032 C.2       1 <0>         0.3562
     11 N1         -1.1731   -2.3652   -1.0136 N.2       1 <0>        -0.5906
     12 N2         -2.5462   -4.1838   -0.1777 N.2       1 <0>        -0.5840
     13 C10        -1.5312   -4.9316    0.2004 C.2       1 <0>         0.6895
     14 N3         -0.2622   -4.4137    0.2038 N.pl3     1 <0>        -0.8580
     15 N4         -1.7432   -6.2283    0.5906 N.pl3     1 <0>        -0.8226
     16 O1          3.7037   -1.3294   -1.9376 O.3       1 <0>        -0.4867
     17 O2          3.7593    1.2859   -2.7920 O.3       1 <0>        -0.4880
     18 H1         -0.7312    1.3839   -2.3764 H         1 <0>         0.1341
     19 H2          1.4176    2.4412   -2.9364 H         1 <0>         0.1375
     20 H3          1.3157   -2.2522   -1.4015 H         1 <0>         0.1387
     21 H4         -2.4827    0.5141   -2.1366 H         1 <0>         0.1938
     22 H5         -0.1294   -3.4563    0.2849 H         1 <0>         0.4279
     23 H6         -2.6413   -6.5948    0.5882 H         1 <0>         0.4253
     24 H7         -0.9952   -6.7794    0.8692 H         1 <0>         0.4139
     25 H8          4.1220   -1.2610   -1.0684 H         1 <0>         0.3864
     26 H9          4.1851    1.7281   -2.0449 H         1 <0>         0.3878
     27 H10         0.5030   -5.0046    0.1252 H         1 <0>         0.3977
@<TRIPOS>BOND
     1    1    6 ar
     2    1    2 ar
     3    1   18 1
     4    2    3 ar
     5    2   19 1
     6    3    4 ar
     7    3   17 1
     8    4    5 ar
     9    4   16 1
    10    5    6 ar
    11    5   20 1
    12    6    7 1
    13    7   11 1
    14    7    8 2
    15    8    9 1
    16    8   21 1
    17    9   10 1
    18   10   11 2
    19   10   12 1
    20   12   13 2
    21   13   14 1
    22   13   15 1
    23   14   22 1
    24   14   27 1
    25   15   23 1
    26   15   24 1
    27   16   25 1
    28   17   26 1
@<TRIPOS>MOLECULE
ZINC06251082
   28    29     0     0     0
SMALL
USER_CHARGES

@<TRIPOS>ATOM
      1 C1         -0.1283    1.1181   -1.7205 C.ar      1 <0>        -0.0869
      2 C2          1.0430    1.8258   -1.9032 C.ar      1 <0>        -0.1279
      3 C3          2.2669    1.2151   -1.6791 C.ar      1 <0>         0.1055
      4 C4          2.3193   -0.1148   -1.2688 C.ar      1 <0>         0.0810
      5 C5          1.1485   -0.8277   -1.0840 C.ar      1 <0>        -0.0914
      6 C6         -0.0820   -0.2125   -1.3096 C.ar      1 <0>        -0.0421
      7 C7         -1.3401   -0.9734   -1.1127 C.2       1 <0>         0.1309
      8 C8         -2.5435   -0.4112   -1.4342 C.2       1 <0>        -0.1494
      9 S1         -3.6571   -1.7412   -1.0003 S.3       1 <0>         0.0473
     10 C9         -2.4153   -2.8983   -0.4402 C.2       1 <0>         0.2688
     11 N1         -1.3070   -2.2062   -0.6284 N.2       1 <0>        -0.4723
     12 N2         -2.5738   -4.1861    0.0563 N.pl3     1 <0>        -0.5753
     13 C10        -3.8301   -4.6741    0.3073 C.cat     1 <0>         0.7559
     14 N3         -3.9924   -5.9509    0.6495 N.pl3     1 <0>        -0.7691
     15 N4         -4.8883   -3.8715    0.2088 N.pl3     1 <0>        -0.7739
     16 O1          3.5212   -0.7123   -1.0503 O.3       1 <0>        -0.4837
     17 O2          3.4185    1.9155   -1.8606 O.3       1 <0>        -0.4848
     18 H1         -1.0809    1.5974   -1.8919 H         1 <0>         0.1365
     19 H2          1.0056    2.8571   -2.2217 H         1 <0>         0.1452
     20 H3          1.1876   -1.8591   -0.7661 H         1 <0>         0.1426
     21 H4         -2.7616    0.5663   -1.8382 H         1 <0>         0.2237
     22 H5         -1.7956   -4.7399    0.2254 H         1 <0>         0.4592
     23 H6         -4.7668   -2.9325   -0.0022 H         1 <0>         0.4250
     24 H7         -5.7804   -4.2258    0.3480 H         1 <0>         0.4486
     25 H8          3.8444   -0.6257   -0.1430 H         1 <0>         0.3924
     26 H9          3.7266    2.3778   -1.0691 H         1 <0>         0.3958
     27 H10        -3.2217   -6.5356    0.7213 H         1 <0>         0.4477
     28 H11        -4.8813   -6.2963    0.8271 H         1 <0>         0.4510
@<TRIPOS>BOND
     1    1    6 ar
     2    1    2 ar
     3    1   18 1
     4    2    3 ar
     5    2   19 1
     6    3    4 ar
     7    3   17 1
     8    4    5 ar
     9    4   16 1
    10    5    6 ar
    11    5   20 1
    12    6    7 1
    13    7   11 1
    14    7    8 2
    15    8    9 1
    16    8   21 1
    17    9   10 1
    18   10   11 2
    19   10   12 1
    20   12   13 1
    21   12   22 1
    22   13   14 2
    23   13   15 1
    24   14   27 1
    25   14   28 1
    26   15   23 1
    27   15   24 1
    28   16   25 1
    29   17   26 1
@<TRIPOS>MOLECULE
ZINC27632825
   32    34     0     0     0
SMALL
USER_CHARGES

@<TRIPOS>ATOM
      1 C1          0.1620    1.4555    0.0019 C.3       1 <0>        -0.0873
      2 C2          0.0845   -0.0494   -0.0151 C.2       1 <0>         0.1197
      3 C3         -0.0853   -0.8087   -1.1235 C.2       1 <0>        -0.1175
      4 C4         -0.1027   -2.2109   -0.6779 C.ar      1 <0>        -0.0845
      5 C5         -0.2424   -3.4333   -1.3341 C.ar      1 <0>        -0.0737
      6 C6         -0.2158   -4.5962   -0.6164 C.ar      1 <0>        -0.1429
      7 C7         -0.0506   -4.5698    0.7615 C.ar      1 <0>        -0.1012
      8 C8          0.0892   -3.3730    1.4291 C.ar      1 <0>        -0.1271
      9 C9          0.0649   -2.1773    0.7171 C.ar      1 <0>         0.0959
     10 N1          0.1811   -0.8553    1.0863 N.pl3     1 <0>        -0.5904
     11 H1          0.3098   -0.5413    1.9951 H         1 <0>         0.4163
     12 C10        -0.2271   -0.3211   -2.5174 C.2       1 <0>         0.1512
     13 C11        -1.2171   -0.8121   -3.3214 C.2       1 <0>        -0.2025
     14 S1         -0.9119    0.1048   -4.8258 S.3       1 <0>        -0.0807
     15 C12         0.4917    1.0414   -4.2363 C.2       1 <0>         0.3558
     16 N2          0.6010    0.5971   -2.9903 N.2       1 <0>        -0.5200
     17 N3          1.2443    1.9663   -4.8891 N.2       1 <0>        -0.5797
     18 C13         2.2604    1.5823   -5.6322 C.2       1 <0>         0.6899
     19 N4          2.6307    0.2629   -5.6578 N.pl3     1 <0>        -0.8683
     20 N5          2.9482    2.5018   -6.3807 N.pl3     1 <0>        -0.8249
     21 H2          1.2056    1.7662   -0.0470 H         1 <0>         0.0812
     22 H3         -0.3771    1.8567   -0.8563 H         1 <0>         0.0848
     23 H4         -0.2865    1.8321    0.9212 H         1 <0>         0.0660
     24 H5         -0.3716   -3.4611   -2.4060 H         1 <0>         0.1202
     25 H6         -0.3244   -5.5426   -1.1252 H         1 <0>         0.1226
     26 H7         -0.0318   -5.4965    1.3157 H         1 <0>         0.1254
     27 H8          0.2169   -3.3625    2.5014 H         1 <0>         0.1204
     28 H9         -1.9751   -1.5510   -3.1072 H         1 <0>         0.1894
     29 H10         2.0987   -0.3993   -5.1894 H         1 <0>         0.4171
     30 H11         3.4248   -0.0087   -6.1443 H         1 <0>         0.4035
     31 H12         2.6861    3.4355   -6.3626 H         1 <0>         0.4273
     32 H13         3.6971    2.2187   -6.9284 H         1 <0>         0.4142
@<TRIPOS>BOND
     1    1    2 1
     2    1   21 1
     3    1   22 1
     4    1   23 1
     5    2   10 1
     6    2    3 2
     7    3    4 1
     8    3   12 1
     9    4    9 ar
    10    4    5 ar
    11    5    6 ar
    12    5   24 1
    13    6    7 ar
    14    6   25 1
    15    7    8 ar
    16    7   26 1
    17    8    9 ar
    18    8   27 1
    19    9   10 1
    20   10   11 1
    21   12   16 1
    22   12   13 2
    23   13   14 1
    24   13   28 1
    25   14   15 1
    26   15   16 2
    27   15   17 1
    28   17   18 2
    29   18   19 1
    30   18   20 1
    31   19   29 1
    32   19   30 1
    33   20   31 1
    34   20   32 1
@<TRIPOS>MOLECULE
ZINC27632825
   33    35     0     0     0
SMALL
USER_CHARGES
2-[4-(2-methyl-1H-indol-3-yl)thiazol-2-yl]guanidine
@<TRIPOS>ATOM
      1 C1          1.5929    3.3448   -0.2564 C.3       1 <0>        -0.1039
      2 C2          1.2449    1.8840   -0.1307 C.2       1 <0>         0.1238
      3 C3          2.1425    0.8731   -0.0492 C.2       1 <0>        -0.1483
      4 C4          1.3681   -0.3732    0.0597 C.ar      1 <0>        -0.0856
      5 C5          1.7124   -1.7199    0.1717 C.ar      1 <0>        -0.0815
      6 C6          0.7305   -2.6670    0.2562 C.ar      1 <0>        -0.1323
      7 C7         -0.6075   -2.2984    0.2315 C.ar      1 <0>        -0.0945
      8 C8         -0.9690   -0.9739    0.1210 C.ar      1 <0>        -0.1226
      9 C9          0.0151    0.0064    0.0336 C.ar      1 <0>         0.1095
     10 N1         -0.0255    1.3785   -0.0823 N.pl3     1 <0>        -0.5952
     11 H1         -0.8898    2.0569   -0.1359 H         1 <0>         0.4485
     12 C10         3.6206    0.9982   -0.0668 C.2       1 <0>         0.1701
     13 C11         4.3726    0.1690   -0.8508 C.2       1 <0>        -0.1753
     14 S1          6.0188    0.7604   -0.4805 S.3       1 <0>         0.1493
     15 C12         5.5432    2.0358    0.6780 C.2       1 <0>         0.2618
     16 N2          4.2218    1.9102    0.6810 N.2       1 <0>        -0.5314
     17 N3          6.3265    2.9037    1.3715 N.pl3     1 <0>        -0.5746
     18 C13         5.7876    3.7095    2.2618 C.cat     1 <0>         0.7362
     19 N4          4.4254    3.7592    2.4053 N.pl3     1 <0>        -0.8220
     20 N5          6.5885    4.4989    3.0454 N.pl3     1 <0>        -0.8394
     21 H2          2.6866    3.4612   -0.2710 H         1 <0>         0.0814
     22 H3          1.1769    3.8958    0.5999 H         1 <0>         0.0797
     23 H4          1.1692    3.7436   -1.1899 H         1 <0>         0.0831
     24 H5          2.7515   -2.0135    0.1919 H         1 <0>         0.1202
     25 H6          0.9978   -3.7097    0.3433 H         1 <0>         0.1276
     26 H7         -1.3726   -3.0577    0.2991 H         1 <0>         0.1311
     27 H8         -2.0127   -0.6969    0.1018 H         1 <0>         0.1254
     28 H9          4.0588   -0.6246   -1.5128 H         1 <0>         0.2149
     29 H10         3.9749    4.4326    3.1493 H         1 <0>         0.4504
     30 H11         6.1380    5.1723    3.7894 H         1 <0>         0.4693
     31 H12         7.6817    4.4590    2.9302 H         1 <0>         0.4628
     32 H13         7.4108    2.9326    1.1886 H         1 <0>         0.4934
     33 H14         3.7826    3.1257    1.7764 H         1 <0>         0.4682
@<TRIPOS>BOND
     1    1    2 1
     2    1   21 1
     3    1   22 1
     4    1   23 1
     5    2   10 1
     6    2    3 2
     7    3    4 1
     8    3   12 1
     9    4    9 ar
    10    4    5 ar
    11    5    6 ar
    12    5   24 1
    13    6    7 ar
    14    6   25 1
    15    7    8 ar
    16    7   26 1
    17    8    9 ar
    18    8   27 1
    19    9   10 1
    20   10   11 1
    21   12   16 1
    22   12   13 2
    23   13   14 1
    24   13   28 1
    25   14   15 1
    26   15   16 2
    27   15   17 1
    28   17   18 1
    29   17   32 1
    30   18   19 2
    31   18   20 1
    32   19   29 1
    33   19   33 1
    34   20   30 1
    35   20   31 1
@<TRIPOS>MOLECULE
ZINC27631794
   32    34     0     0     0
SMALL
USER_CHARGES

@<TRIPOS>ATOM
      1 C1         -0.0305    1.5449   -0.0581 C.3       1 <0>        -0.1126
      2 C2         -0.0083    0.0381   -0.0527 C.ar      1 <0>        -0.0635
      3 C3         -0.0031   -0.6535   -1.2562 C.ar      1 <0>        -0.1503
      4 C4          0.0165   -2.0201   -1.2706 C.ar      1 <0>        -0.0503
      5 C5          0.0320   -2.7254   -0.0679 C.ar      1 <0>        -0.0863
      6 C6          0.0273   -2.0311    1.1541 C.ar      1 <0>         0.0956
      7 C7          0.0124   -0.6394    1.1465 C.ar      1 <0>        -0.1368
      8 N1          0.0457   -2.9704    2.1616 N.pl3     1 <0>        -0.5902
      9 H1          0.0465   -2.7678    3.1102 H         1 <0>         0.4183
     10 C8          0.0618   -4.2306    1.6292 C.2       1 <0>         0.0713
     11 C9          0.0546   -4.1557    0.2770 C.2       1 <0>        -0.1087
     12 C10         0.0666   -5.2952   -0.6728 C.2       1 <0>         0.1582
     13 C11         0.0825   -6.5799   -0.2069 C.2       1 <0>        -0.2257
     14 S1          0.0910   -7.4931   -1.7440 S.3       1 <0>        -0.0733
     15 C12         0.0726   -6.0830   -2.8424 C.2       1 <0>         0.3607
     16 N2          0.0565   -5.0756   -1.9782 N.2       1 <0>        -0.5228
     17 N3          0.0708   -6.0510   -4.2014 N.2       1 <0>        -0.5814
     18 C13         1.2036   -5.9168   -4.8579 C.2       1 <0>         0.6931
     19 N4          2.3941   -5.9203   -4.1786 N.pl3     1 <0>        -0.8679
     20 N5          1.1929   -5.7735   -6.2210 N.pl3     1 <0>        -0.8246
     21 H2          0.9917    1.9233   -0.0686 H         1 <0>         0.0698
     22 H3         -0.5575    1.8973   -0.9448 H         1 <0>         0.0674
     23 H4         -0.5417    1.9039    0.8351 H         1 <0>         0.0644
     24 H5         -0.0150   -0.1078   -2.1881 H         1 <0>         0.1205
     25 H6          0.0197   -2.5519   -2.2106 H         1 <0>         0.1314
     26 H7          0.0130   -0.0925    2.0777 H         1 <0>         0.1190
     27 H8          0.0782   -5.1467    2.2009 H         1 <0>         0.1739
     28 H9          0.0883   -6.9435    0.8101 H         1 <0>         0.1889
     29 H10         2.4077   -6.0971   -3.2249 H         1 <0>         0.4169
     30 H11         3.2228   -5.7459   -4.6515 H         1 <0>         0.4035
     31 H12         0.3504   -5.7711   -6.7018 H         1 <0>         0.4275
     32 H13         2.0277   -5.6746   -6.7049 H         1 <0>         0.4141
@<TRIPOS>BOND
     1    1    2 1
     2    1   21 1
     3    1   22 1
     4    1   23 1
     5    2    7 ar
     6    2    3 ar
     7    3    4 ar
     8    3   24 1
     9    4    5 ar
    10    4   25 1
    11    5   11 1
    12    5    6 ar
    13    6    7 ar
    14    6    8 1
    15    7   26 1
    16    8    9 1
    17    8   10 1
    18   10   11 2
    19   10   27 1
    20   11   12 1
    21   12   16 1
    22   12   13 2
    23   13   14 1
    24   13   28 1
    25   14   15 1
    26   15   16 2
    27   15   17 1
    28   17   18 2
    29   18   19 1
    30   18   20 1
    31   19   29 1
    32   19   30 1
    33   20   31 1
    34   20   32 1
@<TRIPOS>MOLECULE
ZINC27631794
   33    35     0     0     0
SMALL
USER_CHARGES
2-[4-(6-methyl-1H-indol-3-yl)thiazol-2-yl]guanidine
@<TRIPOS>ATOM
      1 C1          3.7028   -0.7919   -0.0483 C.3       1 <0>        -0.1199
      2 C2          2.4023   -0.0307   -0.0304 C.ar      1 <0>        -0.0589
      3 C3          1.2000   -0.7244   -0.0216 C.ar      1 <0>        -0.1414
      4 C4          0.0108   -0.0508   -0.0050 C.ar      1 <0>        -0.0640
      5 C5          0.0046    1.3436    0.0028 C.ar      1 <0>        -0.0881
      6 C6          1.2185    2.0518   -0.0065 C.ar      1 <0>         0.0905
      7 C7          2.4182    1.3466   -0.0234 C.ar      1 <0>        -0.1287
      8 N1          0.9118    3.3948    0.0043 N.pl3     1 <0>        -0.5951
      9 H1          1.7180    4.1431   -0.0003 H         1 <0>         0.4537
     10 C8         -0.4453    3.5670    0.0200 C.2       1 <0>         0.1102
     11 C9         -1.0593    2.3599    0.0141 C.2       1 <0>        -0.1463
     12 C10        -2.5217    2.1105    0.0197 C.2       1 <0>         0.1517
     13 C11        -3.3989    3.1584    0.0303 C.2       1 <0>        -0.1603
     14 S1         -4.9605    2.2875    0.0320 S.3       1 <0>         0.0884
     15 C12        -4.2923    0.6297    0.0186 C.2       1 <0>         0.2097
     16 N2         -2.9871    0.8713    0.0090 N.2       1 <0>        -0.4422
     17 N3         -4.9468   -0.5618    0.0142 N.pl3     1 <0>        -0.5734
     18 C13        -5.1662   -1.1963    1.1462 C.cat     1 <0>         0.7548
     19 N4         -4.8343   -0.6063    2.3380 N.pl3     1 <0>        -0.8317
     20 N5         -5.7265   -2.4471    1.1333 N.pl3     1 <0>        -0.8322
     21 H2          3.4953   -1.8722   -0.0517 H         1 <0>         0.0683
     22 H3          4.2908   -0.5342    0.8450 H         1 <0>         0.0726
     23 H4          4.2715   -0.5249   -0.9512 H         1 <0>         0.0729
     24 H5          1.2042   -1.8044   -0.0277 H         1 <0>         0.1220
     25 H6         -0.9210   -0.5968    0.0025 H         1 <0>         0.1223
     26 H7          3.3587    1.8775   -0.0311 H         1 <0>         0.1244
     27 H8         -0.9507    4.5214    0.0307 H         1 <0>         0.1759
     28 H9         -3.2029    4.2205    0.0361 H         1 <0>         0.2129
     29 H10        -5.0177   -1.1366    3.2841 H         1 <0>         0.4678
     30 H11        -5.9099   -2.9774    2.0794 H         1 <0>         0.4706
     31 H12        -5.9928   -2.9206    0.1768 H         1 <0>         0.4679
     32 H13        -5.2930   -0.9956   -0.9355 H         1 <0>         0.4838
     33 H14        -4.3846    0.3975    2.3484 H         1 <0>         0.4616
@<TRIPOS>BOND
     1    1    2 1
     2    1   21 1
     3    1   22 1
     4    1   23 1
     5    2    7 ar
     6    2    3 ar
     7    3    4 ar
     8    3   24 1
     9    4    5 ar
    10    4   25 1
    11    5   11 1
    12    5    6 ar
    13    6    7 ar
    14    6    8 1
    15    7   26 1
    16    8    9 1
    17    8   10 1
    18   10   11 2
    19   10   27 1
    20   11   12 1
    21   12   16 1
    22   12   13 2
    23   13   14 1
    24   13   28 1
    25   14   15 1
    26   15   16 2
    27   15   17 1
    28   17   18 1
    29   17   32 1
    30   18   19 2
    31   18   20 1
    32   19   29 1
    33   19   33 1
    34   20   30 1
    35   20   31 1
@<TRIPOS>MOLECULE
ZINC04099200
   41    43     0     0     0
SMALL
USER_CHARGES

@<TRIPOS>ATOM
      1 C1         -0.0173    1.4248    0.0099 C.3       1 <0>         0.0204
      2 O1          0.0021   -0.0041    0.0020 O.3       1 <0>        -0.2974
      3 C2         -1.1997   -0.6372    0.0101 C.ar      1 <0>         0.1577
      4 C3         -2.3874    0.0867    0.0195 C.ar      1 <0>        -0.2510
      5 C4         -3.5892   -0.5929    0.0270 C.ar      1 <0>         0.1439
      6 N1         -3.6222   -1.9117    0.0259 N.ar      1 <0>        -0.4823
      7 C5         -2.5196   -2.6368    0.0171 C.ar      1 <0>         0.1620
      8 C6         -1.2748   -2.0317    0.0033 C.ar      1 <0>         0.0154
      9 O2         -0.1418   -2.7839   -0.0111 O.3       1 <0>        -0.3148
     10 C7          0.4104   -3.1495    1.2552 C.3       1 <0>         0.0266
     11 C8         -2.6170   -4.1407    0.0163 C.3       1 <0>        -0.4109
     12 S1         -2.6684   -4.7423   -1.6943 S.o       1 <0>         1.4049
     13 O3         -3.9053   -4.3738   -2.2890 O.2       1 <0>        -0.7806
     14 C9         -2.7805   -6.4928   -1.5273 C.2       1 <0>        -0.0623
     15 N2         -1.7176   -7.3382   -1.4562 N.pl3     1 <0>        -0.5561
     16 H1         -0.7809   -7.0882   -1.4877 H         1 <0>         0.4312
     17 C10        -2.2199   -8.6200   -1.3298 C.ar      1 <0>         0.0458
     18 C11        -1.6398   -9.8760   -1.2158 C.ar      1 <0>        -0.0745
     19 C12        -2.4378  -10.9935   -1.1029 C.ar      1 <0>        -0.1530
     20 C13        -3.8247  -10.8718   -1.1027 C.ar      1 <0>         0.0948
     21 C14        -4.4172   -9.6303   -1.2157 C.ar      1 <0>        -0.0755
     22 C15        -3.6185   -8.4891   -1.3300 C.ar      1 <0>         0.0637
     23 N3         -3.8922   -7.1643   -1.4484 N.2       1 <0>        -0.4256
     24 O4         -4.6005  -11.9830   -0.9910 O.3       1 <0>        -0.3166
     25 C16        -3.9249  -13.2371   -0.8780 C.3       1 <0>         0.4123
     26 F1         -3.1329  -13.4441   -2.0125 F         1 <0>        -0.1977
     27 F2         -3.1137  -13.2288    0.2618 F         1 <0>        -0.1981
     28 H2          1.0053    1.8021    0.0021 H         1 <0>         0.1081
     29 H3         -0.5445    1.7859   -0.8732 H         1 <0>         0.0623
     30 H4         -0.5275    1.7763    0.9067 H         1 <0>         0.0602
     31 H5         -2.3698    1.1666    0.0212 H         1 <0>         0.1485
     32 H6         -4.5152   -0.0371    0.0343 H         1 <0>         0.1683
     33 H7          0.6638   -2.2490    1.8147 H         1 <0>         0.0497
     34 H8         -0.3207   -3.7319    1.8158 H         1 <0>         0.0473
     35 H9          1.3093   -3.7464    1.1009 H         1 <0>         0.1021
     36 H10        -1.7486   -4.5613    0.5234 H         1 <0>         0.1358
     37 H11        -3.5248   -4.4463    0.5364 H         1 <0>         0.1235
     38 H12        -0.5645   -9.9770   -1.2160 H         1 <0>         0.1375
     39 H13        -1.9847  -11.9698   -1.0142 H         1 <0>         0.1449
     40 H14        -5.4935   -9.5411   -1.2158 H         1 <0>         0.1446
     41 H15        -4.6586  -14.0390   -0.7959 H         1 <0>         0.1848
@<TRIPOS>BOND
     1    1    2 1
     2    1   28 1
     3    1   29 1
     4    1   30 1
     5    2    3 1
     6    3    8 ar
     7    3    4 ar
     8    4    5 ar
     9    4   31 1
    10    5    6 ar
    11    5   32 1
    12    6    7 ar
    13    7    8 ar
    14    7   11 1
    15    8    9 1
    16    9   10 1
    17   10   33 1
    18   10   34 1
    19   10   35 1
    20   11   12 1
    21   11   36 1
    22   11   37 1
    23   12   13 2
    24   12   14 1
    25   14   23 2
    26   14   15 1
    27   15   16 1
    28   15   17 1
    29   17   22 ar
    30   17   18 ar
    31   18   19 ar
    32   18   38 1
    33   19   20 ar
    34   19   39 1
    35   20   21 ar
    36   20   24 1
    37   21   22 ar
    38   21   40 1
    39   22   23 1
    40   24   25 1
    41   25   26 1
    42   25   27 1
    43   25   41 1
@<TRIPOS>MOLECULE
ZINC04099200
   41    43     0     0     0
SMALL
USER_CHARGES

@<TRIPOS>ATOM
      1 C1         -0.0173    1.4248    0.0099 C.3       1 <0>         0.0204
      2 O1          0.0021   -0.0041    0.0020 O.3       1 <0>        -0.2973
      3 C2         -1.1997   -0.6372    0.0101 C.ar      1 <0>         0.1576
      4 C3         -2.3874    0.0867    0.0195 C.ar      1 <0>        -0.2512
      5 C4         -3.5892   -0.5929    0.0270 C.ar      1 <0>         0.1438
      6 N1         -3.6222   -1.9117    0.0259 N.ar      1 <0>        -0.4825
      7 C5         -2.5196   -2.6368    0.0171 C.ar      1 <0>         0.1623
      8 C6         -1.2748   -2.0317    0.0033 C.ar      1 <0>         0.0154
      9 O2         -0.1418   -2.7839   -0.0111 O.3       1 <0>        -0.3147
     10 C7          0.4104   -3.1495    1.2552 C.3       1 <0>         0.0266
     11 C8         -2.6170   -4.1407    0.0163 C.3       1 <0>        -0.4113
     12 S1         -2.6684   -4.7423   -1.6943 S.o       1 <0>         1.4057
     13 O3         -3.9053   -4.3738   -2.2890 O.2       1 <0>        -0.7823
     14 C9         -2.7805   -6.4928   -1.5273 C.2       1 <0>        -0.0740
     15 N2         -1.7166   -7.3392   -1.4561 N.pl3     1 <0>        -0.5567
     16 H1         -0.7799   -7.0893   -1.4876 H         1 <0>         0.4315
     17 C10        -2.2181   -8.6193   -1.3304 C.ar      1 <0>         0.0994
     18 C11        -1.6399   -9.8761   -1.2166 C.ar      1 <0>        -0.1403
     19 C12        -2.4476  -10.9932   -1.1041 C.ar      1 <0>         0.1379
     20 C13        -3.8337  -10.8615   -1.1048 C.ar      1 <0>        -0.1949
     21 C14        -4.4153   -9.6312   -1.2161 C.ar      1 <0>        -0.0097
     22 C15        -3.6171   -8.4897   -1.3307 C.ar      1 <0>         0.0092
     23 N3         -3.8917   -7.1642   -1.4484 N.2       1 <0>        -0.4160
     24 O4         -1.8853  -12.2259   -0.9929 O.3       1 <0>        -0.3167
     25 C16        -2.7762  -13.3375   -0.8802 C.3       1 <0>         0.4131
     26 F1         -3.5725  -13.1833    0.2597 F         1 <0>        -0.1961
     27 F2         -3.5926  -13.3977   -2.0147 F         1 <0>        -0.1957
     28 H2          1.0053    1.8021    0.0021 H         1 <0>         0.1081
     29 H3         -0.5445    1.7859   -0.8732 H         1 <0>         0.0623
     30 H4         -0.5275    1.7763    0.9067 H         1 <0>         0.0601
     31 H5         -2.3698    1.1666    0.0212 H         1 <0>         0.1485
     32 H6         -4.5152   -0.0371    0.0343 H         1 <0>         0.1681
     33 H7         -0.3207   -3.7319    1.8158 H         1 <0>         0.0473
     34 H8          1.3093   -3.7464    1.1009 H         1 <0>         0.1022
     35 H9          0.6638   -2.2490    1.8147 H         1 <0>         0.0496
     36 H10        -1.7486   -4.5613    0.5234 H         1 <0>         0.1356
     37 H11        -3.5248   -4.4463    0.5364 H         1 <0>         0.1229
     38 H12        -0.5650   -9.9811   -1.2162 H         1 <0>         0.1415
     39 H13        -4.4546  -11.7408   -1.0167 H         1 <0>         0.1437
     40 H14        -5.4914   -9.5402   -1.2151 H         1 <0>         0.1407
     41 H15        -2.1993  -14.2587   -0.7985 H         1 <0>         0.1859
@<TRIPOS>BOND
     1    1    2 1
     2    1   28 1
     3    1   29 1
     4    1   30 1
     5    2    3 1
     6    3    8 ar
     7    3    4 ar
     8    4    5 ar
     9    4   31 1
    10    5    6 ar
    11    5   32 1
    12    6    7 ar
    13    7    8 ar
    14    7   11 1
    15    8    9 1
    16    9   10 1
    17   10   33 1
    18   10   34 1
    19   10   35 1
    20   11   12 1
    21   11   36 1
    22   11   37 1
    23   12   13 2
    24   12   14 1
    25   14   23 2
    26   14   15 1
    27   15   16 1
    28   15   17 1
    29   17   22 ar
    30   17   18 ar
    31   18   19 ar
    32   18   38 1
    33   19   20 ar
    34   19   24 1
    35   20   21 ar
    36   20   39 1
    37   21   22 ar
    38   21   40 1
    39   22   23 1
    40   24   25 1
    41   25   26 1
    42   25   27 1
    43   25   41 1
@<TRIPOS>MOLECULE
ZINC04099200
   42    44     0     0     0
SMALL
USER_CHARGES

@<TRIPOS>ATOM
      1 C1         -0.0173    1.4248    0.0099 C.3       1 <0>         0.0036
      2 O1          0.0021   -0.0041    0.0020 O.3       1 <0>        -0.2620
      3 C2         -1.1997   -0.6372    0.0101 C.ar      1 <0>         0.2374
      4 C3         -2.3874    0.0867    0.0195 C.ar      1 <0>        -0.2184
      5 C4         -3.5892   -0.5929    0.0270 C.ar      1 <0>         0.1819
      6 N1         -3.6222   -1.9117    0.0259 N.ar      1 <0>        -0.4622
      7 C5         -2.5196   -2.6368    0.0176 C.ar      1 <0>         0.1809
      8 C6         -1.2748   -2.0317    0.0033 C.ar      1 <0>         0.0655
      9 O2         -0.1418   -2.7839   -0.0111 O.3       1 <0>        -0.2948
     10 C7          0.4104   -3.1495    1.2552 C.3       1 <0>         0.0179
     11 C8         -2.6170   -4.1407    0.0172 C.3       1 <0>        -0.4691
     12 S1         -2.6681   -4.7429   -1.6932 S.o       1 <0>         1.4345
     13 O3         -3.9049   -4.3746   -2.2882 O.2       1 <0>        -0.7795
     14 C9         -2.7802   -6.4933   -1.5256 C.2       1 <0>        -0.0855
     15 N2         -1.7173   -7.3387   -1.4541 N.pl3     1 <0>        -0.5528
     16 H1         -0.7806   -7.0887   -1.4855 H         1 <0>         0.4329
     17 C10        -2.2197   -8.6204   -1.3273 C.ar      1 <0>         0.0564
     18 C11        -1.6396   -9.8764   -1.2128 C.ar      1 <0>        -0.0766
     19 C12        -2.4376  -10.9938   -1.0996 C.ar      1 <0>        -0.1413
     20 C13        -3.8245  -10.8722   -1.0998 C.ar      1 <0>         0.1038
     21 C14        -4.4170   -9.6307   -1.2133 C.ar      1 <0>        -0.0759
     22 C15        -3.6182   -8.4895   -1.3278 C.ar      1 <0>         0.0623
     23 N3         -3.8919   -7.1648   -1.4467 N.2       1 <0>        -0.4136
     24 O4         -4.6003  -11.9833   -0.9878 O.3       1 <0>        -0.3149
     25 C16        -3.9247  -13.2374   -0.8742 C.3       1 <0>         0.4121
     26 F1         -3.1325  -13.4448   -2.0085 F         1 <0>        -0.1955
     27 F2         -3.1137  -13.2287    0.2657 F         1 <0>        -0.1964
     28 H2          1.0053    1.8021    0.0021 H         1 <0>         0.1307
     29 H3         -0.5445    1.7859   -0.8732 H         1 <0>         0.0808
     30 H4         -0.5275    1.7763    0.9067 H         1 <0>         0.0789
     31 H5         -2.3698    1.1666    0.0212 H         1 <0>         0.1959
     32 H6         -4.5152   -0.0371    0.0343 H         1 <0>         0.2205
     33 H7         -0.3207   -3.7319    1.8158 H         1 <0>         0.0591
     34 H8          1.3093   -3.7464    1.1009 H         1 <0>         0.1233
     35 H9          0.6638   -2.2490    1.8147 H         1 <0>         0.0642
     36 H10        -1.7487   -4.5611    0.5246 H         1 <0>         0.1710
     37 H11        -3.5249   -4.4461    0.5372 H         1 <0>         0.1415
     38 H12        -0.5643   -9.9775   -1.2128 H         1 <0>         0.1421
     39 H13        -1.9845  -11.9701   -1.0106 H         1 <0>         0.1501
     40 H14        -5.4933   -9.5415   -1.2136 H         1 <0>         0.1477
     41 H15        -4.6585  -14.0393   -0.7920 H         1 <0>         0.1888
     42 H16        -4.4817   -2.3614    0.0316 H         1 <0>         0.4547
@<TRIPOS>BOND
     1    1    2 1
     2    1   28 1
     3    1   29 1
     4    1   30 1
     5    2    3 1
     6    3    8 ar
     7    3    4 ar
     8    4    5 ar
     9    4   31 1
    10    5    6 ar
    11    5   32 1
    12    6    7 ar
    13    6   42 1
    14    7    8 ar
    15    7   11 1
    16    8    9 1
    17    9   10 1
    18   10   33 1
    19   10   34 1
    20   10   35 1
    21   11   12 1
    22   11   36 1
    23   11   37 1
    24   12   13 2
    25   12   14 1
    26   14   23 2
    27   14   15 1
    28   15   16 1
    29   15   17 1
    30   17   22 ar
    31   17   18 ar
    32   18   19 ar
    33   18   38 1
    34   19   20 ar
    35   19   39 1
    36   20   21 ar
    37   20   24 1
    38   21   22 ar
    39   21   40 1
    40   22   23 1
    41   24   25 1
    42   25   26 1
    43   25   27 1
    44   25   41 1
@<TRIPOS>MOLECULE
ZINC04099200
   42    44     0     0     0
SMALL
USER_CHARGES

@<TRIPOS>ATOM
      1 C1         -0.0173    1.4248    0.0099 C.3       1 <0>         0.0036
      2 O1          0.0021   -0.0041    0.0020 O.3       1 <0>        -0.2621
      3 C2         -1.1997   -0.6372    0.0101 C.ar      1 <0>         0.2374
      4 C3         -2.3874    0.0867    0.0195 C.ar      1 <0>        -0.2185
      5 C4         -3.5892   -0.5929    0.0270 C.ar      1 <0>         0.1817
      6 N1         -3.6222   -1.9117    0.0259 N.ar      1 <0>        -0.4623
      7 C5         -2.5196   -2.6368    0.0176 C.ar      1 <0>         0.1812
      8 C6         -1.2748   -2.0317    0.0033 C.ar      1 <0>         0.0653
      9 O2         -0.1418   -2.7839   -0.0111 O.3       1 <0>        -0.2947
     10 C7          0.4104   -3.1495    1.2552 C.3       1 <0>         0.0180
     11 C8         -2.6170   -4.1407    0.0172 C.3       1 <0>        -0.4695
     12 S1         -2.6681   -4.7429   -1.6932 S.o       1 <0>         1.4351
     13 O3         -3.9049   -4.3746   -2.2882 O.2       1 <0>        -0.7814
     14 C9         -2.7802   -6.4933   -1.5256 C.2       1 <0>        -0.0979
     15 N2         -1.7163   -7.3397   -1.4540 N.pl3     1 <0>        -0.5548
     16 H1         -0.7796   -7.0898   -1.4854 H         1 <0>         0.4333
     17 C10        -2.2179   -8.6198   -1.3280 C.ar      1 <0>         0.1129
     18 C11        -1.6397   -9.8765   -1.2136 C.ar      1 <0>        -0.1469
     19 C12        -2.4474  -10.9935   -1.1009 C.ar      1 <0>         0.1544
     20 C13        -3.8334  -10.8619   -1.1018 C.ar      1 <0>        -0.1907
     21 C14        -4.4151   -9.6316   -1.2136 C.ar      1 <0>        -0.0060
     22 C15        -3.6169   -8.4902   -1.3286 C.ar      1 <0>         0.0057
     23 N3         -3.8914   -7.1647   -1.4467 N.2       1 <0>        -0.4028
     24 O4         -1.8852  -12.2262   -0.9892 O.3       1 <0>        -0.3142
     25 C16        -2.7760  -13.3378   -0.8763 C.3       1 <0>         0.4129
     26 F1         -3.5725  -13.1832    0.2634 F         1 <0>        -0.1944
     27 F2         -3.5922  -13.3984   -2.0109 F         1 <0>        -0.1934
     28 H2          1.0053    1.8021    0.0021 H         1 <0>         0.1307
     29 H3         -0.5445    1.7859   -0.8732 H         1 <0>         0.0807
     30 H4         -0.5275    1.7763    0.9067 H         1 <0>         0.0788
     31 H5         -2.3698    1.1666    0.0212 H         1 <0>         0.1958
     32 H6         -4.5152   -0.0371    0.0343 H         1 <0>         0.2204
     33 H7          0.6638   -2.2490    1.8147 H         1 <0>         0.0641
     34 H8         -0.3207   -3.7319    1.8158 H         1 <0>         0.0591
     35 H9          1.3093   -3.7464    1.1009 H         1 <0>         0.1233
     36 H10        -1.7487   -4.5611    0.5246 H         1 <0>         0.1708
     37 H11        -3.5249   -4.4461    0.5372 H         1 <0>         0.1409
     38 H12        -0.5648   -9.9815   -1.2130 H         1 <0>         0.1459
     39 H13        -4.4544  -11.7412   -1.0136 H         1 <0>         0.1488
     40 H14        -5.4912   -9.5406   -1.2129 H         1 <0>         0.1441
     41 H15        -2.1991  -14.2590   -0.7941 H         1 <0>         0.1903
     42 H16        -4.4817   -2.3614    0.0316 H         1 <0>         0.4545
@<TRIPOS>BOND
     1    1    2 1
     2    1   28 1
     3    1   29 1
     4    1   30 1
     5    2    3 1
     6    3    8 ar
     7    3    4 ar
     8    4    5 ar
     9    4   31 1
    10    5    6 ar
    11    5   32 1
    12    6    7 ar
    13    6   42 1
    14    7    8 ar
    15    7   11 1
    16    8    9 1
    17    9   10 1
    18   10   33 1
    19   10   34 1
    20   10   35 1
    21   11   12 1
    22   11   36 1
    23   11   37 1
    24   12   13 2
    25   12   14 1
    26   14   23 2
    27   14   15 1
    28   15   16 1
    29   15   17 1
    30   17   22 ar
    31   17   18 ar
    32   18   19 ar
    33   18   38 1
    34   19   20 ar
    35   19   24 1
    36   20   21 ar
    37   20   39 1
    38   21   22 ar
    39   21   40 1
    40   22   23 1
    41   24   25 1
    42   25   26 1
    43   25   27 1
    44   25   41 1
@<TRIPOS>MOLECULE
ZINC04676424
   41    43     0     0     0
SMALL
USER_CHARGES

@<TRIPOS>ATOM
      1 C1         -0.0173    1.4248    0.0099 C.3       1 <0>         0.0207
      2 O1          0.0021   -0.0041    0.0020 O.3       1 <0>        -0.2987
      3 C2         -1.1997   -0.6372    0.0101 C.ar      1 <0>         0.1553
      4 C3         -2.3874    0.0867    0.0195 C.ar      1 <0>        -0.2504
      5 C4         -3.5892   -0.5929    0.0270 C.ar      1 <0>         0.1406
      6 N1         -3.6222   -1.9117    0.0259 N.ar      1 <0>        -0.4807
      7 C5         -2.5196   -2.6368    0.0171 C.ar      1 <0>         0.1580
      8 C6         -1.2748   -2.0317    0.0033 C.ar      1 <0>         0.0203
      9 O2         -0.1418   -2.7839   -0.0111 O.3       1 <0>        -0.3098
     10 C7          0.4104   -3.1495    1.2552 C.3       1 <0>         0.0286
     11 C8         -2.6170   -4.1407    0.0163 C.3       1 <0>        -0.4084
     12 S1         -2.6684   -4.7423   -1.6943 S.o       1 <0>         1.4198
     13 O3         -1.4032   -4.5358   -2.3073 O.2       1 <0>        -0.8094
     14 C9         -2.7805   -6.4928   -1.5273 C.2       1 <0>        -0.0696
     15 N2         -1.7166   -7.3392   -1.4561 N.pl3     1 <0>        -0.5672
     16 H1         -0.7799   -7.0893   -1.4876 H         1 <0>         0.4299
     17 C10        -2.2181   -8.6193   -1.3304 C.ar      1 <0>         0.0970
     18 C11        -1.6399   -9.8761   -1.2166 C.ar      1 <0>        -0.1426
     19 C12        -2.4476  -10.9932   -1.1041 C.ar      1 <0>         0.1388
     20 C13        -3.8337  -10.8615   -1.1048 C.ar      1 <0>        -0.1949
     21 C14        -4.4153   -9.6312   -1.2161 C.ar      1 <0>        -0.0077
     22 C15        -3.6171   -8.4897   -1.3307 C.ar      1 <0>         0.0124
     23 N3         -3.8917   -7.1642   -1.4484 N.2       1 <0>        -0.4029
     24 O4         -1.8853  -12.2259   -0.9929 O.3       1 <0>        -0.3174
     25 C16        -2.7762  -13.3375   -0.8802 C.3       1 <0>         0.4133
     26 F1         -3.5725  -13.1833    0.2597 F         1 <0>        -0.1958
     27 F2         -3.5926  -13.3977   -2.0147 F         1 <0>        -0.1954
     28 H2          1.0053    1.8021    0.0021 H         1 <0>         0.1073
     29 H3         -0.5445    1.7859   -0.8732 H         1 <0>         0.0625
     30 H4         -0.5275    1.7763    0.9067 H         1 <0>         0.0606
     31 H5         -2.3698    1.1666    0.0212 H         1 <0>         0.1483
     32 H6         -4.5152   -0.0371    0.0343 H         1 <0>         0.1718
     33 H7         -0.3207   -3.7319    1.8158 H         1 <0>         0.0445
     34 H8          1.3093   -3.7464    1.1009 H         1 <0>         0.0977
     35 H9          0.6638   -2.2490    1.8147 H         1 <0>         0.0504
     36 H10        -1.7486   -4.5613    0.5234 H         1 <0>         0.1093
     37 H11        -3.5248   -4.4463    0.5364 H         1 <0>         0.1501
     38 H12        -0.5650   -9.9811   -1.2162 H         1 <0>         0.1381
     39 H13        -4.4546  -11.7408   -1.0167 H         1 <0>         0.1447
     40 H14        -5.4914   -9.5402   -1.2151 H         1 <0>         0.1448
     41 H15        -2.1993  -14.2587   -0.7985 H         1 <0>         0.1857
@<TRIPOS>BOND
     1    1    2 1
     2    1   28 1
     3    1   29 1
     4    1   30 1
     5    2    3 1
     6    3    8 ar
     7    3    4 ar
     8    4    5 ar
     9    4   31 1
    10    5    6 ar
    11    5   32 1
    12    6    7 ar
    13    7    8 ar
    14    7   11 1
    15    8    9 1
    16    9   10 1
    17   10   33 1
    18   10   34 1
    19   10   35 1
    20   11   12 1
    21   11   36 1
    22   11   37 1
    23   12   13 2
    24   12   14 1
    25   14   23 2
    26   14   15 1
    27   15   16 1
    28   15   17 1
    29   17   22 ar
    30   17   18 ar
    31   18   19 ar
    32   18   38 1
    33   19   20 ar
    34   19   24 1
    35   20   21 ar
    36   20   39 1
    37   21   22 ar
    38   21   40 1
    39   22   23 1
    40   24   25 1
    41   25   26 1
    42   25   27 1
    43   25   41 1
@<TRIPOS>MOLECULE
ZINC04676424
   42    44     0     0     0
SMALL
USER_CHARGES

@<TRIPOS>ATOM
      1 C1         -0.0173    1.4248    0.0099 C.3       1 <0>         0.0039
      2 O1          0.0021   -0.0041    0.0020 O.3       1 <0>        -0.2634
      3 C2         -1.1997   -0.6372    0.0101 C.ar      1 <0>         0.2357
      4 C3         -2.3874    0.0867    0.0195 C.ar      1 <0>        -0.2191
      5 C4         -3.5892   -0.5929    0.0270 C.ar      1 <0>         0.1801
      6 N1         -3.6222   -1.9117    0.0259 N.ar      1 <0>        -0.4603
      7 C5         -2.5196   -2.6368    0.0176 C.ar      1 <0>         0.1776
      8 C6         -1.2748   -2.0317    0.0033 C.ar      1 <0>         0.0675
      9 O2         -0.1418   -2.7839   -0.0111 O.3       1 <0>        -0.2911
     10 C7          0.4104   -3.1495    1.2552 C.3       1 <0>         0.0200
     11 C8         -2.6170   -4.1407    0.0172 C.3       1 <0>        -0.4713
     12 S1         -2.6681   -4.7429   -1.6932 S.o       1 <0>         1.4375
     13 O3         -1.4028   -4.5365   -2.3060 O.2       1 <0>        -0.7841
     14 C9         -2.7802   -6.4933   -1.5256 C.2       1 <0>        -0.0831
     15 N2         -1.7173   -7.3387   -1.4541 N.pl3     1 <0>        -0.5625
     16 H1         -0.7806   -7.0887   -1.4855 H         1 <0>         0.4311
     17 C10        -2.2197   -8.6204   -1.3273 C.ar      1 <0>         0.0536
     18 C11        -1.6396   -9.8764   -1.2128 C.ar      1 <0>        -0.0783
     19 C12        -2.4376  -10.9938   -1.0996 C.ar      1 <0>        -0.1408
     20 C13        -3.8245  -10.8722   -1.0998 C.ar      1 <0>         0.1039
     21 C14        -4.4170   -9.6307   -1.2133 C.ar      1 <0>        -0.0743
     22 C15        -3.6182   -8.4895   -1.3278 C.ar      1 <0>         0.0657
     23 N3         -3.8919   -7.1648   -1.4467 N.2       1 <0>        -0.4016
     24 O4         -4.6003  -11.9833   -0.9878 O.3       1 <0>        -0.3140
     25 C16        -3.9247  -13.2374   -0.8742 C.3       1 <0>         0.4119
     26 F1         -3.1325  -13.4448   -2.0085 F         1 <0>        -0.1956
     27 F2         -3.1137  -13.2287    0.2657 F         1 <0>        -0.1966
     28 H2          1.0053    1.8021    0.0021 H         1 <0>         0.1299
     29 H3         -0.5445    1.7859   -0.8732 H         1 <0>         0.0810
     30 H4         -0.5275    1.7763    0.9067 H         1 <0>         0.0794
     31 H5         -2.3698    1.1666    0.0212 H         1 <0>         0.1954
     32 H6         -4.5152   -0.0371    0.0343 H         1 <0>         0.2238
     33 H7         -0.3207   -3.7319    1.8158 H         1 <0>         0.0564
     34 H8          1.3093   -3.7464    1.1009 H         1 <0>         0.1186
     35 H9          0.6638   -2.2490    1.8147 H         1 <0>         0.0652
     36 H10        -1.7487   -4.5611    0.5246 H         1 <0>         0.1454
     37 H11        -3.5249   -4.4461    0.5372 H         1 <0>         0.1675
     38 H12        -0.5643   -9.9775   -1.2128 H         1 <0>         0.1386
     39 H13        -1.9845  -11.9701   -1.0106 H         1 <0>         0.1495
     40 H14        -5.4933   -9.5415   -1.2136 H         1 <0>         0.1516
     41 H15        -4.6584  -14.0393   -0.7920 H         1 <0>         0.1892
     42 H16        -4.4817   -2.3614    0.0316 H         1 <0>         0.4561
@<TRIPOS>BOND
     1    1    2 1
     2    1   28 1
     3    1   29 1
     4    1   30 1
     5    2    3 1
     6    3    8 ar
     7    3    4 ar
     8    4    5 ar
     9    4   31 1
    10    5    6 ar
    11    5   32 1
    12    6    7 ar
    13    6   42 1
    14    7    8 ar
    15    7   11 1
    16    8    9 1
    17    9   10 1
    18   10   33 1
    19   10   34 1
    20   10   35 1
    21   11   12 1
    22   11   36 1
    23   11   37 1
    24   12   13 2
    25   12   14 1
    26   14   23 2
    27   14   15 1
    28   15   16 1
    29   15   17 1
    30   17   22 ar
    31   17   18 ar
    32   18   19 ar
    33   18   38 1
    34   19   20 ar
    35   19   39 1
    36   20   21 ar
    37   20   24 1
    38   21   22 ar
    39   21   40 1
    40   22   23 1
    41   24   25 1
    42   25   26 1
    43   25   27 1
    44   25   41 1
@<TRIPOS>MOLECULE
ZINC04676424
   42    44     0     0     0
SMALL
USER_CHARGES

@<TRIPOS>ATOM
      1 C1         -0.0173    1.4248    0.0099 C.3       1 <0>         0.0040
      2 O1          0.0021   -0.0041    0.0020 O.3       1 <0>        -0.2635
      3 C2         -1.1997   -0.6372    0.0101 C.ar      1 <0>         0.2357
      4 C3         -2.3874    0.0867    0.0195 C.ar      1 <0>        -0.2193
      5 C4         -3.5892   -0.5929    0.0270 C.ar      1 <0>         0.1798
      6 N1         -3.6222   -1.9117    0.0259 N.ar      1 <0>        -0.4604
      7 C5         -2.5196   -2.6368    0.0176 C.ar      1 <0>         0.1779
      8 C6         -1.2748   -2.0317    0.0033 C.ar      1 <0>         0.0673
      9 O2         -0.1418   -2.7839   -0.0111 O.3       1 <0>        -0.2910
     10 C7          0.4104   -3.1495    1.2552 C.3       1 <0>         0.0201
     11 C8         -2.6170   -4.1407    0.0172 C.3       1 <0>        -0.4718
     12 S1         -2.6681   -4.7429   -1.6932 S.o       1 <0>         1.4375
     13 O3         -1.4028   -4.5365   -2.3060 O.2       1 <0>        -0.7850
     14 C9         -2.7802   -6.4933   -1.5256 C.2       1 <0>        -0.0952
     15 N2         -1.7163   -7.3397   -1.4540 N.pl3     1 <0>        -0.5646
     16 H1         -0.7796   -7.0898   -1.4854 H         1 <0>         0.4315
     17 C10        -2.2179   -8.6198   -1.3280 C.ar      1 <0>         0.1101
     18 C11        -1.6397   -9.8765   -1.2136 C.ar      1 <0>        -0.1491
     19 C12        -2.4474  -10.9935   -1.1009 C.ar      1 <0>         0.1548
     20 C13        -3.8334  -10.8619   -1.1018 C.ar      1 <0>        -0.1906
     21 C14        -4.4151   -9.6316   -1.2136 C.ar      1 <0>        -0.0044
     22 C15        -3.6169   -8.4902   -1.3286 C.ar      1 <0>         0.0091
     23 N3         -3.8914   -7.1647   -1.4467 N.2       1 <0>        -0.3910
     24 O4         -1.8851  -12.2262   -0.9892 O.3       1 <0>        -0.3149
     25 C16        -2.7760  -13.3378   -0.8763 C.3       1 <0>         0.4131
     26 F1         -3.5725  -13.1832    0.2634 F         1 <0>        -0.1941
     27 F2         -3.5922  -13.3984   -2.0109 F         1 <0>        -0.1931
     28 H2          1.0053    1.8021    0.0021 H         1 <0>         0.1298
     29 H3         -0.5445    1.7859   -0.8732 H         1 <0>         0.0810
     30 H4         -0.5275    1.7763    0.9067 H         1 <0>         0.0794
     31 H5         -2.3698    1.1666    0.0212 H         1 <0>         0.1953
     32 H6         -4.5152   -0.0371    0.0343 H         1 <0>         0.2236
     33 H7          0.6638   -2.2490    1.8147 H         1 <0>         0.0650
     34 H8         -0.3207   -3.7319    1.8158 H         1 <0>         0.0564
     35 H9          1.3093   -3.7464    1.1009 H         1 <0>         0.1186
     36 H10        -1.7487   -4.5611    0.5246 H         1 <0>         0.1453
     37 H11        -3.5249   -4.4461    0.5372 H         1 <0>         0.1669
     38 H12        -0.5648   -9.9815   -1.2130 H         1 <0>         0.1424
     39 H13        -4.4544  -11.7412   -1.0136 H         1 <0>         0.1496
     40 H14        -5.4912   -9.5406   -1.2129 H         1 <0>         0.1480
     41 H15        -2.1991  -14.2590   -0.7941 H         1 <0>         0.1900
     42 H16        -4.4817   -2.3614    0.0316 H         1 <0>         0.4560
@<TRIPOS>BOND
     1    1    2 1
     2    1   28 1
     3    1   29 1
     4    1   30 1
     5    2    3 1
     6    3    8 ar
     7    3    4 ar
     8    4    5 ar
     9    4   31 1
    10    5    6 ar
    11    5   32 1
    12    6    7 ar
    13    6   42 1
    14    7    8 ar
    15    7   11 1
    16    8    9 1
    17    9   10 1
    18   10   33 1
    19   10   34 1
    20   10   35 1
    21   11   12 1
    22   11   36 1
    23   11   37 1
    24   12   13 2
    25   12   14 1
    26   14   23 2
    27   14   15 1
    28   15   16 1
    29   15   17 1
    30   17   22 ar
    31   17   18 ar
    32   18   19 ar
    33   18   38 1
    34   19   20 ar
    35   19   24 1
    36   20   21 ar
    37   20   39 1
    38   21   22 ar
    39   21   40 1
    40   22   23 1
    41   24   25 1
    42   25   26 1
    43   25   27 1
    44   25   41 1
@<TRIPOS>MOLECULE
ZINC04693574
   44    46     0     0     0
SMALL
USER_CHARGES

@<TRIPOS>ATOM
      1 C1         -0.0184    1.5028    0.0103 C.3       1 <0>        -0.1220
      2 C2          0.0021   -0.0041    0.0020 C.ar      1 <0>        -0.1100
      3 C3          0.0060   -0.6969   -1.1913 C.ar      1 <0>         0.1417
      4 N1          0.0243   -2.0162   -1.2071 N.ar      1 <0>        -0.4435
      5 C4          0.0391   -2.7261   -0.0946 C.ar      1 <0>         0.1786
      6 C5          0.0364   -2.1077    1.1386 C.ar      1 <0>        -0.0998
      7 C6          0.0231   -0.7162    1.1984 C.ar      1 <0>         0.2271
      8 O1          0.0252   -0.0709    2.3926 O.3       1 <0>        -0.3165
      9 C7         -1.2469    0.2198    2.9751 C.3       1 <0>         0.0292
     10 C8          0.0534   -2.9265    2.4036 C.3       1 <0>        -0.1304
     11 C9          0.0587   -4.2309   -0.1724 C.3       1 <0>        -0.4766
     12 S1          1.7767   -4.8120   -0.2119 S.o       1 <0>         1.4367
     13 O2          2.3838   -4.5816    1.0521 O.2       1 <0>        -0.7983
     14 C10         1.6315   -6.5658   -0.3016 C.2       1 <0>        -0.1019
     15 N2          1.5647   -7.2524   -1.4042 N.2       1 <0>        -0.3890
     16 H1          1.6139   -7.1382    1.7064 H         1 <0>         0.4299
     17 C11         1.4585   -8.5753   -1.1128 C.ar      1 <0>        -0.0041
     18 C12         1.3568   -9.7278   -1.8961 C.ar      1 <0>        -0.0037
     19 C13         1.2620  -10.9524   -1.2986 C.ar      1 <0>        -0.2019
     20 C14         1.2655  -11.0665    0.0885 C.ar      1 <0>         0.1771
     21 C15         1.3650   -9.9376    0.8821 C.ar      1 <0>        -0.1734
     22 C16         1.4624   -8.6874    0.2881 C.ar      1 <0>         0.1195
     23 N3          1.5788   -7.4000    0.7731 N.pl3     1 <0>        -0.5684
     24 O3          1.1703  -12.2933    0.6665 O.3       1 <0>        -0.3090
     25 C17         1.0700  -13.4174   -0.2101 C.3       1 <0>         0.0224
     26 H2          1.0042    1.8801    0.0026 H         1 <0>         0.1042
     27 H3         -0.5455    1.8639   -0.8728 H         1 <0>         0.0945
     28 H4         -0.5286    1.8543    0.9071 H         1 <0>         0.0912
     29 H5         -0.0064   -0.1526   -2.1241 H         1 <0>         0.2203
     30 H6         -1.7894   -0.7101    3.1457 H         1 <0>         0.0633
     31 H7         -1.1025    0.7356    3.9244 H         1 <0>         0.1230
     32 H8         -1.8191    0.8557    2.2995 H         1 <0>         0.0660
     33 H9          1.0850   -3.1100    2.7039 H         1 <0>         0.1152
     34 H10        -0.4642   -2.3838    3.1946 H         1 <0>         0.0951
     35 H11        -0.4484   -3.8780    2.2274 H         1 <0>         0.0841
     36 H12        -0.4454   -4.6464    0.7001 H         1 <0>         0.1490
     37 H13        -0.4552   -4.5547   -1.0774 H         1 <0>         0.1649
     38 H14         1.3527   -9.6504   -2.9733 H         1 <0>         0.1443
     39 H15         1.1831  -11.8404   -1.9082 H         1 <0>         0.1463
     40 H16         1.3668  -10.0290    1.9582 H         1 <0>         0.1381
     41 H17         0.1796  -13.3160   -0.8305 H         1 <0>         0.0620
     42 H18         1.9535  -13.4614   -0.8470 H         1 <0>         0.0626
     43 H19         1.0005  -14.3321    0.3786 H         1 <0>         0.1083
     44 H20         0.0266   -2.4773   -2.0604 H         1 <0>         0.4540
@<TRIPOS>BOND
     1    1    2 1
     2    1   26 1
     3    1   27 1
     4    1   28 1
     5    2    7 ar
     6    2    3 ar
     7    3    4 ar
     8    3   29 1
     9    4    5 ar
    10    4   44 1
    11    5    6 ar
    12    5   11 1
    13    6    7 ar
    14    6   10 1
    15    7    8 1
    16    8    9 1
    17    9   30 1
    18    9   31 1
    19    9   32 1
    20   10   33 1
    21   10   34 1
    22   10   35 1
    23   11   12 1
    24   11   36 1
    25   11   37 1
    26   12   13 2
    27   12   14 1
    28   14   15 2
    29   14   23 1
    30   15   17 1
    31   16   23 1
    32   17   18 ar
    33   17   22 ar
    34   18   38 1
    35   18   19 ar
    36   19   39 1
    37   19   20 ar
    38   20   24 1
    39   20   21 ar
    40   21   40 1
    41   21   22 ar
    42   22   23 1
    43   24   25 1
    44   25   41 1
    45   25   42 1
    46   25   43 1
@<TRIPOS>MOLECULE
ZINC04693575
   44    46     0     0     0
SMALL
USER_CHARGES

@<TRIPOS>ATOM
      1 C1         -0.0184    1.5028    0.0103 C.3       1 <0>        -0.1222
      2 C2          0.0021   -0.0041    0.0020 C.ar      1 <0>        -0.1098
      3 C3          0.0060   -0.6969   -1.1913 C.ar      1 <0>         0.1437
      4 N1          0.0243   -2.0162   -1.2071 N.ar      1 <0>        -0.4453
      5 C4          0.0391   -2.7261   -0.0946 C.ar      1 <0>         0.1796
      6 C5          0.0364   -2.1077    1.1386 C.ar      1 <0>        -0.1047
      7 C6          0.0231   -0.7162    1.1984 C.ar      1 <0>         0.2273
      8 O1          0.0252   -0.0709    2.3926 O.3       1 <0>        -0.3154
      9 C7         -1.2469    0.2198    2.9751 C.3       1 <0>         0.0286
     10 C8          0.0534   -2.9265    2.4036 C.3       1 <0>        -0.1334
     11 C9          0.0587   -4.2309   -0.1724 C.3       1 <0>        -0.4767
     12 S1          1.7767   -4.8120   -0.2119 S.o       1 <0>         1.4262
     13 O2          2.3700   -4.4523   -1.4519 O.2       1 <0>        -0.7814
     14 C10         1.6315   -6.5658   -0.3016 C.2       1 <0>        -0.1050
     15 N2          1.5680   -7.3992    0.7731 N.pl3     1 <0>        -0.5588
     16 H1          1.5939   -7.1367    1.7065 H         1 <0>         0.4313
     17 C11         1.4593   -8.6871    0.2879 C.ar      1 <0>         0.1220
     18 C12         1.3595   -9.9376    0.8821 C.ar      1 <0>        -0.1712
     19 C13         1.2628  -11.0663    0.0887 C.ar      1 <0>         0.1765
     20 C14         1.2654  -10.9527   -1.2989 C.ar      1 <0>        -0.2020
     21 C15         1.3631   -9.7287   -1.8962 C.ar      1 <0>        -0.0053
     22 C16         1.4617   -8.5756   -1.1127 C.ar      1 <0>        -0.0076
     23 N3          1.5638   -7.2524   -1.4041 N.2       1 <0>        -0.4007
     24 O3          1.1653  -12.2929    0.6667 O.3       1 <0>        -0.3082
     25 C17         1.0686  -13.4173   -0.2099 C.3       1 <0>         0.0224
     26 H2          1.0042    1.8801    0.0026 H         1 <0>         0.1044
     27 H3         -0.5455    1.8639   -0.8728 H         1 <0>         0.0933
     28 H4         -0.5286    1.8543    0.9071 H         1 <0>         0.0925
     29 H5         -0.0064   -0.1526   -2.1241 H         1 <0>         0.2167
     30 H6         -1.7894   -0.7101    3.1457 H         1 <0>         0.0651
     31 H7         -1.1025    0.7356    3.9244 H         1 <0>         0.1233
     32 H8         -1.8191    0.8557    2.2995 H         1 <0>         0.0647
     33 H9          1.0850   -3.1100    2.7039 H         1 <0>         0.1116
     34 H10        -0.4642   -2.3838    3.1946 H         1 <0>         0.0986
     35 H11        -0.4484   -3.8780    2.2274 H         1 <0>         0.0950
     36 H12        -0.4454   -4.6464    0.7001 H         1 <0>         0.1748
     37 H13        -0.4552   -4.5547   -1.0774 H         1 <0>         0.1381
     38 H14         1.3576  -10.0286    1.9583 H         1 <0>         0.1415
     39 H15         1.1898  -11.8409   -1.9085 H         1 <0>         0.1454
     40 H16         1.3638   -9.6516   -2.9734 H         1 <0>         0.1404
     41 H17         0.1807  -13.3162   -0.8340 H         1 <0>         0.0615
     42 H18         1.9547  -13.4616   -0.8432 H         1 <0>         0.0622
     43 H19         0.9967  -14.3319    0.3788 H         1 <0>         0.1086
     44 H20         0.0266   -2.4773   -2.0604 H         1 <0>         0.4523
@<TRIPOS>BOND
     1    1    2 1
     2    1   26 1
     3    1   27 1
     4    1   28 1
     5    2    7 ar
     6    2    3 ar
     7    3    4 ar
     8    3   29 1
     9    4    5 ar
    10    4   44 1
    11    5    6 ar
    12    5   11 1
    13    6    7 ar
    14    6   10 1
    15    7    8 1
    16    8    9 1
    17    9   30 1
    18    9   31 1
    19    9   32 1
    20   10   33 1
    21   10   34 1
    22   10   35 1
    23   11   12 1
    24   11   36 1
    25   11   37 1
    26   12   13 2
    27   12   14 1
    28   14   23 2
    29   14   15 1
    30   15   16 1
    31   15   17 1
    32   17   22 ar
    33   17   18 ar
    34   18   19 ar
    35   18   38 1
    36   19   20 ar
    37   19   24 1
    38   20   21 ar
    39   20   39 1
    40   21   22 ar
    41   21   40 1
    42   22   23 1
    43   24   25 1
    44   25   41 1
    45   25   42 1
    46   25   43 1
@<TRIPOS>MOLECULE
ZINC05115385
   38    40     0     0     0
SMALL
USER_CHARGES
2-[[(R)-1H-benzimidazol-2-ylsulfinyl]methyl]-N,N-dimethyl-aniline
@<TRIPOS>ATOM
      1 C1          0.4568    8.5534   -3.0755 C.3       1 <0>         0.0259
      2 N1         -0.1239    7.9701   -1.8587 N.pl3     1 <0>        -0.5104
      3 C2          0.3674    8.6595   -0.6582 C.3       1 <0>         0.0197
      4 C3         -1.5195    7.9895   -1.9112 C.ar      1 <0>         0.0948
      5 C4         -2.1950    9.1976   -2.0312 C.ar      1 <0>        -0.1444
      6 C5         -3.5748    9.2132   -2.0832 C.ar      1 <0>        -0.1052
      7 C6         -4.2843    8.0279   -2.0160 C.ar      1 <0>        -0.1166
      8 C7         -3.6150    6.8234   -1.9018 C.ar      1 <0>        -0.1050
      9 C8         -2.2352    6.8011   -1.8439 C.ar      1 <0>        -0.0528
     10 C9         -1.5068    5.4882   -1.7143 C.3       1 <0>        -0.3989
     11 S1         -1.2766    5.0952    0.0416 S.o       1 <0>         1.3997
     12 O1         -2.5341    4.7853    0.6264 O.2       1 <0>        -0.8333
     13 C10        -0.4227    3.5540    0.0252 C.2       1 <0>        -0.0647
     14 N2         -1.0204    2.3320    0.0188 N.pl3     1 <0>        -0.5749
     15 H1         -2.0043    2.1534    0.0204 H         1 <0>         0.4328
     16 C11        -0.0168    1.3841    0.0097 C.ar      1 <0>         0.0626
     17 C12         0.0021   -0.0041    0.0020 C.ar      1 <0>        -0.1199
     18 C13         1.2087   -0.6705   -0.0131 C.ar      1 <0>        -0.0870
     19 C14         2.4027    0.0367   -0.0212 C.ar      1 <0>        -0.1312
     20 C15         2.4035    1.4027   -0.0143 C.ar      1 <0>        -0.0511
     21 C16         1.1924    2.0997    0.0019 C.ar      1 <0>         0.0314
     22 N3          0.8713    3.4189    0.0121 N.2       1 <0>        -0.4123
     23 H2          0.1252    9.5867   -3.1770 H         1 <0>         0.0325
     24 H3          1.5444    8.5257   -3.0084 H         1 <0>         0.0782
     25 H4          0.1317    7.9805   -3.9439 H         1 <0>         0.0700
     26 H5         -0.0226    8.1637    0.2307 H         1 <0>         0.0736
     27 H6          1.4569    8.6295   -0.6423 H         1 <0>         0.0819
     28 H7          0.0326    9.6967   -0.6722 H         1 <0>         0.0339
     29 H8         -1.6415   10.1235   -2.0840 H         1 <0>         0.1250
     30 H9         -4.1004   10.1520   -2.1768 H         1 <0>         0.1257
     31 H10        -5.3634    8.0429   -2.0572 H         1 <0>         0.1267
     32 H11        -4.1719    5.8993   -1.8540 H         1 <0>         0.1248
     33 H12        -0.5340    5.5628   -2.2004 H         1 <0>         0.1467
     34 H13        -2.0909    4.7001   -2.1894 H         1 <0>         0.0945
     35 H14        -0.9243   -0.5592    0.0075 H         1 <0>         0.1249
     36 H15         1.2250   -1.7504   -0.0190 H         1 <0>         0.1337
     37 H16         3.3408   -0.4983   -0.0334 H         1 <0>         0.1339
     38 H17         3.3386    1.9432   -0.0207 H         1 <0>         0.1349
@<TRIPOS>BOND
     1    1    2 1
     2    1   23 1
     3    1   24 1
     4    1   25 1
     5    2    3 1
     6    2    4 1
     7    3   26 1
     8    3   27 1
     9    3   28 1
    10    4    9 ar
    11    4    5 ar
    12    5    6 ar
    13    5   29 1
    14    6    7 ar
    15    6   30 1
    16    7    8 ar
    17    7   31 1
    18    8    9 ar
    19    8   32 1
    20    9   10 1
    21   10   11 1
    22   10   33 1
    23   10   34 1
    24   11   12 2
    25   11   13 1
    26   13   22 2
    27   13   14 1
    28   14   15 1
    29   14   16 1
    30   16   21 ar
    31   16   17 ar
    32   17   18 ar
    33   17   35 1
    34   18   19 ar
    35   18   36 1
    36   19   20 ar
    37   19   37 1
    38   20   21 ar
    39   20   38 1
    40   21   22 1
@<TRIPOS>MOLECULE
ZINC05115388
   38    40     0     0     0
SMALL
USER_CHARGES
2-[[(S)-1H-benzimidazol-2-ylsulfinyl]methyl]-N,N-dimethyl-aniline
@<TRIPOS>ATOM
      1 C1          7.2751   -0.4217   -3.1836 C.3       1 <0>         0.0257
      2 N1          7.0309    0.3593   -1.9636 N.pl3     1 <0>        -0.5104
      3 C2          7.4534   -0.3842   -0.7692 C.3       1 <0>         0.0282
      4 C3          7.6648    1.6022   -2.0297 C.ar      1 <0>         0.0952
      5 C4          9.0447    1.6731   -2.1748 C.ar      1 <0>        -0.1465
      6 C5          9.6682    2.9035   -2.2403 C.ar      1 <0>        -0.1066
      7 C6          8.9205    4.0644   -2.1616 C.ar      1 <0>        -0.1179
      8 C7          7.5465    3.9974   -2.0225 C.ar      1 <0>        -0.1069
      9 C8          6.9171    2.7700   -1.9510 C.ar      1 <0>        -0.0537
     10 C9          5.4200    2.6980   -1.7942 C.3       1 <0>        -0.4040
     11 S1          4.9975    2.6686   -0.0303 S.o       1 <0>         1.3977
     12 O1          5.4056    1.4299    0.5339 O.2       1 <0>        -0.8169
     13 C10         3.2376    2.5848   -0.0148 C.2       1 <0>        -0.0626
     14 N2          2.5122    1.4340   -0.0138 N.pl3     1 <0>        -0.5714
     15 H1          2.8775    0.5031   -0.0219 H         1 <0>         0.4340
     16 C11         1.1783    1.7895    0.0004 C.ar      1 <0>         0.0619
     17 C12        -0.0126    1.0758    0.0080 C.ar      1 <0>        -0.1193
     18 C13        -1.2138    1.7520    0.0173 C.ar      1 <0>        -0.0881
     19 C14        -1.2398    3.1395    0.0306 C.ar      1 <0>        -0.1311
     20 C15        -0.0782    3.8582    0.0230 C.ar      1 <0>        -0.0526
     21 C16         1.1513    3.1943    0.0077 C.ar      1 <0>         0.0317
     22 N3          2.4425    3.6146   -0.0022 N.2       1 <0>        -0.4202
     23 H2          8.3393   -0.6418   -3.2672 H         1 <0>         0.0320
     24 H3          6.7137   -1.3548   -3.1361 H         1 <0>         0.0723
     25 H4          6.9533    0.1520   -4.0528 H         1 <0>         0.0685
     26 H5          7.2615    0.2168    0.1197 H         1 <0>         0.0894
     27 H6          6.8932   -1.3170   -0.7049 H         1 <0>         0.0687
     28 H7          8.5189   -0.6041   -0.8360 H         1 <0>         0.0255
     29 H8          9.6291    0.7670   -2.2366 H         1 <0>         0.1201
     30 H9         10.7408    2.9593   -2.3534 H         1 <0>         0.1244
     31 H10         9.4106    5.0254   -2.2134 H         1 <0>         0.1294
     32 H11         6.9652    4.9058   -1.9658 H         1 <0>         0.1372
     33 H12         5.0478    1.7918   -2.2721 H         1 <0>         0.1121
     34 H13         4.9632    3.5697   -2.2627 H         1 <0>         0.1286
     35 H14         0.0021   -0.0041    0.0020 H         1 <0>         0.1245
     36 H15        -2.1410    1.1982    0.0190 H         1 <0>         0.1333
     37 H16        -2.1880    3.6563    0.0424 H         1 <0>         0.1334
     38 H17        -0.1099    4.9378    0.0290 H         1 <0>         0.1343
@<TRIPOS>BOND
     1    1    2 1
     2    1   23 1
     3    1   24 1
     4    1   25 1
     5    2    3 1
     6    2    4 1
     7    3   26 1
     8    3   27 1
     9    3   28 1
    10    4    9 ar
    11    4    5 ar
    12    5    6 ar
    13    5   29 1
    14    6    7 ar
    15    6   30 1
    16    7    8 ar
    17    7   31 1
    18    8    9 ar
    19    8   32 1
    20    9   10 1
    21   10   11 1
    22   10   33 1
    23   10   34 1
    24   11   12 2
    25   11   13 1
    26   13   22 2
    27   13   14 1
    28   14   15 1
    29   14   16 1
    30   16   21 ar
    31   16   17 ar
    32   17   18 ar
    33   17   35 1
    34   18   19 ar
    35   18   36 1
    36   19   20 ar
    37   19   37 1
    38   20   21 ar
    39   20   38 1
    40   21   22 1
@<TRIPOS>MOLECULE
ZINC00002675
   36    38     0     0     0
SMALL
USER_CHARGES

@<TRIPOS>ATOM
      1 C1         -0.0184    1.5028    0.0103 C.3       1 <0>        -0.0787
      2 C2          0.0021   -0.0041    0.0020 C.2       1 <0>         0.0812
      3 C3          0.0077   -0.7867   -1.0998 C.2       1 <0>        -0.0733
      4 N1          0.0273   -2.0859   -0.6724 N.pl3     1 <0>        -0.3340
      5 C4          0.0404   -3.2783   -1.3402 C.2       1 <0>         0.0074
      6 C5          0.0589   -4.4459   -0.6647 C.2       1 <0>        -0.0925
      7 C6          0.0649   -4.4533    0.7398 C.2       1 <0>        -0.2215
      8 C7          0.0524   -3.2712    1.4210 C.2       1 <0>         0.1839
      9 C8          0.0331   -2.0571    0.6970 C.2       1 <0>         0.2231
     10 N2          0.0235   -0.7886    1.0815 N.2       1 <0>        -0.4625
     11 O1          0.0584   -3.2609    2.7801 O.3       1 <0>        -0.2831
     12 C9          0.0781   -4.5292    3.4383 C.3       1 <0>         0.1002
     13 C10         0.0821   -4.3205    4.9308 C.ar      1 <0>        -0.1006
     14 C11         1.2809   -4.2033    5.6091 C.ar      1 <0>        -0.0923
     15 C12         1.2846   -4.0119    6.9781 C.ar      1 <0>        -0.1231
     16 C13         0.0895   -3.9372    7.6688 C.ar      1 <0>        -0.1062
     17 C14        -1.1093   -4.0534    6.9904 C.ar      1 <0>        -0.1231
     18 C15        -1.1131   -4.2406    5.6207 C.ar      1 <0>        -0.0926
     19 C16        -0.0052   -0.3161   -2.5314 C.3       1 <0>         0.0632
     20 C17        -1.3971   -0.1811   -2.9910 C.1       1 <0>         0.1991
     21 N3         -2.4713   -0.0770   -3.3457 N.1       1 <0>        -0.4174
     22 H1          1.0042    1.8801    0.0026 H         1 <0>         0.0821
     23 H2         -0.5455    1.8639   -0.8728 H         1 <0>         0.0742
     24 H3         -0.5286    1.8543    0.9071 H         1 <0>         0.0800
     25 H4          0.0357   -3.2858   -2.4201 H         1 <0>         0.1651
     26 H5          0.0688   -5.3800   -1.2068 H         1 <0>         0.1556
     27 H6          0.0789   -5.3897    1.2777 H         1 <0>         0.1477
     28 H7         -0.8057   -5.1000    3.1536 H         1 <0>         0.0767
     29 H8          0.9741   -5.0766    3.1456 H         1 <0>         0.0773
     30 H9          2.2146   -4.2617    5.0695 H         1 <0>         0.1247
     31 H10         2.2212   -3.9211    7.5081 H         1 <0>         0.1266
     32 H11         0.0924   -3.7884    8.7385 H         1 <0>         0.1255
     33 H12        -2.0430   -3.9954    7.5300 H         1 <0>         0.1264
     34 H13        -2.0497   -4.3276    5.0902 H         1 <0>         0.1244
     35 H14         0.4956    0.6495   -2.6010 H         1 <0>         0.1382
     36 H15         0.5153   -1.0412   -3.1570 H         1 <0>         0.1184
@<TRIPOS>BOND
     1    1    2 1
     2    1   22 1
     3    1   23 1
     4    1   24 1
     5    2   10 1
     6    2    3 2
     7    3    4 1
     8    3   19 1
     9    4    9 1
    10    4    5 1
    11    5    6 2
    12    5   25 1
    13    6    7 1
    14    6   26 1
    15    7    8 2
    16    7   27 1
    17    8    9 1
    18    8   11 1
    19    9   10 2
    20   11   12 1
    21   12   13 1
    22   12   28 1
    23   12   29 1
    24   13   18 ar
    25   13   14 ar
    26   14   15 ar
    27   14   30 1
    28   15   16 ar
    29   15   31 1
    30   16   17 ar
    31   16   32 1
    32   17   18 ar
    33   17   33 1
    34   18   34 1
    35   19   20 1
    36   19   35 1
    37   19   36 1
    38   20   21 3
@<TRIPOS>MOLECULE
ZINC00002675
   37    39     0     0     0
SMALL
USER_CHARGES

@<TRIPOS>ATOM
      1 C1         -0.0184    1.5028    0.0103 C.3       1 <0>        -0.1129
      2 C2          0.0021   -0.0041    0.0020 C.2       1 <0>         0.1328
      3 C3          0.0077   -0.7867   -1.0998 C.2       1 <0>        -0.0154
      4 N1          0.0273   -2.0859   -0.6724 N.pl3     1 <0>        -0.2891
      5 C4          0.0404   -3.2783   -1.3402 C.2       1 <0>         0.0357
      6 C5          0.0589   -4.4459   -0.6647 C.2       1 <0>        -0.0607
      7 C6          0.0649   -4.4533    0.7398 C.2       1 <0>        -0.1412
      8 C7          0.0524   -3.2712    1.4210 C.2       1 <0>         0.1474
      9 C8          0.0331   -2.0571    0.6970 C.cat     1 <0>         0.2871
     10 N2          0.0235   -0.7886    1.0815 N.pl3     1 <0>        -0.4904
     11 O1          0.0584   -3.2609    2.7801 O.3       1 <0>        -0.2953
     12 C9          0.0781   -4.5292    3.4383 C.3       1 <0>         0.1037
     13 C10         0.0821   -4.3205    4.9308 C.ar      1 <0>        -0.1180
     14 C11         1.2809   -4.2033    5.6091 C.ar      1 <0>        -0.0912
     15 C12         1.2846   -4.0119    6.9781 C.ar      1 <0>        -0.1206
     16 C13         0.0895   -3.9372    7.6688 C.ar      1 <0>        -0.0953
     17 C14        -1.1093   -4.0534    6.9904 C.ar      1 <0>        -0.1205
     18 C15        -1.1131   -4.2406    5.6207 C.ar      1 <0>        -0.0915
     19 C16        -0.0052   -0.3161   -2.5314 C.3       1 <0>         0.0571
     20 C17        -1.3971   -0.1811   -2.9910 C.1       1 <0>         0.1762
     21 N3         -2.4713   -0.0770   -3.3457 N.1       1 <0>        -0.3769
     22 H1          1.0042    1.8801    0.0026 H         1 <0>         0.1156
     23 H2         -0.5455    1.8639   -0.8728 H         1 <0>         0.1114
     24 H3         -0.5286    1.8543    0.9071 H         1 <0>         0.1010
     25 H4          0.0357   -3.2858   -2.4201 H         1 <0>         0.2021
     26 H5          0.0688   -5.3800   -1.2068 H         1 <0>         0.1876
     27 H6          0.0789   -5.3897    1.2777 H         1 <0>         0.1768
     28 H7         -0.8057   -5.1000    3.1536 H         1 <0>         0.0883
     29 H8          0.9741   -5.0766    3.1456 H         1 <0>         0.0889
     30 H9          2.2146   -4.2617    5.0695 H         1 <0>         0.1259
     31 H10         2.2212   -3.9211    7.5081 H         1 <0>         0.1312
     32 H11         0.0924   -3.7884    8.7385 H         1 <0>         0.1311
     33 H12        -2.0430   -3.9954    7.5300 H         1 <0>         0.1311
     34 H13        -2.0497   -4.3276    5.0902 H         1 <0>         0.1255
     35 H14         0.4956    0.6495   -2.6010 H         1 <0>         0.1570
     36 H15         0.5153   -1.0412   -3.1570 H         1 <0>         0.1402
     37 H16         0.0284   -0.4798    2.0010 H         1 <0>         0.4657
@<TRIPOS>BOND
     1    1    2 1
     2    1   22 1
     3    1   23 1
     4    1   24 1
     5    2   10 1
     6    2    3 2
     7    3    4 1
     8    3   19 1
     9    4    9 1
    10    4    5 1
    11    5    6 2
    12    5   25 1
    13    6    7 1
    14    6   26 1
    15    7    8 2
    16    7   27 1
    17    8    9 1
    18    8   11 1
    19    9   10 2
    20   10   37 1
    21   11   12 1
    22   12   13 1
    23   12   28 1
    24   12   29 1
    25   13   18 ar
    26   13   14 ar
    27   14   15 ar
    28   14   30 1
    29   15   16 ar
    30   15   31 1
    31   16   17 ar
    32   16   32 1
    33   17   18 ar
    34   17   33 1
    35   18   34 1
    36   19   20 1
    37   19   35 1
    38   19   36 1
    39   20   21 3
@<TRIPOS>MOLECULE
ZINC00599734
   40    42     0     0     0
SMALL
USER_CHARGES

@<TRIPOS>ATOM
      1 C1         -0.0184    1.5028    0.0103 C.3       1 <0>        -0.1312
      2 C2          0.0021   -0.0041    0.0020 C.ar      1 <0>        -0.1023
      3 C3          0.0060   -0.7034   -1.2025 C.ar      1 <0>         0.2539
      4 C4          0.0256   -2.0950   -1.1580 C.ar      1 <0>        -0.2222
      5 C5          0.0403   -2.7269    0.0686 C.ar      1 <0>         0.1807
      6 N1          0.0360   -2.0293    1.1886 N.ar      1 <0>        -0.4672
      7 C6          0.0229   -0.7096    1.1873 C.ar      1 <0>         0.2001
      8 C7          0.0252    0.0359    2.4970 C.3       1 <0>        -0.4743
      9 S1         -1.6840    0.3117    3.0387 S.o       1 <0>         1.4431
     10 O1         -2.2676   -0.9282    3.4146 O.2       1 <0>        -0.8127
     11 C8         -1.5134    1.1816    4.5614 C.2       1 <0>        -0.0965
     12 N2         -1.4141    0.5973    5.7859 N.pl3     1 <0>        -0.5691
     13 H1         -1.4243   -0.3548    5.9711 H         1 <0>         0.4278
     14 C9         -1.2957    1.6105    6.7160 C.ar      1 <0>         0.0767
     15 C10        -1.1633    1.6441    8.0976 C.ar      1 <0>        -0.1250
     16 C11        -1.0659    2.8573    8.7449 C.ar      1 <0>        -0.0697
     17 C12        -1.0998    4.0433    8.0250 C.ar      1 <0>        -0.1241
     18 C13        -1.2296    4.0296    6.6653 C.ar      1 <0>        -0.0463
     19 C14        -1.3296    2.8115    5.9876 C.ar      1 <0>         0.0296
     20 N3         -1.4584    2.4763    4.6781 N.2       1 <0>        -0.3931
     21 O2         -0.0093   -0.0452   -2.3895 O.3       1 <0>        -0.2588
     22 C15        -0.0038   -0.8440   -3.5744 C.3       1 <0>        -0.0047
     23 C16        -0.0230    0.0669   -4.8036 C.3       1 <0>         0.4702
     24 F1          1.1078    0.8906   -4.7913 F         1 <0>        -0.1659
     25 F2         -0.0176   -0.7151   -5.9636 F         1 <0>        -0.1584
     26 F3         -1.1765    0.8580   -4.7799 F         1 <0>        -0.1653
     27 H2          1.0042    1.8801    0.0026 H         1 <0>         0.1073
     28 H3         -0.5455    1.8639   -0.8728 H         1 <0>         0.1064
     29 H4         -0.5286    1.8543    0.9071 H         1 <0>         0.0963
     30 H5          0.0289   -2.6719   -2.0710 H         1 <0>         0.1921
     31 H6          0.0552   -3.8059    0.1125 H         1 <0>         0.2188
     32 H7          0.5542   -0.5508    3.2481 H         1 <0>         0.1350
     33 H8          0.5247    0.9960    2.3677 H         1 <0>         0.1833
     34 H9         -1.1370    0.7241    8.6626 H         1 <0>         0.1299
     35 H10        -0.9628    2.8850    9.8196 H         1 <0>         0.1407
     36 H11        -1.0232    4.9867    8.5452 H         1 <0>         0.1409
     37 H12        -1.2553    4.9585    6.1149 H         1 <0>         0.1403
     38 H13         0.8950   -1.4604   -3.5929 H         1 <0>         0.1309
     39 H14        -0.8848   -1.4857   -3.5840 H         1 <0>         0.1318
     40 H15         0.0466   -2.4996    2.0368 H         1 <0>         0.4509
@<TRIPOS>BOND
     1    1    2 1
     2    1   27 1
     3    1   28 1
     4    1   29 1
     5    2    7 ar
     6    2    3 ar
     7    3    4 ar
     8    3   21 1
     9    4    5 ar
    10    4   30 1
    11    5    6 ar
    12    5   31 1
    13    6    7 ar
    14    6   40 1
    15    7    8 1
    16    8    9 1
    17    8   32 1
    18    8   33 1
    19    9   10 2
    20    9   11 1
    21   11   20 2
    22   11   12 1
    23   12   13 1
    24   12   14 1
    25   14   19 ar
    26   14   15 ar
    27   15   16 ar
    28   15   34 1
    29   16   17 ar
    30   16   35 1
    31   17   18 ar
    32   17   36 1
    33   18   19 ar
    34   18   37 1
    35   19   20 1
    36   21   22 1
    37   22   23 1
    38   22   38 1
    39   22   39 1
    40   23   24 1
    41   23   25 1
    42   23   26 1
@<TRIPOS>MOLECULE
ZINC03830986
   40    42     0     0     0
SMALL
USER_CHARGES

@<TRIPOS>ATOM
      1 C1         -0.0184    1.5028    0.0103 C.3       1 <0>        -0.1320
      2 C2          0.0021   -0.0041    0.0020 C.ar      1 <0>        -0.0995
      3 C3          0.0060   -0.7034   -1.2025 C.ar      1 <0>         0.2535
      4 C4          0.0256   -2.0950   -1.1580 C.ar      1 <0>        -0.2233
      5 C5          0.0403   -2.7269    0.0686 C.ar      1 <0>         0.1784
      6 N1          0.0360   -2.0293    1.1886 N.ar      1 <0>        -0.4661
      7 C6          0.0229   -0.7096    1.1873 C.ar      1 <0>         0.1997
      8 C7          0.0252    0.0359    2.4970 C.3       1 <0>        -0.4789
      9 S1         -1.6840    0.3117    3.0387 S.o       1 <0>         1.4187
     10 O1         -2.3090    1.2507    2.1745 O.2       1 <0>        -0.7631
     11 C8         -1.5134    1.1816    4.5614 C.2       1 <0>        -0.0991
     12 N2         -1.4141    0.5973    5.7859 N.pl3     1 <0>        -0.5602
     13 H1         -1.4243   -0.3548    5.9711 H         1 <0>         0.4291
     14 C9         -1.2957    1.6105    6.7160 C.ar      1 <0>         0.0783
     15 C10        -1.1633    1.6441    8.0976 C.ar      1 <0>        -0.1231
     16 C11        -1.0659    2.8573    8.7449 C.ar      1 <0>        -0.0711
     17 C12        -1.0998    4.0433    8.0250 C.ar      1 <0>        -0.1245
     18 C13        -1.2296    4.0296    6.6653 C.ar      1 <0>        -0.0486
     19 C14        -1.3296    2.8115    5.9876 C.ar      1 <0>         0.0260
     20 N3         -1.4584    2.4763    4.6781 N.2       1 <0>        -0.4064
     21 O2         -0.0093   -0.0452   -2.3895 O.3       1 <0>        -0.2600
     22 C15        -0.0038   -0.8440   -3.5744 C.3       1 <0>        -0.0043
     23 C16        -0.0230    0.0669   -4.8036 C.3       1 <0>         0.4696
     24 F1          1.1078    0.8906   -4.7913 F         1 <0>        -0.1661
     25 F2         -0.0176   -0.7151   -5.9636 F         1 <0>        -0.1582
     26 F3         -1.1765    0.8580   -4.7799 F         1 <0>        -0.1653
     27 H2          1.0042    1.8801    0.0026 H         1 <0>         0.1011
     28 H3         -0.5455    1.8639   -0.8728 H         1 <0>         0.1023
     29 H4         -0.5286    1.8543    0.9071 H         1 <0>         0.0976
     30 H5          0.0289   -2.6719   -2.0710 H         1 <0>         0.1917
     31 H6          0.0552   -3.8059    0.1125 H         1 <0>         0.2220
     32 H7          0.5542   -0.5508    3.2481 H         1 <0>         0.1609
     33 H8          0.5247    0.9960    2.3677 H         1 <0>         0.1565
     34 H9         -1.1370    0.7241    8.6626 H         1 <0>         0.1328
     35 H10        -0.9628    2.8850    9.8196 H         1 <0>         0.1409
     36 H11        -1.0232    4.9867    8.5452 H         1 <0>         0.1396
     37 H12        -1.2553    4.9585    6.1149 H         1 <0>         0.1359
     38 H13         0.8950   -1.4604   -3.5929 H         1 <0>         0.1314
     39 H14        -0.8848   -1.4857   -3.5840 H         1 <0>         0.1318
     40 H15         0.0466   -2.4996    2.0368 H         1 <0>         0.4524
@<TRIPOS>BOND
     1    1    2 1
     2    1   27 1
     3    1   28 1
     4    1   29 1
     5    2    7 ar
     6    2    3 ar
     7    3    4 ar
     8    3   21 1
     9    4    5 ar
    10    4   30 1
    11    5    6 ar
    12    5   31 1
    13    6    7 ar
    14    6   40 1
    15    7    8 1
    16    8    9 1
    17    8   32 1
    18    8   33 1
    19    9   10 2
    20    9   11 1
    21   11   20 2
    22   11   12 1
    23   12   13 1
    24   12   14 1
    25   14   19 ar
    26   14   15 ar
    27   15   16 ar
    28   15   34 1
    29   16   17 ar
    30   16   35 1
    31   17   18 ar
    32   17   36 1
    33   18   19 ar
    34   18   37 1
    35   19   20 1
    36   21   22 1
    37   22   23 1
    38   22   38 1
    39   22   39 1
    40   23   24 1
    41   23   25 1
    42   23   26 1
@<TRIPOS>MOLECULE
ZINC13760950
   34    36     0     0     0
SMALL
USER_CHARGES
8-benzyloxy-2-methyl-imidazo[3,2-a]pyridin-3-amine
@<TRIPOS>ATOM
      1 C1          5.8824   -1.9208   -6.5180 C.3       1 <0>        -0.0617
      2 C2          6.0870   -2.0356   -5.0294 C.2       1 <0>        -0.0203
      3 C3          7.1447   -2.6274   -4.4180 C.2       1 <0>         0.2529
      4 N1          6.9438   -2.5154   -3.0697 N.pl3     1 <0>        -0.3714
      5 C4          7.6754   -2.9249   -1.9856 C.2       1 <0>         0.0029
      6 C5          7.2421   -2.6823   -0.7327 C.2       1 <0>        -0.0924
      7 C6          6.0293   -2.0039   -0.5178 C.2       1 <0>        -0.2443
      8 C7          5.2874   -1.5892   -1.5846 C.2       1 <0>         0.2005
      9 C8          5.7506   -1.8552   -2.8941 C.2       1 <0>         0.1876
     10 N2          5.2572   -1.5716   -4.0890 N.2       1 <0>        -0.4305
     11 O1          4.1134   -0.9324   -1.3913 O.3       1 <0>        -0.2845
     12 C9          3.7112   -0.7071   -0.0387 C.3       1 <0>         0.1007
     13 C10         2.3960    0.0285   -0.0217 C.ar      1 <0>        -0.0991
     14 C11         1.2084   -0.6789   -0.0136 C.ar      1 <0>        -0.0928
     15 C12         0.0021   -0.0041    0.0020 C.ar      1 <0>        -0.1232
     16 C13        -0.0167    1.3781    0.0096 C.ar      1 <0>        -0.1074
     17 C14         1.1709    2.0855    0.0021 C.ar      1 <0>        -0.1233
     18 C15         2.3773    1.4107   -0.0136 C.ar      1 <0>        -0.0928
     19 N3          8.2357   -3.2376   -5.0488 N.pl3     1 <0>        -0.8546
     20 H1          5.3314   -2.7900   -6.8772 H         1 <0>         0.0693
     21 H2          5.3167   -1.0155   -6.7382 H         1 <0>         0.0758
     22 H3          6.8512   -1.8738   -7.0154 H         1 <0>         0.0653
     23 H4          8.6087   -3.4470   -2.1368 H         1 <0>         0.1560
     24 H5          7.8299   -3.0113    0.1115 H         1 <0>         0.1502
     25 H6          5.6867   -1.8117    0.4882 H         1 <0>         0.1428
     26 H7          4.4678   -0.1105    0.4708 H         1 <0>         0.0761
     27 H8          3.5989   -1.6640    0.4711 H         1 <0>         0.0762
     28 H9          1.2231   -1.7587   -0.0199 H         1 <0>         0.1245
     29 H10        -0.9258   -0.5567    0.0079 H         1 <0>         0.1261
     30 H11        -0.9592    1.9054    0.0170 H         1 <0>         0.1250
     31 H12         1.1563    3.1654    0.0077 H         1 <0>         0.1261
     32 H13         3.3051    1.9634   -0.0195 H         1 <0>         0.1245
     33 H14         8.9438   -3.6339   -4.5173 H         1 <0>         0.3976
     34 H15         8.2834   -3.2641   -6.0172 H         1 <0>         0.4182
@<TRIPOS>BOND
     1    1    2 1
     2    1   20 1
     3    1   21 1
     4    1   22 1
     5    2   10 1
     6    2    3 2
     7    3    4 1
     8    3   19 1
     9    4    9 1
    10    4    5 1
    11    5    6 2
    12    5   23 1
    13    6    7 1
    14    6   24 1
    15    7    8 2
    16    7   25 1
    17    8    9 1
    18    8   11 1
    19    9   10 2
    20   11   12 1
    21   12   13 1
    22   12   26 1
    23   12   27 1
    24   13   18 ar
    25   13   14 ar
    26   14   15 ar
    27   14   28 1
    28   15   16 ar
    29   15   29 1
    30   16   17 ar
    31   16   30 1
    32   17   18 ar
    33   17   31 1
    34   18   32 1
    35   19   33 1
    36   19   34 1
@<TRIPOS>MOLECULE
ZINC13760950
   35    37     0     0     0
SMALL
USER_CHARGES
8-benzyloxy-2-methyl-imidazo[3,2-a]pyridin-3-amine
@<TRIPOS>ATOM
      1 C1          5.8824   -1.9208   -6.5180 C.3       1 <0>        -0.0916
      2 C2          6.0870   -2.0356   -5.0294 C.2       1 <0>         0.0099
      3 C3          7.1447   -2.6274   -4.4180 C.2       1 <0>         0.3097
      4 N1          6.9438   -2.5154   -3.0697 N.pl3     1 <0>        -0.3291
      5 C4          7.6754   -2.9249   -1.9856 C.2       1 <0>         0.0274
      6 C5          7.2421   -2.6823   -0.7327 C.2       1 <0>        -0.0664
      7 C6          6.0293   -2.0039   -0.5178 C.2       1 <0>        -0.1547
      8 C7          5.2874   -1.5892   -1.5846 C.2       1 <0>         0.1484
      9 C8          5.7506   -1.8552   -2.8941 C.cat     1 <0>         0.2856
     10 O1          4.1134   -0.9324   -1.3913 O.3       1 <0>        -0.2968
     11 C9          3.7112   -0.7071   -0.0387 C.3       1 <0>         0.1047
     12 C10         2.3960    0.0285   -0.0217 C.ar      1 <0>        -0.1164
     13 C11         1.2084   -0.6789   -0.0136 C.ar      1 <0>        -0.0917
     14 C12         0.0021   -0.0041    0.0020 C.ar      1 <0>        -0.1207
     15 C13        -0.0167    1.3781    0.0096 C.ar      1 <0>        -0.0964
     16 C14         1.1709    2.0855    0.0021 C.ar      1 <0>        -0.1208
     17 C15         2.3773    1.4107   -0.0136 C.ar      1 <0>        -0.0917
     18 N2          8.2357   -3.2376   -5.0488 N.pl3     1 <0>        -0.8287
     19 H1          5.3314   -2.7900   -6.8772 H         1 <0>         0.0989
     20 H2          5.3167   -1.0155   -6.7382 H         1 <0>         0.0944
     21 H3          6.8512   -1.8738   -7.0154 H         1 <0>         0.0986
     22 H4          8.6087   -3.4470   -2.1368 H         1 <0>         0.1923
     23 H5          7.8299   -3.0113    0.1115 H         1 <0>         0.1819
     24 H6          5.6867   -1.8117    0.4882 H         1 <0>         0.1720
     25 H7          4.4678   -0.1105    0.4708 H         1 <0>         0.0872
     26 H8          3.5989   -1.6640    0.4711 H         1 <0>         0.0872
     27 H9          1.2231   -1.7587   -0.0199 H         1 <0>         0.1256
     28 H10        -0.9258   -0.5567    0.0079 H         1 <0>         0.1306
     29 H11        -0.9592    1.9054    0.0170 H         1 <0>         0.1305
     30 H12         1.1563    3.1654    0.0077 H         1 <0>         0.1306
     31 H13         3.3051    1.9634   -0.0195 H         1 <0>         0.1256
     32 H14         8.9438   -3.6339   -4.5173 H         1 <0>         0.4176
     33 H15         8.2834   -3.2641   -6.0172 H         1 <0>         0.4339
     34 N3          5.2586   -1.5724   -4.0887 N.pl3     1 <0>        -0.4678
     35 H16         4.3780   -1.0748   -4.2657 H         1 <0>         0.4802
@<TRIPOS>BOND
     1    1    2 1
     2    1   19 1
     3    1   20 1
     4    1   21 1
     5    2    3 2
     6    2   34 1
     7    3    4 1
     8    3   18 1
     9    4    9 1
    10    4    5 1
    11    5    6 2
    12    5   22 1
    13    6    7 1
    14    6   23 1
    15    7    8 2
    16    7   24 1
    17    8    9 1
    18    8   10 1
    19    9   34 2
    20   10   11 1
    21   11   12 1
    22   11   25 1
    23   11   26 1
    24   12   17 ar
    25   12   13 ar
    26   13   14 ar
    27   13   27 1
    28   14   15 ar
    29   14   28 1
    30   15   16 ar
    31   15   29 1
    32   16   17 ar
    33   16   30 1
    34   17   31 1
    35   18   32 1
    36   18   33 1
    37   34   35 1
