@<TRIPOS>MOLECULE
ZINC28703284
   48    51     0     0     0
SMALL
USER_CHARGES
(5E)-5-[(3,4-dibenzyloxyphenyl)methylene]-2-thioxo-thiazolidin-4-one
@<TRIPOS>ATOM
      1 C1          0.3570   -6.8960   -0.7087 C.ar      1 <0>        -0.1135
      2 C2         -0.0326   -6.2644    0.4576 C.ar      1 <0>        -0.1239
      3 C3         -0.1902   -4.8913    0.4806 C.ar      1 <0>        -0.0943
      4 C4          0.0414   -4.1497   -0.6629 C.ar      1 <0>        -0.0890
      5 C5          0.4254   -4.7819   -1.8306 C.ar      1 <0>        -0.0953
      6 C6          0.5886   -6.1545   -1.8521 C.ar      1 <0>        -0.1249
      7 C7         -0.1309   -2.6528   -0.6379 C.3       1 <0>         0.0952
      8 O1          1.1066   -2.0369   -0.2758 O.3       1 <0>        -0.2968
      9 C8          1.1234   -0.6802   -0.2068 C.ar      1 <0>         0.1123
     10 C9         -0.0305    0.0411   -0.4827 C.ar      1 <0>        -0.1802
     11 C10        -0.0205    1.4168   -0.4136 C.ar      1 <0>        -0.0326
     12 C11         1.1561    2.0910   -0.0646 C.ar      1 <0>        -0.0621
     13 C12         2.3193    1.3624    0.2125 C.ar      1 <0>        -0.1493
     14 C13         2.2992   -0.0166    0.1415 C.ar      1 <0>         0.0856
     15 O2          3.4267   -0.7276    0.4109 O.3       1 <0>        -0.2982
     16 C14         4.5951    0.0170    0.7610 C.3       1 <0>         0.0961
     17 C15         5.7360   -0.9322    1.0225 C.ar      1 <0>        -0.0889
     18 C16         5.9519   -1.4185    2.2984 C.ar      1 <0>        -0.0947
     19 C17         6.9958   -2.2926    2.5374 C.ar      1 <0>        -0.1239
     20 C18         7.8293   -2.6733    1.5024 C.ar      1 <0>        -0.1135
     21 C19         7.6165   -2.1829    0.2276 C.ar      1 <0>        -0.1248
     22 C20         6.5700   -1.3122   -0.0123 C.ar      1 <0>        -0.0952
     23 C21         1.1704    3.5574    0.0095 C.2       1 <0>         0.0001
     24 C22         0.1021    4.2217    0.5197 C.2       1 <0>        -0.1973
     25 C23        -1.0962    3.6939    1.2021 C.2       1 <0>         0.5224
     26 O3         -1.2527    2.5013    1.3885 O.3       1 <0>        -0.4896
     27 N1         -1.9906    4.5825    1.6010 N.2       1 <0>        -0.6488
     28 C24        -1.8133    5.9030    1.3926 C.2       1 <0>         0.3951
     29 S1         -2.8463    7.1965    1.8296 S.2       1 <0>        -0.5640
     30 S2         -0.2370    5.9765    0.5571 S.3       1 <0>        -0.1670
     31 H1          0.4809   -7.9687   -0.7264 H         1 <0>         0.1220
     32 H2         -0.2135   -6.8437    1.3509 H         1 <0>         0.1239
     33 H3         -0.4946   -4.3978    1.3918 H         1 <0>         0.1250
     34 H4          0.6021   -4.2031   -2.7251 H         1 <0>         0.1239
     35 H5          0.8933   -6.6479   -2.7632 H         1 <0>         0.1234
     36 H6         -0.4371   -2.3023   -1.6346 H         1 <0>         0.0719
     37 H7         -0.9031   -2.3848    0.0982 H         1 <0>         0.0738
     38 H8         -0.9386   -0.4780   -0.7520 H         1 <0>         0.1339
     39 H9         -0.9184    1.9754   -0.6328 H         1 <0>         0.1297
     40 H10         3.2297    1.8775    0.4815 H         1 <0>         0.1351
     41 H11         4.8615    0.6915   -0.0661 H         1 <0>         0.0708
     42 H12         4.3953    0.6085    1.6667 H         1 <0>         0.0711
     43 H13         5.3029   -1.1181    3.1078 H         1 <0>         0.1246
     44 H14         7.1618   -2.6759    3.5334 H         1 <0>         0.1238
     45 H15         8.6465   -3.3541    1.6897 H         1 <0>         0.1220
     46 H16         8.2677   -2.4803   -0.5810 H         1 <0>         0.1234
     47 H17         6.4038   -0.9291   -1.0083 H         1 <0>         0.1240
     48 H18         2.0468    4.1177   -0.3484 H         1 <0>         0.1386
@<TRIPOS>BOND
     1    1    6 ar
     2    1    2 ar
     3    1   31 1
     4    2    3 ar
     5    2   32 1
     6    3    4 ar
     7    3   33 1
     8    4    5 ar
     9    4    7 1
    10    5    6 ar
    11    5   34 1
    12    6   35 1
    13    7    8 1
    14    7   36 1
    15    7   37 1
    16    8    9 1
    17    9   14 ar
    18    9   10 ar
    19   10   11 ar
    20   10   38 1
    21   11   12 ar
    22   11   39 1
    23   12   13 ar
    24   12   23 1
    25   13   14 ar
    26   13   40 1
    27   14   15 1
    28   15   16 1
    29   16   17 1
    30   16   41 1
    31   16   42 1
    32   17   22 ar
    33   17   18 ar
    34   18   19 ar
    35   18   43 1
    36   19   20 ar
    37   19   44 1
    38   20   21 ar
    39   20   45 1
    40   21   22 ar
    41   21   46 1
    42   22   47 1
    43   23   24 2
    44   23   48 1
    45   24   30 1
    46   24   25 1
    47   25   26 1
    48   25   27 2
    49   27   28 1
    50   28   29 2
    51   28   30 1
@<TRIPOS>MOLECULE
ZINC12813325
   57    60     0     0     0
SMALL
USER_CHARGES

@<TRIPOS>ATOM
      1 C1         -0.2967    0.7550   -0.1771 C.ar      1 <0>        -0.1109
      2 C2          0.8654    1.4363   -0.4874 C.ar      1 <0>        -0.1229
      3 C3          2.0799    0.7764   -0.4672 C.ar      1 <0>        -0.0926
      4 C4          2.1324   -0.5647   -0.1363 C.ar      1 <0>        -0.0934
      5 C5          0.9704   -1.2458    0.1748 C.ar      1 <0>        -0.0947
      6 C6         -0.2443   -0.5863    0.1533 C.ar      1 <0>        -0.1251
      7 C7          3.4562   -1.2844   -0.1153 C.3       1 <0>         0.0966
      8 O1          4.0315   -1.1855    1.1890 O.3       1 <0>        -0.2930
      9 C8          5.2354   -1.7856    1.3793 C.ar      1 <0>         0.1324
     10 C9          5.8510   -2.4507    0.3274 C.ar      1 <0>        -0.1816
     11 C10         7.0717   -3.0612    0.5136 C.ar      1 <0>        -0.0313
     12 C11         7.6948   -3.0113    1.7666 C.ar      1 <0>        -0.0989
     13 C12         7.0730   -2.3398    2.8265 C.ar      1 <0>        -0.1368
     14 C13         5.8515   -1.7266    2.6287 C.ar      1 <0>         0.0892
     15 O2          5.2469   -1.0695    3.6544 O.3       1 <0>        -0.2954
     16 C14         5.9346   -1.0489    4.9068 C.3       1 <0>         0.0985
     17 C15         5.1190   -0.2816    5.9153 C.ar      1 <0>        -0.0935
     18 C16         5.2952    1.0826    6.0527 C.ar      1 <0>        -0.0934
     19 C17         4.5470    1.7864    6.9778 C.ar      1 <0>        -0.1232
     20 C18         3.6222    1.1262    7.7650 C.ar      1 <0>        -0.1110
     21 C19         3.4453   -0.2379    7.6269 C.ar      1 <0>        -0.1248
     22 C20         4.1905   -0.9410    6.6989 C.ar      1 <0>        -0.0946
     23 C21         8.9958   -3.6614    1.9687 C.2       1 <0>         0.0834
     24 C22         9.9370   -3.6145    0.9917 C.2       1 <0>        -0.2327
     25 C23         9.9514   -2.8394   -0.2650 C.2       1 <0>         0.5320
     26 O3          9.0342   -2.1001   -0.5708 O.2       1 <0>        -0.4392
     27 N1         11.0115   -2.9888   -1.0413 N.am      1 <0>        -0.5166
     28 C24        12.0259   -3.8088   -0.6985 C.2       1 <0>         0.2908
     29 S1         13.4687   -4.1331   -1.5610 S.2       1 <0>        -0.3315
     30 S2         11.5034   -4.4682    0.8764 S.3       1 <0>         0.0355
     31 C25        11.0855   -2.2471   -2.3025 C.3       1 <0>         0.1061
     32 C26        11.7635   -0.8969   -2.0611 C.3       1 <0>        -0.1921
     33 C27        11.8396   -0.1340   -3.3585 C.2       1 <0>         0.5040
     34 O4         11.3930   -0.6247   -4.3814 O.co2     1 <0>        -0.6929
     35 O5         12.3478    0.9740   -3.3853 O.co2     1 <0>        -0.6944
     36 H1         -1.2450    1.2717   -0.1885 H         1 <0>         0.1230
     37 H2          0.8244    2.4841   -0.7459 H         1 <0>         0.1253
     38 H3          2.9877    1.3086   -0.7104 H         1 <0>         0.1260
     39 H4          1.0114   -2.2937    0.4330 H         1 <0>         0.1236
     40 H5         -1.1521   -1.1185    0.3960 H         1 <0>         0.1240
     41 H6          3.3033   -2.3340   -0.3664 H         1 <0>         0.0733
     42 H7          4.1280   -0.8307   -0.8440 H         1 <0>         0.0760
     43 H8          5.3713   -2.4898   -0.6395 H         1 <0>         0.1399
     44 H9          7.5479   -3.5784   -0.3062 H         1 <0>         0.1292
     45 H10         7.5492   -2.2982    3.7949 H         1 <0>         0.1403
     46 H11         6.0798   -2.0703    5.2585 H         1 <0>         0.0710
     47 H12         6.9041   -0.5667    4.7810 H         1 <0>         0.0714
     48 H13         6.0177    1.5984    5.4377 H         1 <0>         0.1250
     49 H14         4.6852    2.8521    7.0857 H         1 <0>         0.1249
     50 H15         3.0382    1.6759    8.4882 H         1 <0>         0.1230
     51 H16         2.7231   -0.7538    8.2422 H         1 <0>         0.1241
     52 H17         4.0497   -2.0061    6.5884 H         1 <0>         0.1238
     53 H18         9.2039   -4.1768    2.8947 H         1 <0>         0.1566
     54 H19        11.6642   -2.8198   -3.0274 H         1 <0>         0.1144
     55 H20        10.0790   -2.0846   -2.6880 H         1 <0>         0.1046
     56 H21        11.1849   -0.3243   -1.3363 H         1 <0>         0.0610
     57 H22        12.7700   -1.0595   -1.6756 H         1 <0>         0.0679
@<TRIPOS>BOND
     1    1    6 ar
     2    1    2 ar
     3    1   36 1
     4    2    3 ar
     5    2   37 1
     6    3    4 ar
     7    3   38 1
     8    4    5 ar
     9    4    7 1
    10    5    6 ar
    11    5   39 1
    12    6   40 1
    13    7    8 1
    14    7   41 1
    15    7   42 1
    16    8    9 1
    17    9   14 ar
    18    9   10 ar
    19   10   11 ar
    20   10   43 1
    21   11   12 ar
    22   11   44 1
    23   12   13 ar
    24   12   23 1
    25   13   14 ar
    26   13   45 1
    27   14   15 1
    28   15   16 1
    29   16   17 1
    30   16   46 1
    31   16   47 1
    32   17   22 ar
    33   17   18 ar
    34   18   19 ar
    35   18   48 1
    36   19   20 ar
    37   19   49 1
    38   20   21 ar
    39   20   50 1
    40   21   22 ar
    41   21   51 1
    42   22   52 1
    43   23   24 2
    44   23   53 1
    45   24   30 1
    46   24   25 1
    47   25   26 2
    48   25   27 am
    49   27   28 1
    50   27   31 1
    51   28   29 2
    52   28   30 1
    53   31   32 1
    54   31   54 1
    55   31   55 1
    56   32   33 1
    57   32   56 1
    58   32   57 1
    59   33   34 2
    60   33   35 1
@<TRIPOS>MOLECULE
ZINC00094333
   34    37     0     0     0
SMALL
USER_CHARGES
p-tolylBLAHone
@<TRIPOS>ATOM
      1 C1         -5.4024   -6.1880    2.7555 C.3       1 <0>        -0.1201
      2 C2         -4.9212   -4.8762    2.1910 C.ar      1 <0>        -0.0662
      3 C3         -4.8681   -4.6941    0.8205 C.ar      1 <0>        -0.1202
      4 C4         -4.4290   -3.4955    0.2973 C.ar      1 <0>        -0.0716
      5 C5         -4.0377   -2.4653    1.1538 C.ar      1 <0>        -0.0157
      6 C6         -4.0882   -2.6575    2.5353 C.ar      1 <0>        -0.0827
      7 C7         -4.5348   -3.8590    3.0456 C.ar      1 <0>        -0.1177
      8 C8         -3.5661   -1.1781    0.6000 C.2       1 <0>         0.1524
      9 N1         -3.4519   -0.8358   -0.6515 N.2       1 <0>        -0.2283
     10 N2         -2.9955    0.4058   -1.0549 N.pl3     1 <0>        -0.5868
     11 C9         -2.6468    1.3154    0.0360 C.3       1 <0>         0.1896
     12 S1         -3.0187    0.2718    1.4922 S.3       1 <0>        -0.1298
     13 C10        -1.2151    1.7468    0.0173 C.ar      1 <0>        -0.1542
     14 C11        -0.0126    1.0758    0.0080 C.ar      1 <0>        -0.0296
     15 C12         1.1766    1.7825    0.0004 C.ar      1 <0>        -0.1392
     16 C13         1.1557    3.1653    0.0075 C.ar      1 <0>        -0.0655
     17 C14        -0.0455    3.8430    0.0214 C.ar      1 <0>        -0.1386
     18 C15        -1.2477    3.1404    0.0285 C.ar      1 <0>         0.1590
     19 N3         -2.5698    3.5933    0.0418 N.am      1 <0>        -0.6574
     20 C16        -3.4557    2.5751    0.0461 C.2       1 <0>         0.5382
     21 O1         -4.6653    2.6630    0.0556 O.2       1 <0>        -0.4566
     22 H1         -4.5552   -6.8620    2.8813 H         1 <0>         0.0752
     23 H2         -5.8763   -6.0157    3.7218 H         1 <0>         0.0698
     24 H3         -6.1239   -6.6350    2.0715 H         1 <0>         0.0698
     25 H4         -5.1715   -5.4920    0.1588 H         1 <0>         0.1311
     26 H5         -4.3884   -3.3545   -0.7727 H         1 <0>         0.1342
     27 H6         -3.7823   -1.8660    3.2033 H         1 <0>         0.1276
     28 H7         -4.5785   -4.0074    4.1145 H         1 <0>         0.1315
     29 H8         -2.9128    0.6540   -1.9889 H         1 <0>         0.4429
     30 H9          0.0021   -0.0041    0.0020 H         1 <0>         0.1297
     31 H10         2.1192    1.2555   -0.0114 H         1 <0>         0.1367
     32 H11         2.0841    3.7171    0.0019 H         1 <0>         0.1381
     33 H12        -0.0538    4.9229    0.0263 H         1 <0>         0.1332
     34 H13        -2.8213    4.5301    0.0475 H         1 <0>         0.4214
@<TRIPOS>BOND
     1    1    2 1
     2    1   22 1
     3    1   23 1
     4    1   24 1
     5    2    7 ar
     6    2    3 ar
     7    3    4 ar
     8    3   25 1
     9    4    5 ar
    10    4   26 1
    11    5    6 ar
    12    5    8 1
    13    6    7 ar
    14    6   27 1
    15    7   28 1
    16    8   12 1
    17    8    9 2
    18    9   10 1
    19   10   11 1
    20   10   29 1
    21   11   20 1
    22   11   12 1
    23   11   13 1
    24   13   18 ar
    25   13   14 ar
    26   14   15 ar
    27   14   30 1
    28   15   16 ar
    29   15   31 1
    30   16   17 ar
    31   16   32 1
    32   17   18 ar
    33   17   33 1
    34   18   19 1
    35   19   20 am
    36   19   34 1
    37   20   21 2
@<TRIPOS>MOLECULE
ZINC00094337
   34    37     0     0     0
SMALL
USER_CHARGES
p-tolylBLAHone
@<TRIPOS>ATOM
      1 C1          5.1401    9.7444   -2.7233 C.3       1 <0>        -0.1201
      2 C2          4.3512    8.5924   -2.1563 C.ar      1 <0>        -0.0662
      3 C3          4.2567    8.4307   -0.7855 C.ar      1 <0>        -0.1203
      4 C4          3.5364    7.3780   -0.2600 C.ar      1 <0>        -0.0716
      5 C5          2.9022    6.4750   -1.1146 C.ar      1 <0>        -0.0158
      6 C6          3.0062    6.6404   -2.4965 C.ar      1 <0>        -0.0827
      7 C7          3.7248    7.7008   -3.0090 C.ar      1 <0>        -0.1177
      8 C8          2.1285    5.3445   -0.5584 C.2       1 <0>         0.1525
      9 N1          1.9358    5.0420    0.6938 N.2       1 <0>        -0.2283
     10 N2          1.1882    3.9515    1.0995 N.pl3     1 <0>        -0.5867
     11 C9          0.6244    3.1547    0.0104 C.3       1 <0>         0.1897
     12 S1          1.2394    4.0731   -1.4478 S.3       1 <0>        -0.1301
     13 C10        -0.8695    3.0890    0.0259 C.ar      1 <0>        -0.1541
     14 C11        -1.8697    4.0355    0.0418 C.ar      1 <0>        -0.0296
     15 C12        -3.1962    3.6433    0.0528 C.ar      1 <0>        -0.1391
     16 C13        -3.5164    2.2979    0.0476 C.ar      1 <0>        -0.0655
     17 C14        -2.5191    1.3454    0.0323 C.ar      1 <0>        -0.1386
     18 C15        -1.1810    1.7304    0.0166 C.ar      1 <0>         0.1590
     19 N3         -0.0111    0.9658    0.0074 N.am      1 <0>        -0.6574
     20 C16         1.0982    1.7346    0.0009 C.2       1 <0>         0.5381
     21 O1          2.2490    1.3516   -0.0107 O.2       1 <0>        -0.4567
     22 H1          6.1757    9.4380   -2.8706 H         1 <0>         0.0752
     23 H2          4.7103   10.0437   -3.6792 H         1 <0>         0.0698
     24 H3          5.1050   10.5849   -2.0301 H         1 <0>         0.0698
     25 H4          4.7482    9.1300   -0.1253 H         1 <0>         0.1311
     26 H5          3.4637    7.2527    0.8102 H         1 <0>         0.1342
     27 H6          2.5218    5.9424   -3.1631 H         1 <0>         0.1276
     28 H7          3.8024    7.8325   -4.0781 H         1 <0>         0.1315
     29 H8          1.0489    3.7319    2.0340 H         1 <0>         0.4429
     30 H9         -1.6180    5.0857    0.0461 H         1 <0>         0.1297
     31 H10        -3.9800    4.3862    0.0658 H         1 <0>         0.1367
     32 H11        -4.5521    1.9918    0.0553 H         1 <0>         0.1381
     33 H12        -2.7770    0.2966    0.0281 H         1 <0>         0.1332
     34 H13         0.0021   -0.0041    0.0020 H         1 <0>         0.4214
@<TRIPOS>BOND
     1    1    2 1
     2    1   22 1
     3    1   23 1
     4    1   24 1
     5    2    7 ar
     6    2    3 ar
     7    3    4 ar
     8    3   25 1
     9    4    5 ar
    10    4   26 1
    11    5    6 ar
    12    5    8 1
    13    6    7 ar
    14    6   27 1
    15    7   28 1
    16    8   12 1
    17    8    9 2
    18    9   10 1
    19   10   11 1
    20   10   29 1
    21   11   20 1
    22   11   12 1
    23   11   13 1
    24   13   18 ar
    25   13   14 ar
    26   14   15 ar
    27   14   30 1
    28   15   16 ar
    29   15   31 1
    30   16   17 ar
    31   16   32 1
    32   17   18 ar
    33   17   33 1
    34   18   19 1
    35   19   20 am
    36   19   34 1
    37   20   21 2
@<TRIPOS>MOLECULE
ZINC00133912
   40    43     0     0     0
SMALL
USER_CHARGES

@<TRIPOS>ATOM
      1 C1         -0.0187    1.5258    0.0104 C.3       1 <0>        -0.1489
      2 C2          0.0021   -0.0041    0.0020 C.3       1 <0>        -0.0825
      3 C3         -1.4117   -0.5257    0.0127 C.ar      1 <0>        -0.1005
      4 C4         -2.0525   -0.7666    1.2144 C.ar      1 <0>        -0.0644
      5 C5         -3.3469   -1.2427    1.2296 C.ar      1 <0>        -0.1339
      6 C6         -4.0196   -1.4852    0.0348 C.ar      1 <0>         0.1537
      7 C7         -3.3638   -1.2403   -1.1706 C.ar      1 <0>        -0.1495
      8 C8         -2.0735   -0.7592   -1.1794 C.ar      1 <0>        -0.0272
      9 C9         -4.3467   -1.6007   -2.2385 C.3       1 <0>         0.1904
     10 C10        -5.5818   -2.0539   -1.5244 C.2       1 <0>         0.5381
     11 O1         -6.6176   -2.4316   -2.0301 O.2       1 <0>        -0.4575
     12 N1         -5.3126   -1.9583   -0.2053 N.am      1 <0>        -0.6569
     13 N2         -4.5887   -0.5256   -3.2000 N.pl3     1 <0>        -0.5866
     14 N3         -4.2676   -0.8347   -4.5091 N.2       1 <0>        -0.2282
     15 C11        -3.7866   -1.9907   -4.8682 C.2       1 <0>         0.1521
     16 S1         -3.6925   -2.9096   -3.3370 S.3       1 <0>        -0.1300
     17 C12        -3.4074   -2.4387   -6.2252 C.ar      1 <0>        -0.0156
     18 C13        -2.9099   -3.7274   -6.4243 C.ar      1 <0>        -0.0827
     19 C14        -2.5584   -4.1394   -7.6932 C.ar      1 <0>        -0.1177
     20 C15        -2.6977   -3.2780   -8.7669 C.ar      1 <0>        -0.0663
     21 C16        -3.1903   -1.9992   -8.5763 C.ar      1 <0>        -0.1203
     22 C17        -3.5509   -1.5767   -7.3135 C.ar      1 <0>        -0.0717
     23 C18        -2.3108   -3.7345  -10.1500 C.3       1 <0>        -0.1201
     24 H1          1.0039    1.9031    0.0027 H         1 <0>         0.0605
     25 H2         -0.5459    1.8868   -0.8726 H         1 <0>         0.0553
     26 H3         -0.5289    1.8773    0.9072 H         1 <0>         0.0566
     27 H4          0.5123   -0.3556   -0.8948 H         1 <0>         0.0747
     28 H5          0.5293   -0.3651    0.8851 H         1 <0>         0.0766
     29 H6         -1.5369   -0.5814    2.1452 H         1 <0>         0.1372
     30 H7         -3.8405   -1.4286    2.1720 H         1 <0>         0.1335
     31 H8         -1.5760   -0.5674   -2.1186 H         1 <0>         0.1288
     32 H9         -5.9427   -2.1912    0.4944 H         1 <0>         0.4212
     33 H10        -4.9465    0.3376   -2.9396 H         1 <0>         0.4427
     34 H11        -2.8000   -4.4005   -5.5869 H         1 <0>         0.1275
     35 H12        -2.1733   -5.1363   -7.8486 H         1 <0>         0.1315
     36 H13        -3.2966   -1.3316   -9.4186 H         1 <0>         0.1311
     37 H14        -3.9394   -0.5798   -7.1667 H         1 <0>         0.1341
     38 H15        -3.1731   -4.1902  -10.6367 H         1 <0>         0.0751
     39 H16        -1.9742   -2.8782  -10.7343 H         1 <0>         0.0698
     40 H17        -1.5052   -4.4654  -10.0793 H         1 <0>         0.0698
@<TRIPOS>BOND
     1    1    2 1
     2    1   24 1
     3    1   25 1
     4    1   26 1
     5    2    3 1
     6    2   27 1
     7    2   28 1
     8    3    8 ar
     9    3    4 ar
    10    4    5 ar
    11    4   29 1
    12    5    6 ar
    13    5   30 1
    14    6   12 1
    15    6    7 ar
    16    7    8 ar
    17    7    9 1
    18    8   31 1
    19    9   16 1
    20    9   10 1
    21    9   13 1
    22   10   11 2
    23   10   12 am
    24   12   32 1
    25   13   14 1
    26   13   33 1
    27   14   15 2
    28   15   16 1
    29   15   17 1
    30   17   22 ar
    31   17   18 ar
    32   18   19 ar
    33   18   34 1
    34   19   20 ar
    35   19   35 1
    36   20   21 ar
    37   20   23 1
    38   21   22 ar
    39   21   36 1
    40   22   37 1
    41   23   38 1
    42   23   39 1
    43   23   40 1
@<TRIPOS>MOLECULE
ZINC00133915
   40    43     0     0     0
SMALL
USER_CHARGES

@<TRIPOS>ATOM
      1 C1         -0.0187    1.5258    0.0104 C.3       1 <0>        -0.1495
      2 C2          0.0021   -0.0041    0.0020 C.3       1 <0>        -0.0821
      3 C3         -1.4117   -0.5257    0.0127 C.ar      1 <0>        -0.1006
      4 C4         -2.0525   -0.7666    1.2144 C.ar      1 <0>        -0.0644
      5 C5         -3.3461   -1.2449    1.2296 C.ar      1 <0>        -0.1339
      6 C6         -4.0180   -1.4894    0.0348 C.ar      1 <0>         0.1538
      7 C7         -3.3632   -1.2418   -1.1707 C.ar      1 <0>        -0.1496
      8 C8         -2.0735   -0.7592   -1.1794 C.ar      1 <0>        -0.0271
      9 C9         -4.3473   -1.5990   -2.2385 C.3       1 <0>         0.1904
     10 C10        -5.5791   -2.0613   -1.5244 C.2       1 <0>         0.5382
     11 O1         -6.6129   -2.4442   -2.0302 O.2       1 <0>        -0.4574
     12 N1         -5.3090   -1.9679   -0.2053 N.am      1 <0>        -0.6569
     13 N2         -3.8355   -2.5674   -3.2077 N.pl3     1 <0>        -0.5866
     14 N3         -3.7952   -2.1151   -4.5139 N.2       1 <0>        -0.2281
     15 C11        -4.1811   -0.9213   -4.8641 C.2       1 <0>         0.1519
     16 S1         -4.7026   -0.1716   -3.3267 S.3       1 <0>        -0.1300
     17 C12        -4.1863   -0.3251   -6.2171 C.ar      1 <0>        -0.0155
     18 C13        -4.6338    0.9835   -6.4046 C.ar      1 <0>        -0.0828
     19 C14        -4.6356    1.5340   -7.6696 C.ar      1 <0>        -0.1176
     20 C15        -4.1955    0.7917   -8.7511 C.ar      1 <0>        -0.0663
     21 C16        -3.7507   -0.5061   -8.5720 C.ar      1 <0>        -0.1202
     22 C17        -3.7383   -1.0666   -7.3114 C.ar      1 <0>        -0.0717
     23 C18        -4.2013    1.3992  -10.1302 C.3       1 <0>        -0.1201
     24 H1          1.0039    1.9031    0.0027 H         1 <0>         0.0603
     25 H2         -0.5459    1.8868   -0.8726 H         1 <0>         0.0570
     26 H3         -0.5289    1.8773    0.9072 H         1 <0>         0.0569
     27 H4          0.5123   -0.3556   -0.8948 H         1 <0>         0.0737
     28 H5          0.5293   -0.3651    0.8851 H         1 <0>         0.0760
     29 H6         -1.5375   -0.5798    2.1452 H         1 <0>         0.1371
     30 H7         -3.8397   -1.4308    2.1720 H         1 <0>         0.1336
     31 H8         -1.5761   -0.5673   -2.1186 H         1 <0>         0.1288
     32 H9         -5.9375   -2.2051    0.4944 H         1 <0>         0.4212
     33 H10        -3.5469   -3.4580   -2.9540 H         1 <0>         0.4428
     34 H11        -4.9782    1.5638   -5.5613 H         1 <0>         0.1275
     35 H12        -4.9816    2.5466   -7.8161 H         1 <0>         0.1314
     36 H13        -3.4085   -1.0803   -9.4203 H         1 <0>         0.1311
     37 H14        -3.3867   -2.0782   -7.1723 H         1 <0>         0.1341
     38 H15        -3.2475    1.8941  -10.3132 H         1 <0>         0.0751
     39 H16        -4.3519    0.6150  -10.8720 H         1 <0>         0.0698
     40 H17        -5.0086    2.1280  -10.2028 H         1 <0>         0.0697
@<TRIPOS>BOND
     1    1    2 1
     2    1   24 1
     3    1   25 1
     4    1   26 1
     5    2    3 1
     6    2   27 1
     7    2   28 1
     8    3    8 ar
     9    3    4 ar
    10    4    5 ar
    11    4   29 1
    12    5    6 ar
    13    5   30 1
    14    6   12 1
    15    6    7 ar
    16    7    8 ar
    17    7    9 1
    18    8   31 1
    19    9   16 1
    20    9   10 1
    21    9   13 1
    22   10   11 2
    23   10   12 am
    24   12   32 1
    25   13   14 1
    26   13   33 1
    27   14   15 2
    28   15   16 1
    29   15   17 1
    30   17   22 ar
    31   17   18 ar
    32   18   19 ar
    33   18   34 1
    34   19   20 ar
    35   19   35 1
    36   20   21 ar
    37   20   23 1
    38   21   22 ar
    39   21   36 1
    40   22   37 1
    41   23   38 1
    42   23   39 1
    43   23   40 1
@<TRIPOS>MOLECULE
ZINC13982474
   54    57     0     0     0
SMALL
USER_CHARGES
N-[(3R,4R)-3-(hydroxycarbamoyl)tetrahydropyran-4-yl]-4-[[2-(trifluoromethyl)benzimidazol-1-yl]methyl]benzamide
@<TRIPOS>ATOM
      1 C1         -8.6866    7.9745   -6.1187 C.ar      1 <0>        -0.1260
      2 C2         -7.3857    7.6287   -6.4565 C.ar      1 <0>        -0.0804
      3 C3         -7.0477    6.3103   -6.6755 C.ar      1 <0>        -0.1148
      4 C4         -8.0167    5.3232   -6.5570 C.ar      1 <0>         0.0764
      5 C5         -9.3344    5.6741   -6.2183 C.ar      1 <0>         0.0396
      6 C6         -9.6549    7.0175   -6.0056 C.ar      1 <0>        -0.0476
      7 N1        -10.0501    4.5213   -6.1681 N.2       1 <0>        -0.4246
      8 C7         -9.2773    3.5139   -6.4522 C.2       1 <0>         0.1831
      9 N2         -8.0137    3.9505   -6.7040 N.pl3     1 <0>        -0.4578
     10 C8         -6.8619    3.1177   -7.0592 C.3       1 <0>         0.1351
     11 C9         -6.0727    2.7956   -5.8165 C.ar      1 <0>        -0.0998
     12 C10        -6.3071    1.6122   -5.1391 C.ar      1 <0>        -0.1033
     13 C11        -5.5874    1.3109   -4.0014 C.ar      1 <0>        -0.0552
     14 C12        -4.6214    2.2031   -3.5337 C.ar      1 <0>        -0.1201
     15 C13        -4.3938    3.3979   -4.2185 C.ar      1 <0>        -0.0831
     16 C14        -5.1165    3.6844   -5.3582 C.ar      1 <0>        -0.1009
     17 C15        -3.8467    1.8869   -2.3148 C.2       1 <0>         0.5598
     18 O1         -4.0505    0.8480   -1.7176 O.2       1 <0>        -0.5328
     19 N3         -2.9145    2.7506   -1.8658 N.am      1 <0>        -0.7127
     20 C16        -2.1469    2.4372   -0.6579 C.3       1 <0>         0.1692
     21 H1         -1.9681    1.3632   -0.6064 H         1 <0>         0.1052
     22 C17        -2.9316    2.8860    0.5787 C.3       1 <0>        -0.1805
     23 C18        -2.0887    2.6267    1.8301 C.3       1 <0>         0.0614
     24 O2         -0.8439    3.3199    1.7167 O.3       1 <0>        -0.3739
     25 C19        -0.0462    2.9079    0.6050 C.3       1 <0>         0.0698
     26 C20        -0.8070    3.1785   -0.6957 C.3       1 <0>        -0.1471
     27 H2         -0.2186    2.8246   -1.5422 H         1 <0>         0.1217
     28 C21        -1.0540    4.6585   -0.8360 C.2       1 <0>         0.5374
     29 O3         -2.1892    5.0799   -0.9055 O.2       1 <0>        -0.5096
     30 N4         -0.0135    5.5138   -0.8844 N.am      1 <0>        -0.5915
     31 O4         -0.2456    6.9044   -1.0163 O.3       1 <0>        -0.3144
     32 C22        -9.7178    2.0734   -6.4963 C.3       1 <0>         0.5595
     33 F1        -11.1154    2.0136   -6.5168 F         1 <0>        -0.1437
     34 F2         -9.2080    1.4649   -7.6483 F         1 <0>        -0.1654
     35 F3         -9.2390    1.4044   -5.3648 F         1 <0>        -0.1587
     36 H3         -8.9374    9.0113   -5.9499 H         1 <0>         0.1366
     37 H4         -6.6331    8.3978   -6.5487 H         1 <0>         0.1370
     38 H5         -6.0339    6.0467   -6.9385 H         1 <0>         0.1267
     39 H6        -10.6638    7.2975   -5.7407 H         1 <0>         0.1364
     40 H7         -6.2275    3.6563   -7.7632 H         1 <0>         0.1134
     41 H8         -7.2103    2.1926   -7.5184 H         1 <0>         0.1142
     42 H9         -7.0549    0.9227   -5.5020 H         1 <0>         0.1332
     43 H10        -5.7709    0.3864   -3.4739 H         1 <0>         0.1430
     44 H11        -3.6508    4.0945   -3.8593 H         1 <0>         0.1298
     45 H12        -4.9383    4.6065   -5.8916 H         1 <0>         0.1300
     46 H13        -2.7519    3.5796   -2.3423 H         1 <0>         0.4054
     47 H14        -3.1532    3.9506    0.5029 H         1 <0>         0.0998
     48 H15        -3.8626    2.3230    0.6435 H         1 <0>         0.0837
     49 H16        -2.6246    2.9835    2.7096 H         1 <0>         0.1023
     50 H17        -1.9018    1.5573    1.9273 H         1 <0>         0.0581
     51 H18         0.1676    1.8422    0.6860 H         1 <0>         0.0756
     52 H19         0.8894    3.4671    0.6019 H         1 <0>         0.1031
     53 H20         0.8943    5.1767   -0.8288 H         1 <0>         0.4076
     54 H21         0.5610    7.4371   -1.0420 H         1 <0>         0.3897
@<TRIPOS>BOND
     1    1    6 ar
     2    1    2 ar
     3    1   36 1
     4    2    3 ar
     5    2   37 1
     6    3    4 ar
     7    3   38 1
     8    4    9 1
     9    4    5 ar
    10    5    6 ar
    11    5    7 1
    12    6   39 1
    13    7    8 2
    14    8    9 1
    15    8   32 1
    16    9   10 1
    17   10   11 1
    18   10   40 1
    19   10   41 1
    20   11   16 ar
    21   11   12 ar
    22   12   13 ar
    23   12   42 1
    24   13   14 ar
    25   13   43 1
    26   14   15 ar
    27   14   17 1
    28   15   16 ar
    29   15   44 1
    30   16   45 1
    31   17   18 2
    32   17   19 am
    33   19   20 1
    34   19   46 1
    35   20   21 1
    36   20   26 1
    37   20   22 1
    38   22   23 1
    39   22   47 1
    40   22   48 1
    41   23   24 1
    42   23   49 1
    43   23   50 1
    44   24   25 1
    45   25   26 1
    46   25   51 1
    47   25   52 1
    48   26   27 1
    49   26   28 1
    50   28   29 2
    51   28   30 am
    52   30   31 1
    53   30   53 1
    54   31   54 1
    55   32   33 1
    56   32   34 1
    57   32   35 1
@<TRIPOS>MOLECULE
ZINC00206268
   37    40     0     0     0
SMALL
USER_CHARGES

@<TRIPOS>ATOM
      1 C1         -0.0187    1.5258    0.0104 C.3       1 <0>        -0.1495
      2 C2          0.0021   -0.0041    0.0020 C.3       1 <0>        -0.0821
      3 C3          0.7074   -0.4901   -1.2379 C.ar      1 <0>        -0.1006
      4 C4         -0.0093   -0.7191   -2.3983 C.ar      1 <0>        -0.0642
      5 C5          0.6314   -1.1647   -3.5354 C.ar      1 <0>        -0.1339
      6 C6          2.0058   -1.3882   -3.5247 C.ar      1 <0>         0.1539
      7 C7          2.7187   -1.1528   -2.3502 C.ar      1 <0>        -0.1499
      8 C8          2.0742   -0.7027   -1.2195 C.ar      1 <0>        -0.0271
      9 C9          4.1408   -1.4815   -2.6755 C.3       1 <0>         0.1901
     10 C10         4.1452   -1.9152   -4.1083 C.2       1 <0>         0.5382
     11 O1          5.1057   -2.2702   -4.7581 O.2       1 <0>        -0.4572
     12 N1          2.8663   -1.8332   -4.5320 N.am      1 <0>        -0.6569
     13 N2          4.7395   -2.4590   -1.7671 N.pl3     1 <0>        -0.5861
     14 N3          5.8435   -2.0033   -1.0702 N.2       1 <0>        -0.2265
     15 C11         6.3211   -0.7990   -1.2054 C.2       1 <0>         0.1497
     16 S1          5.2385   -0.0418   -2.4106 S.3       1 <0>        -0.1291
     17 C12         7.4861   -0.1982   -0.5215 C.ar      1 <0>        -0.0088
     18 C13         7.8518    1.1220   -0.7890 C.ar      1 <0>        -0.0883
     19 C14         8.9396    1.6768   -0.1472 C.ar      1 <0>        -0.1160
     20 C15         9.6679    0.9274    0.7597 C.ar      1 <0>        -0.1012
     21 C16         9.3107   -0.3818    1.0294 C.ar      1 <0>        -0.1185
     22 C17         8.2216   -0.9468    0.3987 C.ar      1 <0>        -0.0773
     23 H1          1.0039    1.9031    0.0027 H         1 <0>         0.0570
     24 H2         -0.5459    1.8868   -0.8726 H         1 <0>         0.0569
     25 H3         -0.5289    1.8773    0.9072 H         1 <0>         0.0603
     26 H4          0.5293   -0.3651    0.8851 H         1 <0>         0.0738
     27 H5         -1.0205   -0.3814    0.0098 H         1 <0>         0.0760
     28 H6         -1.0757   -0.5485   -2.4140 H         1 <0>         0.1372
     29 H7          0.0648   -1.3415   -4.4377 H         1 <0>         0.1336
     30 H8          2.6361   -0.5201   -0.3154 H         1 <0>         0.1289
     31 H9          2.5781   -2.0570   -5.4308 H         1 <0>         0.4213
     32 H10         4.3894   -3.3575   -1.6619 H         1 <0>         0.4430
     33 H11         7.2845    1.7077   -1.4972 H         1 <0>         0.1272
     34 H12         9.2236    2.6982   -0.3533 H         1 <0>         0.1318
     35 H13        10.5191    1.3662    1.2590 H         1 <0>         0.1289
     36 H14         9.8834   -0.9614    1.7383 H         1 <0>         0.1315
     37 H15         7.9411   -1.9674    0.6134 H         1 <0>         0.1338
@<TRIPOS>BOND
     1    1    2 1
     2    1   23 1
     3    1   24 1
     4    1   25 1
     5    2    3 1
     6    2   26 1
     7    2   27 1
     8    3    8 ar
     9    3    4 ar
    10    4    5 ar
    11    4   28 1
    12    5    6 ar
    13    5   29 1
    14    6   12 1
    15    6    7 ar
    16    7    8 ar
    17    7    9 1
    18    8   30 1
    19    9   16 1
    20    9   10 1
    21    9   13 1
    22   10   11 2
    23   10   12 am
    24   12   31 1
    25   13   14 1
    26   13   32 1
    27   14   15 2
    28   15   16 1
    29   15   17 1
    30   17   22 ar
    31   17   18 ar
    32   18   19 ar
    33   18   33 1
    34   19   20 ar
    35   19   34 1
    36   20   21 ar
    37   20   35 1
    38   21   22 ar
    39   21   36 1
    40   22   37 1
@<TRIPOS>MOLECULE
ZINC03150673
   37    40     0     0     0
SMALL
USER_CHARGES

@<TRIPOS>ATOM
      1 C1         -0.0187    1.5258    0.0104 C.3       1 <0>        -0.1489
      2 C2          0.0021   -0.0041    0.0020 C.3       1 <0>        -0.0826
      3 C3          0.7074   -0.4901   -1.2379 C.ar      1 <0>        -0.1004
      4 C4         -0.0093   -0.7190   -2.3983 C.ar      1 <0>        -0.0642
      5 C5          0.6318   -1.1626   -3.5361 C.ar      1 <0>        -0.1338
      6 C6          2.0065   -1.3839   -3.5260 C.ar      1 <0>         0.1539
      7 C7          2.7189   -1.1513   -2.3507 C.ar      1 <0>        -0.1499
      8 C8          2.0742   -0.7027   -1.2195 C.ar      1 <0>        -0.0272
      9 C9          4.1405   -1.4832   -2.6750 C.3       1 <0>         0.1902
     10 C10         4.1464   -1.9078   -4.1105 C.2       1 <0>         0.5382
     11 O1          5.1078   -2.2575   -4.7619 O.2       1 <0>        -0.4573
     12 N1          2.8679   -1.8235   -4.5349 N.am      1 <0>        -0.6569
     13 N2          5.0774   -0.3990   -2.3824 N.pl3     1 <0>        -0.5862
     14 N3          6.0555   -0.7115   -1.4560 N.2       1 <0>        -0.2266
     15 C11         6.1441   -1.8779   -0.8831 C.2       1 <0>         0.1499
     16 S1          4.7853   -2.8043   -1.5855 S.3       1 <0>        -0.1291
     17 C12         7.1368   -2.3306    0.1146 C.ar      1 <0>        -0.0088
     18 C13         7.0808   -3.6306    0.6192 C.ar      1 <0>        -0.0883
     19 C14         8.0104   -4.0469    1.5496 C.ar      1 <0>        -0.1160
     20 C15         8.9965   -3.1785    1.9831 C.ar      1 <0>        -0.1011
     21 C16         9.0577   -1.8884    1.4869 C.ar      1 <0>        -0.1186
     22 C17         8.1376   -1.4614    0.5517 C.ar      1 <0>        -0.0773
     23 H1          1.0039    1.9031    0.0027 H         1 <0>         0.0553
     24 H2         -0.5459    1.8868   -0.8726 H         1 <0>         0.0566
     25 H3         -0.5289    1.8773    0.9072 H         1 <0>         0.0606
     26 H4          0.5293   -0.3651    0.8851 H         1 <0>         0.0747
     27 H5         -1.0205   -0.3814    0.0098 H         1 <0>         0.0766
     28 H6         -1.0759   -0.5500   -2.4135 H         1 <0>         0.1372
     29 H7          0.0652   -1.3392   -4.4384 H         1 <0>         0.1336
     30 H8          2.6360   -0.5202   -0.3154 H         1 <0>         0.1288
     31 H9          2.5804   -2.0430   -5.4350 H         1 <0>         0.4213
     32 H10         5.0173    0.4720   -2.8051 H         1 <0>         0.4429
     33 H11         6.3111   -4.3092    0.2822 H         1 <0>         0.1272
     34 H12         7.9681   -5.0526    1.9409 H         1 <0>         0.1318
     35 H13         9.7214   -3.5091    2.7122 H         1 <0>         0.1289
     36 H14         9.8299   -1.2155    1.8293 H         1 <0>         0.1315
     37 H15         8.1891   -0.4556    0.1619 H         1 <0>         0.1338
@<TRIPOS>BOND
     1    1    2 1
     2    1   23 1
     3    1   24 1
     4    1   25 1
     5    2    3 1
     6    2   26 1
     7    2   27 1
     8    3    8 ar
     9    3    4 ar
    10    4    5 ar
    11    4   28 1
    12    5    6 ar
    13    5   29 1
    14    6   12 1
    15    6    7 ar
    16    7    8 ar
    17    7    9 1
    18    8   30 1
    19    9   16 1
    20    9   10 1
    21    9   13 1
    22   10   11 2
    23   10   12 am
    24   12   31 1
    25   13   14 1
    26   13   32 1
    27   14   15 2
    28   15   16 1
    29   15   17 1
    30   17   22 ar
    31   17   18 ar
    32   18   19 ar
    33   18   33 1
    34   19   20 ar
    35   19   34 1
    36   20   21 ar
    37   20   35 1
    38   21   22 ar
    39   21   36 1
    40   22   37 1
@<TRIPOS>MOLECULE
ZINC00081218
   37    40     0     0     0
SMALL
USER_CHARGES
methyl-(p-tolyl)BLAHone
@<TRIPOS>ATOM
      1 C1          5.6445    6.6051   -0.0159 C.3       1 <0>        -0.1201
      2 C2          4.4638    5.6687   -0.0101 C.ar      1 <0>        -0.0663
      3 C3          4.6698    4.3005   -0.0200 C.ar      1 <0>        -0.1202
      4 C4          3.5932    3.4378   -0.0143 C.ar      1 <0>        -0.0717
      5 C5          2.2942    3.9479    0.0009 C.ar      1 <0>        -0.0155
      6 C6          2.0933    5.3290    0.0045 C.ar      1 <0>        -0.0828
      7 C7          3.1786    6.1808    0.0054 C.ar      1 <0>        -0.1176
      8 C8          1.1358    3.0291    0.0071 C.2       1 <0>         0.1521
      9 N1          1.1436    1.7266    0.0004 N.2       1 <0>        -0.2282
     10 N2         -0.0111    0.9658    0.0074 N.pl3     1 <0>        -0.5867
     11 C9         -1.2540    1.7371    0.0171 C.3       1 <0>         0.1899
     12 S1         -0.6030    3.4468    0.0260 S.3       1 <0>        -0.1297
     13 C10        -2.1244    1.4856   -1.1726 C.ar      1 <0>        -0.1491
     14 C11        -1.9293    1.5554   -2.5340 C.ar      1 <0>        -0.0304
     15 C12        -2.9641    1.2508   -3.4000 C.ar      1 <0>        -0.1043
     16 C13        -4.1961    0.8760   -2.8956 C.ar      1 <0>        -0.0673
     17 C14        -4.3977    0.8046   -1.5331 C.ar      1 <0>        -0.1331
     18 C15        -3.3624    1.1102   -0.6535 C.ar      1 <0>         0.1526
     19 N3         -3.3221    1.1125    0.7436 N.am      1 <0>        -0.6569
     20 C16        -2.1103    1.4729    1.2163 C.2       1 <0>         0.5383
     21 O1         -1.7808    1.5639    2.3800 O.2       1 <0>        -0.4572
     22 C17        -2.7493    1.3268   -4.8896 C.3       1 <0>        -0.1129
     23 H1          5.9194    6.8368   -1.0449 H         1 <0>         0.0751
     24 H2          5.3810    7.5252    0.5058 H         1 <0>         0.0698
     25 H3          6.4870    6.1307    0.4873 H         1 <0>         0.0698
     26 H4          5.6755    3.9071   -0.0318 H         1 <0>         0.1311
     27 H5          3.7553    2.3700   -0.0213 H         1 <0>         0.1341
     28 H6          1.0905    5.7300    0.0114 H         1 <0>         0.1276
     29 H7          3.0245    7.2497    0.0134 H         1 <0>         0.1315
     30 H8          0.0021   -0.0041    0.0020 H         1 <0>         0.4428
     31 H9         -0.9666    1.8482   -2.9263 H         1 <0>         0.1293
     32 H10        -5.0040    0.6379   -3.5718 H         1 <0>         0.1377
     33 H11        -5.3625    0.5110   -1.1468 H         1 <0>         0.1337
     34 H12        -4.0768    0.8819    1.3076 H         1 <0>         0.4212
     35 H13        -2.4016    0.3610   -5.2563 H         1 <0>         0.0731
     36 H14        -3.6883    1.5847   -5.3794 H         1 <0>         0.0710
     37 H15        -2.0027    2.0896   -5.1107 H         1 <0>         0.0692
@<TRIPOS>BOND
     1    1    2 1
     2    1   23 1
     3    1   24 1
     4    1   25 1
     5    2    7 ar
     6    2    3 ar
     7    3    4 ar
     8    3   26 1
     9    4    5 ar
    10    4   27 1
    11    5    6 ar
    12    5    8 1
    13    6    7 ar
    14    6   28 1
    15    7   29 1
    16    8   12 1
    17    8    9 2
    18    9   10 1
    19   10   11 1
    20   10   30 1
    21   11   20 1
    22   11   12 1
    23   11   13 1
    24   13   18 ar
    25   13   14 ar
    26   14   15 ar
    27   14   31 1
    28   15   16 ar
    29   15   22 1
    30   16   17 ar
    31   16   32 1
    32   17   18 ar
    33   17   33 1
    34   18   19 1
    35   19   20 am
    36   19   34 1
    37   20   21 2
    38   22   35 1
    39   22   36 1
    40   22   37 1
@<TRIPOS>MOLECULE
ZINC00081221
   37    40     0     0     0
SMALL
USER_CHARGES
methyl-(p-tolyl)BLAHone
@<TRIPOS>ATOM
      1 C1        -10.0449    4.6661   -2.9791 C.3       1 <0>        -0.1201
      2 C2         -9.0280    4.2125   -1.9636 C.ar      1 <0>        -0.0663
      3 C3         -9.0854    2.9256   -1.4588 C.ar      1 <0>        -0.1203
      4 C4         -8.1577    2.5043   -0.5286 C.ar      1 <0>        -0.0717
      5 C5         -7.1598    3.3794   -0.0970 C.ar      1 <0>        -0.0155
      6 C6         -7.1110    4.6781   -0.6059 C.ar      1 <0>        -0.0827
      7 C7         -8.0413    5.0850   -1.5399 C.ar      1 <0>        -0.1177
      8 C8         -6.1624    2.9346    0.8996 C.2       1 <0>         0.1520
      9 N1         -6.0670    1.7704    1.4763 N.2       1 <0>        -0.2282
     10 N2         -5.0853    1.4655    2.4013 N.pl3     1 <0>        -0.5866
     11 C9         -4.1527    2.5553    2.6880 C.3       1 <0>         0.1901
     12 S1         -4.8061    3.8694    1.5953 S.3       1 <0>        -0.1298
     13 C10        -2.7303    2.2288    2.3620 C.ar      1 <0>        -0.1490
     14 C11        -2.0840    1.7899    1.2279 C.ar      1 <0>        -0.0303
     15 C12        -0.7181    1.5718    1.2479 C.ar      1 <0>        -0.1044
     16 C13        -0.0004    1.8062    2.4067 C.ar      1 <0>        -0.0672
     17 C14        -0.6413    2.2508    3.5441 C.ar      1 <0>        -0.1331
     18 C15        -2.0168    2.4676    3.5354 C.ar      1 <0>         0.1526
     19 N3         -2.8781    2.9073    4.5444 N.am      1 <0>        -0.6568
     20 C16        -4.1577    2.9847    4.1221 C.2       1 <0>         0.5382
     21 O1         -5.1193    3.3330    4.7741 O.2       1 <0>        -0.4574
     22 C17        -0.0127    1.0858    0.0080 C.3       1 <0>        -0.1129
     23 H1        -10.9026    5.1003   -2.4654 H         1 <0>         0.0751
     24 H2         -9.5965    5.4137   -3.6334 H         1 <0>         0.0698
     25 H3        -10.3711    3.8123   -3.5730 H         1 <0>         0.0698
     26 H4         -9.8583    2.2496   -1.7934 H         1 <0>         0.1311
     27 H5         -8.2038    1.4996   -0.1351 H         1 <0>         0.1341
     28 H6         -6.3443    5.3616   -0.2724 H         1 <0>         0.1276
     29 H7         -8.0020    6.0883   -1.9378 H         1 <0>         0.1315
     30 H8         -5.0200    0.5963    2.8268 H         1 <0>         0.4428
     31 H9         -2.6452    1.6113    0.3226 H         1 <0>         0.1294
     32 H10         1.0667    1.6407    2.4208 H         1 <0>         0.1377
     33 H11        -0.0742    2.4312    4.4453 H         1 <0>         0.1337
     34 H12        -2.5900    3.1307    5.4433 H         1 <0>         0.4212
     35 H13         0.0021   -0.0041    0.0020 H         1 <0>         0.0731
     36 H14         1.0099    1.4631    0.0003 H         1 <0>         0.0710
     37 H15        -0.5399    1.4469   -0.8751 H         1 <0>         0.0692
@<TRIPOS>BOND
     1    1    2 1
     2    1   23 1
     3    1   24 1
     4    1   25 1
     5    2    7 ar
     6    2    3 ar
     7    3    4 ar
     8    3   26 1
     9    4    5 ar
    10    4   27 1
    11    5    6 ar
    12    5    8 1
    13    6    7 ar
    14    6   28 1
    15    7   29 1
    16    8   12 1
    17    8    9 2
    18    9   10 1
    19   10   11 1
    20   10   30 1
    21   11   20 1
    22   11   12 1
    23   11   13 1
    24   13   18 ar
    25   13   14 ar
    26   14   15 ar
    27   14   31 1
    28   15   16 ar
    29   15   22 1
    30   16   17 ar
    31   16   32 1
    32   17   18 ar
    33   17   33 1
    34   18   19 1
    35   19   20 am
    36   19   34 1
    37   20   21 2
    38   22   35 1
    39   22   36 1
    40   22   37 1
@<TRIPOS>MOLECULE
ZINC15011580
   39    41     0     0     0
SMALL
USER_CHARGES
(5E)-5-[[4-[(4-chlorophenyl)methoxy]-3-methoxy-phenyl]methylene]-2-thioxo-thiazolidin-4-one
@<TRIPOS>ATOM
      1 C1          2.2135    4.0126   -0.8033 C.3       1 <0>         0.0239
      2 O1          1.0037    3.3461   -0.4369 O.3       1 <0>        -0.3031
      3 C2          1.0902    2.0175   -0.1601 C.ar      1 <0>         0.0903
      4 C3          2.3094    1.3738   -0.2397 C.ar      1 <0>        -0.1323
      5 C4          2.3945    0.0058    0.0464 C.ar      1 <0>        -0.1102
      6 C5          1.2425   -0.7017    0.4113 C.ar      1 <0>        -0.0319
      7 C6          0.0307   -0.0510    0.4876 C.ar      1 <0>        -0.1851
      8 C7         -0.0522    1.3057    0.2039 C.ar      1 <0>         0.1371
      9 O2         -1.2512    1.9405    0.2760 O.3       1 <0>        -0.2916
     10 C8         -2.3820    1.1506    0.6492 C.3       1 <0>         0.0978
     11 C9         -3.6140    2.0182    0.6758 C.ar      1 <0>        -0.0936
     12 C10        -3.9786    2.6648    1.8420 C.ar      1 <0>        -0.0805
     13 C11        -5.1052    3.4651    1.8656 C.ar      1 <0>        -0.1132
     14 C12        -5.8744    3.6100    0.7248 C.ar      1 <0>        -0.0238
     15 C13        -5.5121    2.9581   -0.4406 C.ar      1 <0>        -0.1131
     16 C14        -4.3821    2.1626   -0.4644 C.ar      1 <0>        -0.0804
     17 Cl1        -7.2932    4.6098    0.7553 Cl        1 <0>        -0.0641
     18 C15         3.6878   -0.6847   -0.0353 C.2       1 <0>         0.1101
     19 C16         3.7545   -1.9436   -0.5387 C.2       1 <0>        -0.2568
     20 C17         2.7109   -2.7467   -1.2069 C.2       1 <0>         0.5378
     21 O3          1.5876   -2.3137   -1.3858 O.2       1 <0>        -0.4479
     22 N1          3.0588   -3.9600   -1.6014 N.am      1 <0>        -0.6295
     23 C18         4.3047   -4.4357   -1.4016 C.2       1 <0>         0.2795
     24 S1          4.9415   -5.9644   -1.8358 S.2       1 <0>        -0.3223
     25 S2          5.1320   -3.0821   -0.5820 S.3       1 <0>         0.0830
     26 H1          2.9348    3.9291    0.0096 H         1 <0>         0.0568
     27 H2          2.6241    3.5523   -1.7020 H         1 <0>         0.0557
     28 H3          2.0045    5.0647   -0.9970 H         1 <0>         0.1034
     29 H4          3.1948    1.9241   -0.5220 H         1 <0>         0.1436
     30 H5          1.3040   -1.7568    0.6332 H         1 <0>         0.1281
     31 H6         -0.8572   -0.5975    0.7691 H         1 <0>         0.1408
     32 H7         -2.5189    0.3473   -0.0748 H         1 <0>         0.0770
     33 H8         -2.2166    0.7239    1.6384 H         1 <0>         0.0770
     34 H9         -3.3805    2.5480    2.7337 H         1 <0>         0.1352
     35 H10        -5.3875    3.9737    2.7755 H         1 <0>         0.1380
     36 H11        -6.1120    3.0712   -1.3315 H         1 <0>         0.1379
     37 H12        -4.0991    1.6540   -1.3741 H         1 <0>         0.1350
     38 H13         4.5860   -0.1910    0.3050 H         1 <0>         0.1610
     39 H14         2.4027   -4.5206   -2.0443 H         1 <0>         0.4303
@<TRIPOS>BOND
     1    1    2 1
     2    1   26 1
     3    1   27 1
     4    1   28 1
     5    2    3 1
     6    3    8 ar
     7    3    4 ar
     8    4    5 ar
     9    4   29 1
    10    5    6 ar
    11    5   18 1
    12    6    7 ar
    13    6   30 1
    14    7    8 ar
    15    7   31 1
    16    8    9 1
    17    9   10 1
    18   10   11 1
    19   10   32 1
    20   10   33 1
    21   11   16 ar
    22   11   12 ar
    23   12   13 ar
    24   12   34 1
    25   13   14 ar
    26   13   35 1
    27   14   15 ar
    28   14   17 1
    29   15   16 ar
    30   15   36 1
    31   16   37 1
    32   18   19 2
    33   18   38 1
    34   19   25 1
    35   19   20 1
    36   20   21 2
    37   20   22 am
    38   22   23 1
    39   22   39 1
    40   23   24 2
    41   23   25 1
@<TRIPOS>MOLECULE
ZINC13343678
   54    57     0     0     0
SMALL
USER_CHARGES
2-[(5E)-5-[(3,4-dibenzyloxyphenyl)methylene]-4-oxo-2-thioxo-thiazolidin-3-yl]acetic acid
@<TRIPOS>ATOM
      1 C1          0.3662    1.9347    0.1899 C.ar      1 <0>        -0.1116
      2 C2          1.5276    2.5965   -0.1623 C.ar      1 <0>        -0.1252
      3 C3          2.7262    1.9097   -0.2131 C.ar      1 <0>        -0.0948
      4 C4          2.7634    0.5612    0.0884 C.ar      1 <0>        -0.0925
      5 C5          1.6021   -0.1005    0.4411 C.ar      1 <0>        -0.0930
      6 C6          0.4035    0.5862    0.4919 C.ar      1 <0>        -0.1232
      7 C7          4.0701   -0.1875    0.0331 C.3       1 <0>         0.0969
      8 O1          4.2586   -0.7203   -1.2794 O.3       1 <0>        -0.2937
      9 C8          5.3968   -1.4286   -1.4999 C.ar      1 <0>         0.1282
     10 C9          6.3122   -1.6053   -0.4709 C.ar      1 <0>        -0.1813
     11 C10         7.4678   -2.3231   -0.6877 C.ar      1 <0>        -0.0332
     12 C11         7.7214   -2.8762   -1.9489 C.ar      1 <0>        -0.0920
     13 C12         6.7976   -2.6968   -2.9858 C.ar      1 <0>        -0.1374
     14 C13         5.6392   -1.9805   -2.7571 C.ar      1 <0>         0.0896
     15 O2          4.7368   -1.8093   -3.7600 O.3       1 <0>        -0.2959
     16 C14         5.0494   -2.4021   -5.0222 C.3       1 <0>         0.0978
     17 C15         3.9428   -2.1094   -6.0024 C.ar      1 <0>        -0.0920
     18 C16         2.8777   -2.9823   -6.1232 C.ar      1 <0>        -0.0936
     19 C17         1.8605   -2.7116   -7.0193 C.ar      1 <0>        -0.1232
     20 C18         1.9129   -1.5727   -7.8010 C.ar      1 <0>        -0.1118
     21 C19         2.9806   -0.7026   -7.6839 C.ar      1 <0>        -0.1250
     22 C20         3.9957   -0.9710   -6.7848 C.ar      1 <0>        -0.0949
     23 C21         8.9519   -3.6424   -2.1832 C.2       1 <0>         0.0730
     24 C22         9.4250   -4.4771   -1.2229 C.2       1 <0>        -0.2207
     25 C23         8.8017   -4.9000    0.0472 C.2       1 <0>         0.5402
     26 O3          7.7021   -4.5013    0.3836 O.2       1 <0>        -0.4442
     27 N1          9.4990   -5.7334    0.8008 N.am      1 <0>        -0.4901
     28 C24        10.7176   -6.1720    0.4247 C.2       1 <0>         0.3068
     29 S1         11.7654   -7.2417    1.2546 S.2       1 <0>        -0.3505
     30 S2         10.9705   -5.3727   -1.1519 S.3       1 <0>         0.0339
     31 C25         8.9352   -6.1902    2.0734 C.3       1 <0>         0.0360
     32 C26         8.1397   -7.4500    1.8470 C.2       1 <0>         0.4675
     33 O4          8.0527   -7.9182    0.7365 O.co2     1 <0>        -0.6243
     34 H1         -0.5711    2.4701    0.2248 H         1 <0>         0.1228
     35 H2          1.4984    3.6500   -0.3982 H         1 <0>         0.1238
     36 H3          3.6335    2.4268   -0.4883 H         1 <0>         0.1236
     37 H4          1.6312   -1.1541    0.6767 H         1 <0>         0.1258
     38 H5         -0.5039    0.0691    0.7671 H         1 <0>         0.1249
     39 H6          4.8886    0.4922    0.2703 H         1 <0>         0.0726
     40 H7          4.0530   -1.0022    0.7570 H         1 <0>         0.0750
     41 H8          6.1176   -1.1791    0.5021 H         1 <0>         0.1384
     42 H9          8.1776   -2.4596    0.1147 H         1 <0>         0.1287
     43 H10         6.9881   -3.1216   -3.9603 H         1 <0>         0.1403
     44 H11         5.9854   -1.9875   -5.3965 H         1 <0>         0.0711
     45 H12         5.1522   -3.4805   -4.9016 H         1 <0>         0.0721
     46 H13         2.8387   -3.8740   -5.5152 H         1 <0>         0.1254
     47 H14         1.0262   -3.3913   -7.1105 H         1 <0>         0.1247
     48 H15         1.1195   -1.3626   -8.5030 H         1 <0>         0.1226
     49 H16         3.0215    0.1872   -8.2947 H         1 <0>         0.1238
     50 H17         4.8299   -0.2912   -6.6934 H         1 <0>         0.1238
     51 H18         9.4807   -3.5418   -3.1195 H         1 <0>         0.1564
     52 H19         9.7428   -6.3920    2.7771 H         1 <0>         0.1172
     53 H20         8.2834   -5.4172    2.4804 H         1 <0>         0.1076
     54 O5          7.5278   -8.0520    2.8790 O.co2     1 <0>        -0.7464
@<TRIPOS>BOND
     1    1    6 ar
     2    1    2 ar
     3    1   34 1
     4    2    3 ar
     5    2   35 1
     6    3    4 ar
     7    3   36 1
     8    4    5 ar
     9    4    7 1
    10    5    6 ar
    11    5   37 1
    12    6   38 1
    13    7    8 1
    14    7   39 1
    15    7   40 1
    16    8    9 1
    17    9   14 ar
    18    9   10 ar
    19   10   11 ar
    20   10   41 1
    21   11   12 ar
    22   11   42 1
    23   12   13 ar
    24   12   23 1
    25   13   14 ar
    26   13   43 1
    27   14   15 1
    28   15   16 1
    29   16   17 1
    30   16   44 1
    31   16   45 1
    32   17   22 ar
    33   17   18 ar
    34   18   19 ar
    35   18   46 1
    36   19   20 ar
    37   19   47 1
    38   20   21 ar
    39   20   48 1
    40   21   22 ar
    41   21   49 1
    42   22   50 1
    43   23   24 2
    44   23   51 1
    45   24   30 1
    46   24   25 1
    47   25   26 2
    48   25   27 am
    49   27   28 1
    50   27   31 1
    51   28   29 2
    52   28   30 1
    53   31   32 1
    54   31   52 1
    55   31   53 1
    56   32   33 2
    57   32   54 1
@<TRIPOS>MOLECULE
ZINC00033901
   37    40     0     0     0
SMALL
USER_CHARGES
methyl-(p-tolyl)BLAHone
@<TRIPOS>ATOM
      1 C1         -4.5575    9.1784   -2.5755 C.3       1 <0>        -0.1200
      2 C2         -4.0160    7.8819   -2.0306 C.ar      1 <0>        -0.0664
      3 C3         -3.9246    7.6942   -0.6629 C.ar      1 <0>        -0.1202
      4 C4         -3.4290    6.5101   -0.1576 C.ar      1 <0>        -0.0717
      5 C5         -3.0196    5.5000   -1.0295 C.ar      1 <0>        -0.0154
      6 C6         -3.1095    5.6977   -2.4081 C.ar      1 <0>        -0.0828
      7 C7         -3.6119    6.8846   -2.9004 C.ar      1 <0>        -0.1176
      8 C8         -2.4875    4.2283   -0.4949 C.2       1 <0>         0.1522
      9 N1         -2.3315    3.8837    0.7515 N.2       1 <0>        -0.2282
     10 N2         -1.8199    2.6578    1.1362 N.pl3     1 <0>        -0.5866
     11 C9         -1.4634    1.7677    0.0315 C.3       1 <0>         0.1916
     12 S1         -1.9079    2.8046   -1.4087 S.3       1 <0>        -0.1315
     13 C10        -0.0168    1.3897    0.0097 C.ar      1 <0>        -0.1547
     14 C11         1.1600    2.1048    0.0023 C.ar      1 <0>        -0.0291
     15 C12         2.3745    1.4427   -0.0127 C.ar      1 <0>        -0.1404
     16 C13         2.4047    0.0600   -0.0196 C.ar      1 <0>        -0.0651
     17 C14         1.2294   -0.6617   -0.0122 C.ar      1 <0>        -0.1392
     18 C15         0.0021   -0.0041    0.0020 C.ar      1 <0>         0.1611
     19 N3         -1.3024   -0.5057    0.0111 N.am      1 <0>        -0.5531
     20 C16        -2.2253    0.4790    0.0261 C.2       1 <0>         0.5353
     21 O1         -3.4309    0.3463    0.0362 O.2       1 <0>        -0.4569
     22 C17        -1.6297   -1.9336    0.0043 C.3       1 <0>         0.0777
     23 H1         -3.7384    9.8836   -2.7164 H         1 <0>         0.0751
     24 H2         -5.0470    8.9944   -3.5318 H         1 <0>         0.0697
     25 H3         -5.2787    9.5950   -1.8723 H         1 <0>         0.0698
     26 H4         -4.2417    8.4766    0.0107 H         1 <0>         0.1311
     27 H5         -3.3576    6.3651    0.9102 H         1 <0>         0.1341
     28 H6         -2.7898    4.9219   -3.0881 H         1 <0>         0.1275
     29 H7         -3.6857    7.0373   -3.9670 H         1 <0>         0.1315
     30 H8         -1.7066    2.4075    2.0665 H         1 <0>         0.4426
     31 H9          1.1348    3.1845    0.0079 H         1 <0>         0.1295
     32 H10         3.2970    2.0042   -0.0194 H         1 <0>         0.1365
     33 H11         3.3529   -0.4569   -0.0305 H         1 <0>         0.1377
     34 H12         1.2611   -1.7412   -0.0178 H         1 <0>         0.1317
     35 H13        -1.7010   -2.2949    1.0302 H         1 <0>         0.0717
     36 H14        -2.5833   -2.0854   -0.5014 H         1 <0>         0.0873
     37 H15        -0.8484   -2.4830   -0.5209 H         1 <0>         0.0850
@<TRIPOS>BOND
     1    1    2 1
     2    1   23 1
     3    1   24 1
     4    1   25 1
     5    2    7 ar
     6    2    3 ar
     7    3    4 ar
     8    3   26 1
     9    4    5 ar
    10    4   27 1
    11    5    6 ar
    12    5    8 1
    13    6    7 ar
    14    6   28 1
    15    7   29 1
    16    8   12 1
    17    8    9 2
    18    9   10 1
    19   10   11 1
    20   10   30 1
    21   11   20 1
    22   11   12 1
    23   11   13 1
    24   13   18 ar
    25   13   14 ar
    26   14   15 ar
    27   14   31 1
    28   15   16 ar
    29   15   32 1
    30   16   17 ar
    31   16   33 1
    32   17   18 ar
    33   17   34 1
    34   18   19 1
    35   19   20 am
    36   19   22 1
    37   20   21 2
    38   22   35 1
    39   22   36 1
    40   22   37 1
@<TRIPOS>MOLECULE
ZINC00033902
   37    40     0     0     0
SMALL
USER_CHARGES
methyl-(p-tolyl)BLAHone
@<TRIPOS>ATOM
      1 C1          4.2448    9.3061   -2.6599 C.3       1 <0>        -0.1200
      2 C2          3.7520    7.9940   -2.1061 C.ar      1 <0>        -0.0664
      3 C3          3.6981    7.8010   -0.7371 C.ar      1 <0>        -0.1203
      4 C4          3.2476    6.6024   -0.2236 C.ar      1 <0>        -0.0717
      5 C5          2.8461    5.5831   -1.0885 C.ar      1 <0>        -0.0154
      6 C6          2.9089    5.7821   -2.4685 C.ar      1 <0>        -0.0827
      7 C7          3.3551    6.9879   -2.9689 C.ar      1 <0>        -0.1176
      8 C8          2.3622    4.2961   -0.5452 C.2       1 <0>         0.1521
      9 N1          2.2450    3.9446    0.7036 N.2       1 <0>        -0.2283
     10 N2          1.7769    2.7042    1.0968 N.pl3     1 <0>        -0.5869
     11 C9          1.4191    1.8069   -0.0018 C.3       1 <0>         0.1913
     12 S1          1.8011    2.8586   -1.4491 S.3       1 <0>        -0.1307
     13 C10        -0.0168    1.3897    0.0097 C.ar      1 <0>        -0.1548
     14 C11        -1.2125    2.0726    0.0298 C.ar      1 <0>        -0.0291
     15 C12        -2.4087    1.3777    0.0336 C.ar      1 <0>        -0.1403
     16 C13        -2.4014   -0.0053    0.0282 C.ar      1 <0>        -0.0651
     17 C14        -1.2070   -0.6948    0.0120 C.ar      1 <0>        -0.1392
     18 C15         0.0021   -0.0041    0.0020 C.ar      1 <0>         0.1611
     19 N3          1.3196   -0.4700   -0.0154 N.am      1 <0>        -0.5531
     20 C16         2.2155    0.5395   -0.0207 C.2       1 <0>         0.5354
     21 O1          3.4241    0.4397   -0.0374 O.2       1 <0>        -0.4568
     22 C17         1.6855   -1.8885   -0.0274 C.3       1 <0>         0.0777
     23 H1          5.3236    9.2560   -2.8072 H         1 <0>         0.0751
     24 H2          3.7565    9.5040   -3.6141 H         1 <0>         0.0698
     25 H3          4.0106   10.1072   -1.9588 H         1 <0>         0.0698
     26 H4          4.0091    8.5905   -0.0690 H         1 <0>         0.1311
     27 H5          3.2053    6.4532    0.8452 H         1 <0>         0.1341
     28 H6          2.6042    4.9956   -3.1431 H         1 <0>         0.1275
     29 H7          3.3992    7.1450   -4.0365 H         1 <0>         0.1315
     30 H8          1.6920    2.4490    2.0288 H         1 <0>         0.4425
     31 H9         -1.2165    3.1525    0.0346 H         1 <0>         0.1295
     32 H10        -3.3461    1.9140    0.0449 H         1 <0>         0.1365
     33 H11        -3.3352   -0.5478    0.0363 H         1 <0>         0.1377
     34 H12        -1.2094   -1.7747    0.0074 H         1 <0>         0.1317
     35 H13         1.7647   -2.2346   -1.0579 H         1 <0>         0.0721
     36 H14         2.6438   -2.0208    0.4750 H         1 <0>         0.0869
     37 H15         0.9203   -2.4655    0.4919 H         1 <0>         0.0850
@<TRIPOS>BOND
     1    1    2 1
     2    1   23 1
     3    1   24 1
     4    1   25 1
     5    2    7 ar
     6    2    3 ar
     7    3    4 ar
     8    3   26 1
     9    4    5 ar
    10    4   27 1
    11    5    6 ar
    12    5    8 1
    13    6    7 ar
    14    6   28 1
    15    7   29 1
    16    8   12 1
    17    8    9 2
    18    9   10 1
    19   10   11 1
    20   10   30 1
    21   11   20 1
    22   11   12 1
    23   11   13 1
    24   13   18 ar
    25   13   14 ar
    26   14   15 ar
    27   14   31 1
    28   15   16 ar
    29   15   32 1
    30   16   17 ar
    31   16   33 1
    32   17   18 ar
    33   17   34 1
    34   18   19 1
    35   19   20 am
    36   19   22 1
    37   20   21 2
    38   22   35 1
    39   22   36 1
    40   22   37 1
@<TRIPOS>MOLECULE
ZINC15821823
   52    55     0     0     0
SMALL
USER_CHARGES
N-[(R)-(5-chloro-8-hydroxy-7-quinolyl)-(p-tolyl)methyl]-2-phenoxy-acetamide
@<TRIPOS>ATOM
      1 C1          2.9615    2.9425   -5.3812 C.3       1 <0>        -0.1172
      2 C2          2.5141    2.6227   -3.9781 C.ar      1 <0>        -0.0793
      3 C3          2.6293    3.5743   -2.9821 C.ar      1 <0>        -0.1204
      4 C4          2.2193    3.2808   -1.6950 C.ar      1 <0>        -0.0821
      5 C5          1.6941    2.0356   -1.4039 C.ar      1 <0>        -0.1026
      6 C6          1.5837    1.0823   -2.3988 C.ar      1 <0>        -0.0994
      7 C7          1.9889    1.3776   -3.6870 C.ar      1 <0>        -0.1239
      8 C8          1.2475    1.7155   -0.0006 C.3       1 <0>         0.2440
      9 H1          1.0761    2.6425    0.5465 H         1 <0>         0.1158
     10 C9          2.3155    0.9116    0.6953 C.ar      1 <0>        -0.0985
     11 C10         2.2577   -0.4791    0.6616 C.ar      1 <0>        -0.0855
     12 C11         3.2082   -1.2346    1.2805 C.ar      1 <0>        -0.0175
     13 C12         4.2628   -0.6046    1.9633 C.ar      1 <0>        -0.0852
     14 C13         5.2632   -1.3506    2.6140 C.ar      1 <0>        -0.0568
     15 C14         6.2581   -0.6710    3.2574 C.ar      1 <0>        -0.1609
     16 C15         6.2615    0.7222    3.2559 C.ar      1 <0>         0.1373
     17 N1          5.3280    1.4134    2.6482 N.ar      1 <0>        -0.4549
     18 C16         4.3269    0.8098    2.0011 C.ar      1 <0>         0.1174
     19 C17         3.3279    1.5585    1.3444 C.ar      1 <0>         0.1661
     20 O1          3.3703    2.9165    1.3616 O.3       1 <0>        -0.4703
     21 Cl1         3.1170   -2.9673    1.2253 Cl        1 <0>        -0.0482
     22 N2          0.0057    0.9398   -0.0484 N.am      1 <0>        -0.7253
     23 C18        -1.1829    1.5732   -0.0997 C.2       1 <0>         0.5212
     24 O2         -1.2246    2.7853   -0.1014 O.2       1 <0>        -0.5011
     25 C19        -2.4601    0.7752   -0.1551 C.3       1 <0>         0.0416
     26 O3         -3.5765    1.6660   -0.2033 O.3       1 <0>        -0.2887
     27 C20        -4.8126    1.1036   -0.2569 C.ar      1 <0>         0.1264
     28 C21        -4.9479   -0.2770   -0.2686 C.ar      1 <0>        -0.2116
     29 C22        -6.2058   -0.8462   -0.3168 C.ar      1 <0>        -0.0798
     30 C23        -7.3287   -0.0410   -0.3658 C.ar      1 <0>        -0.1565
     31 C24        -7.1963    1.3353   -0.3600 C.ar      1 <0>        -0.0788
     32 C25        -5.9409    1.9093   -0.3056 C.ar      1 <0>        -0.1469
     33 H2          4.0114    2.6736   -5.4979 H         1 <0>         0.0713
     34 H3          2.3602    2.3761   -6.0923 H         1 <0>         0.0664
     35 H4          2.8367    4.0090   -5.5681 H         1 <0>         0.0675
     36 H5          3.0400    4.5469   -3.2094 H         1 <0>         0.1239
     37 H6          2.3097    4.0241   -0.9167 H         1 <0>         0.1278
     38 H7          1.1775    0.1080   -2.1704 H         1 <0>         0.1150
     39 H8          1.8992    0.6340   -4.4651 H         1 <0>         0.1216
     40 H9          1.4487   -0.9659    0.1374 H         1 <0>         0.1384
     41 H10         5.2445   -2.4304    2.6052 H         1 <0>         0.1471
     42 H11         7.0410   -1.2130    3.7670 H         1 <0>         0.1460
     43 H12         7.0542    1.2466    3.7686 H         1 <0>         0.1673
     44 H13         2.9032    3.3152    2.1085 H         1 <0>         0.3969
     45 H14         0.0390   -0.0296   -0.0470 H         1 <0>         0.4003
     46 H15        -2.4578    0.1471   -1.0459 H         1 <0>         0.0950
     47 H16        -2.5347    0.1469    0.7324 H         1 <0>         0.0952
     48 H17        -4.0708   -0.9063   -0.2353 H         1 <0>         0.1268
     49 H18        -6.3118   -1.9209   -0.3215 H         1 <0>         0.1260
     50 H19        -8.3110   -0.4879   -0.4083 H         1 <0>         0.1251
     51 H20        -8.0750    1.9620   -0.3976 H         1 <0>         0.1313
     52 H21        -5.8380    2.9844   -0.3014 H         1 <0>         0.1330
@<TRIPOS>BOND
     1    1    2 1
     2    1   33 1
     3    1   34 1
     4    1   35 1
     5    2    7 ar
     6    2    3 ar
     7    3    4 ar
     8    3   36 1
     9    4    5 ar
    10    4   37 1
    11    5    6 ar
    12    5    8 1
    13    6    7 ar
    14    6   38 1
    15    7   39 1
    16    8    9 1
    17    8   10 1
    18    8   22 1
    19   10   19 ar
    20   10   11 ar
    21   11   12 ar
    22   11   40 1
    23   12   13 ar
    24   12   21 1
    25   13   18 ar
    26   13   14 ar
    27   14   15 ar
    28   14   41 1
    29   15   16 ar
    30   15   42 1
    31   16   17 ar
    32   16   43 1
    33   17   18 ar
    34   18   19 ar
    35   19   20 1
    36   20   44 1
    37   22   23 am
    38   22   45 1
    39   23   24 2
    40   23   25 1
    41   25   26 1
    42   25   46 1
    43   25   47 1
    44   26   27 1
    45   27   32 ar
    46   27   28 ar
    47   28   29 ar
    48   28   48 1
    49   29   30 ar
    50   29   49 1
    51   30   31 ar
    52   30   50 1
    53   31   32 ar
    54   31   51 1
    55   32   52 1
@<TRIPOS>MOLECULE
ZINC15821826
   52    55     0     0     0
SMALL
USER_CHARGES
N-[(S)-(5-chloro-8-hydroxy-7-quinolyl)-(p-tolyl)methyl]-2-phenoxy-acetamide
@<TRIPOS>ATOM
      1 C1          4.5994    0.4916   -5.3703 C.3       1 <0>        -0.1180
      2 C2          4.0499    0.6295   -3.9739 C.ar      1 <0>        -0.0794
      3 C3          4.5301    1.6192   -3.1367 C.ar      1 <0>        -0.1172
      4 C4          4.0257    1.7460   -1.8560 C.ar      1 <0>        -0.0996
      5 C5          3.0414    0.8829   -1.4122 C.ar      1 <0>        -0.1035
      6 C6          2.5651   -0.1104   -2.2474 C.ar      1 <0>        -0.0978
      7 C7          3.0658   -0.2339   -3.5299 C.ar      1 <0>        -0.1197
      8 C8          2.4918    1.0208   -0.0157 C.3       1 <0>         0.2389
      9 H1          3.1968    1.5811    0.5984 H         1 <0>         0.1230
     10 C9          1.1754    1.7528   -0.0640 C.ar      1 <0>        -0.0973
     11 C10        -0.0091    1.0273   -0.1597 C.ar      1 <0>        -0.0856
     12 C11        -1.2153    1.6595   -0.2106 C.ar      1 <0>        -0.0173
     13 C12        -1.2689    3.0629   -0.1556 C.ar      1 <0>        -0.0851
     14 C13        -2.4955    3.7515   -0.2004 C.ar      1 <0>        -0.0567
     15 C14        -2.4708    5.1161   -0.1470 C.ar      1 <0>        -0.1608
     16 C15        -1.2529    5.7859   -0.0511 C.ar      1 <0>         0.1375
     17 N1         -0.1125    5.1408   -0.0100 N.ar      1 <0>        -0.4551
     18 C16        -0.0673    3.8063   -0.0577 C.ar      1 <0>         0.1175
     19 C17         1.1628    3.1174   -0.0128 C.ar      1 <0>         0.1653
     20 O1          2.3291    3.8080    0.0814 O.3       1 <0>        -0.4714
     21 Cl1        -2.6795    0.7353   -0.3365 Cl        1 <0>        -0.0481
     22 N2          2.2898   -0.3097    0.5632 N.am      1 <0>        -0.7241
     23 C18         3.3018   -0.9258    1.2057 C.2       1 <0>         0.5209
     24 O2          4.3797   -0.3787    1.3046 O.2       1 <0>        -0.4998
     25 C19         3.0939   -2.2944    1.8012 C.3       1 <0>         0.0419
     26 O3          4.3036   -2.7317    2.4237 O.3       1 <0>        -0.2886
     27 C20         4.2864   -3.9560    3.0135 C.ar      1 <0>         0.1265
     28 C21         3.1273   -4.7182    2.9985 C.ar      1 <0>        -0.2116
     29 C22         3.1142   -5.9649    3.5934 C.ar      1 <0>        -0.0799
     30 C23         4.2513   -6.4480    4.2141 C.ar      1 <0>        -0.1567
     31 C24         5.4061   -5.6879    4.2354 C.ar      1 <0>        -0.0788
     32 C25         5.4262   -4.4431    3.6366 C.ar      1 <0>        -0.1469
     33 H2          5.4533   -0.1858   -5.3595 H         1 <0>         0.0724
     34 H3          3.8267    0.0917   -6.0270 H         1 <0>         0.0669
     35 H4          4.9156    1.4691   -5.7345 H         1 <0>         0.0678
     36 H5          5.2992    2.2935   -3.4835 H         1 <0>         0.1255
     37 H6          4.4010    2.5192   -1.2019 H         1 <0>         0.1271
     38 H7          1.7992   -0.7875   -1.8991 H         1 <0>         0.1168
     39 H8          2.6909   -1.0073   -4.1838 H         1 <0>         0.1228
     40 H9          0.0288   -0.0513   -0.1986 H         1 <0>         0.1386
     41 H10        -3.4303    3.2158   -0.2752 H         1 <0>         0.1472
     42 H11        -3.3942    5.6752   -0.1796 H         1 <0>         0.1461
     43 H12        -1.2482    6.8651   -0.0097 H         1 <0>         0.1675
     44 H13         2.7181    4.0414   -0.7726 H         1 <0>         0.3963
     45 H14         1.4277   -0.7472    0.4841 H         1 <0>         0.4000
     46 H15         2.2981   -2.2501    2.5448 H         1 <0>         0.0953
     47 H16         2.8167   -2.9951    1.0137 H         1 <0>         0.0948
     48 H17         2.2374   -4.3392    2.5180 H         1 <0>         0.1268
     49 H18         2.2134   -6.5606    3.5781 H         1 <0>         0.1259
     50 H19         4.2376   -7.4209    4.6828 H         1 <0>         0.1251
     51 H20         6.2932   -6.0678    4.7202 H         1 <0>         0.1313
     52 H21         6.3283   -3.8496    3.6538 H         1 <0>         0.1330
@<TRIPOS>BOND
     1    1    2 1
     2    1   33 1
     3    1   34 1
     4    1   35 1
     5    2    7 ar
     6    2    3 ar
     7    3    4 ar
     8    3   36 1
     9    4    5 ar
    10    4   37 1
    11    5    6 ar
    12    5    8 1
    13    6    7 ar
    14    6   38 1
    15    7   39 1
    16    8    9 1
    17    8   10 1
    18    8   22 1
    19   10   19 ar
    20   10   11 ar
    21   11   12 ar
    22   11   40 1
    23   12   13 ar
    24   12   21 1
    25   13   18 ar
    26   13   14 ar
    27   14   15 ar
    28   14   41 1
    29   15   16 ar
    30   15   42 1
    31   16   17 ar
    32   16   43 1
    33   17   18 ar
    34   18   19 ar
    35   19   20 1
    36   20   44 1
    37   22   23 am
    38   22   45 1
    39   23   24 2
    40   23   25 1
    41   25   26 1
    42   25   46 1
    43   25   47 1
    44   26   27 1
    45   27   32 ar
    46   27   28 ar
    47   28   29 ar
    48   28   48 1
    49   29   30 ar
    50   29   49 1
    51   30   31 ar
    52   30   50 1
    53   31   32 ar
    54   31   51 1
    55   32   52 1
@<TRIPOS>MOLECULE
ZINC26640858
   45    47     0     0     0
SMALL
USER_CHARGES

@<TRIPOS>ATOM
      1 C1         -0.0167    1.3781    0.0096 C.ar      1 <0>        -0.1307
      2 C2          1.1709    2.0855    0.0021 C.ar      1 <0>        -0.1152
      3 C3          2.3773    1.4107   -0.0130 C.ar      1 <0>        -0.1177
      4 C4          2.3960    0.0285   -0.0201 C.ar      1 <0>        -0.0638
      5 C5          1.2084   -0.6789   -0.0117 C.ar      1 <0>        -0.1172
      6 C6          0.0021   -0.0041    0.0020 C.ar      1 <0>        -0.1196
      7 C7          3.7112   -0.7071   -0.0376 C.3       1 <0>        -0.0752
      8 C8          4.1714   -0.9633    1.3989 C.3       1 <0>         0.0963
      9 H1          4.2087   -0.0191    1.9423 H         1 <0>         0.0752
     10 C9          5.5425   -1.5884    1.3832 C.2       1 <0>         0.4899
     11 O1          6.5098   -0.9278    1.0449 O.co2     1 <0>        -0.6954
     12 O2          5.6845   -2.7547    1.7088 O.co2     1 <0>        -0.6743
     13 N1          3.2289   -1.8699    2.0593 N.pl3     1 <0>        -1.0793
     14 S1          2.8971   -1.6886    3.6716 S.o2      1 <0>         2.6898
     15 O3          1.9415   -2.6862    4.0043 O.2       1 <0>        -0.9744
     16 O4          4.1495   -1.5821    4.3344 O.2       1 <0>        -0.9437
     17 C10         2.0907   -0.1341    3.8659 C.ar      1 <0>        -0.6654
     18 C11         2.8390    1.0065    4.0953 C.ar      1 <0>        -0.0139
     19 C12         2.2125    2.2266    4.2487 C.ar      1 <0>        -0.1284
     20 C13         0.8236    2.3083    4.1717 C.ar      1 <0>        -0.0006
     21 C14         0.0748    1.1563    3.9400 C.ar      1 <0>        -0.1280
     22 C15         0.7121   -0.0578    3.7829 C.ar      1 <0>        -0.0103
     23 C16         0.1444    3.6173    4.3364 C.ar      1 <0>        -0.0416
     24 C17         0.8938    4.7701    4.5628 C.ar      1 <0>        -0.0932
     25 C18         0.2576    5.9851    4.7148 C.ar      1 <0>        -0.1079
     26 C19        -1.1229    6.0599    4.6431 C.ar      1 <0>        -0.0329
     27 C20        -1.8719    4.9174    4.4188 C.ar      1 <0>        -0.1088
     28 C21        -1.2445    3.6987    4.2593 C.ar      1 <0>        -0.0934
     29 Cl1        -1.9175    7.5913    4.8357 Cl        1 <0>        -0.0715
     30 H2         -0.9591    1.9053    0.0259 H         1 <0>         0.1121
     31 H3          1.1563    3.1654    0.0076 H         1 <0>         0.1133
     32 H4          3.3051    1.9634   -0.0196 H         1 <0>         0.1202
     33 H5          1.2231   -1.7588   -0.0176 H         1 <0>         0.1195
     34 H6         -0.9258   -0.5567    0.0082 H         1 <0>         0.1157
     35 H7          3.5884   -1.6586   -0.5549 H         1 <0>         0.0761
     36 H8          4.4573   -0.1052   -0.5563 H         1 <0>         0.0898
     37 H9          2.7992   -2.5763    1.5522 H         1 <0>         0.4122
     38 H10         3.9154    0.9420    4.1548 H         1 <0>         0.1434
     39 H11         2.7976    3.1164    4.4285 H         1 <0>         0.1325
     40 H12        -1.0019    1.2140    3.8794 H         1 <0>         0.1301
     41 H13         0.1330   -0.9507    3.5989 H         1 <0>         0.1387
     42 H14         1.9708    4.7126    4.6196 H         1 <0>         0.1383
     43 H15         0.8376    6.8791    4.8903 H         1 <0>         0.1364
     44 H16        -2.9486    4.9808    4.3640 H         1 <0>         0.1357
     45 H17        -1.8294    2.8087    4.0795 H         1 <0>         0.1368
@<TRIPOS>BOND
     1    1    6 ar
     2    1    2 ar
     3    1   30 1
     4    2    3 ar
     5    2   31 1
     6    3    4 ar
     7    3   32 1
     8    4    5 ar
     9    4    7 1
    10    5    6 ar
    11    5   33 1
    12    6   34 1
    13    7    8 1
    14    7   35 1
    15    7   36 1
    16    8    9 1
    17    8   10 1
    18    8   13 1
    19   10   11 2
    20   10   12 1
    21   13   14 1
    22   13   37 1
    23   14   15 2
    24   14   16 2
    25   14   17 1
    26   17   22 ar
    27   17   18 ar
    28   18   19 ar
    29   18   38 1
    30   19   20 ar
    31   19   39 1
    32   20   21 ar
    33   20   23 1
    34   21   22 ar
    35   21   40 1
    36   22   41 1
    37   23   28 ar
    38   23   24 ar
    39   24   25 ar
    40   24   42 1
    41   25   26 ar
    42   25   43 1
    43   26   27 ar
    44   26   29 1
    45   27   28 ar
    46   27   44 1
    47   28   45 1
@<TRIPOS>MOLECULE
ZINC01169969
   53    56     0     0     0
SMALL
USER_CHARGES
N-[(S)-(5-chloro-8-hydroxy-7-quinolyl)-(4-methoxyphenyl)methyl]-2-phenoxy-acetamide
@<TRIPOS>ATOM
      1 C1          3.9674   -0.0647   -6.1573 C.3       1 <0>         0.0230
      2 O1          4.5303    0.8991   -5.2649 O.3       1 <0>        -0.3164
      3 C2          4.0380    0.9289   -3.9986 C.ar      1 <0>         0.1325
      4 C3          4.5388    1.8397   -3.0797 C.ar      1 <0>        -0.1490
      5 C4          4.0370    1.8676   -1.7929 C.ar      1 <0>        -0.0504
      6 C5          3.0370    0.9885   -1.4203 C.ar      1 <0>        -0.1249
      7 C6          2.5402    0.0760   -2.3326 C.ar      1 <0>        -0.0712
      8 C7          3.0343    0.0482   -3.6224 C.ar      1 <0>        -0.2061
      9 C8          2.4918    1.0208   -0.0157 C.3       1 <0>         0.2572
     10 H1          3.2162    1.4953    0.6626 H         1 <0>         0.1134
     11 C9          1.1893    1.7787    0.0003 C.ar      1 <0>        -0.1329
     12 C10        -0.0126    1.0758    0.0080 C.ar      1 <0>        -0.0422
     13 C11        -1.2072    1.7315    0.0172 C.ar      1 <0>        -0.0645
     14 C12        -1.2302    3.1367    0.0297 C.ar      1 <0>        -0.0615
     15 C13        -2.4437    3.8494    0.0446 C.ar      1 <0>        -0.0607
     16 C14        -2.3895    5.2142    0.0513 C.ar      1 <0>        -0.1587
     17 C15        -1.1554    5.8608    0.0435 C.ar      1 <0>         0.1315
     18 N1         -0.0273    5.1932    0.0292 N.ar      1 <0>        -0.4722
     19 C16        -0.0108    3.8572    0.0224 C.ar      1 <0>         0.0696
     20 C17         1.2061    3.1441    0.0074 C.ar      1 <0>         0.2164
     21 O2          2.3891    3.8125    0.0006 O.3       1 <0>        -0.4859
     22 Cl1        -2.6938    0.8350    0.0201 Cl        1 <0>        -0.0598
     23 N2          2.2656   -0.3490    0.4519 N.am      1 <0>        -0.7370
     24 C18         2.2729   -0.6202    1.7721 C.2       1 <0>         0.5192
     25 O3          2.4668    0.2697    2.5729 O.2       1 <0>        -0.5059
     26 C19         2.0401   -2.0293    2.2531 C.3       1 <0>         0.0390
     27 O4          2.0952   -2.0604    3.6807 O.3       1 <0>        -0.2887
     28 C20         1.9041   -3.2654    4.2794 C.ar      1 <0>         0.1272
     29 C21         1.6628   -4.3936    3.5089 C.ar      1 <0>        -0.2114
     30 C22         1.4751   -5.6184    4.1196 C.ar      1 <0>        -0.0800
     31 C23         1.5152   -5.7183    5.4980 C.ar      1 <0>        -0.1572
     32 C24         1.7498   -4.5944    6.2684 C.ar      1 <0>        -0.0789
     33 C25         1.9443   -3.3684    5.6623 C.ar      1 <0>        -0.1476
     34 H2          4.4528    0.0189   -7.1409 H         1 <0>         0.1031
     35 H3          2.8884    0.1206   -6.2639 H         1 <0>         0.0570
     36 H4          4.1278   -1.0754   -5.7540 H         1 <0>         0.0574
     37 H5          5.3199    2.5266   -3.3702 H         1 <0>         0.1335
     38 H6          4.4265    2.5765   -1.0772 H         1 <0>         0.1368
     39 H7          1.7624   -0.6128   -2.0378 H         1 <0>         0.1221
     40 H8          2.6431   -0.6621   -4.3358 H         1 <0>         0.1300
     41 H9          0.0021   -0.0041    0.0020 H         1 <0>         0.1379
     42 H10        -3.3914    3.3316    0.0501 H         1 <0>         0.1454
     43 H11        -3.3022    5.7915    0.0624 H         1 <0>         0.1443
     44 H12        -1.1274    6.9404    0.0490 H         1 <0>         0.1665
     45 H13         2.3994    4.9124    0.0063 H         1 <0>         0.4485
     46 H14         2.0898   -1.1561   -0.2745 H         1 <0>         0.4206
     47 H15         1.0507   -2.3728    1.9167 H         1 <0>         0.0944
     48 H16         2.8171   -2.6903    1.8416 H         1 <0>         0.0957
     49 H17         1.6266   -4.3152    2.4323 H         1 <0>         0.1270
     50 H18         1.2916   -6.4978    3.5200 H         1 <0>         0.1257
     51 H19         1.3634   -6.6759    5.9738 H         1 <0>         0.1248
     52 H20         1.7814   -4.6751    7.3449 H         1 <0>         0.1309
     53 H21         2.1272   -2.4907    6.2645 H         1 <0>         0.1325
@<TRIPOS>BOND
     1    1    2 1
     2    1   34 1
     3    1   35 1
     4    1   36 1
     5    2    3 1
     6    3    8 ar
     7    3    4 ar
     8    4    5 ar
     9    4   37 1
    10    5    6 ar
    11    5   38 1
    12    6    7 ar
    13    6    9 1
    14    7    8 ar
    15    7   39 1
    16    8   40 1
    17    9   10 1
    18    9   11 1
    19    9   23 1
    20   11   20 ar
    21   11   12 ar
    22   12   13 ar
    23   12   41 1
    24   13   14 ar
    25   13   22 1
    26   14   19 ar
    27   14   15 ar
    28   15   16 ar
    29   15   42 1
    30   16   17 ar
    31   16   43 1
    32   17   18 ar
    33   17   44 1
    34   18   19 ar
    35   19   20 ar
    36   20   21 1
    37   21   45 1
    38   23   24 am
    39   23   46 1
    40   24   25 2
    41   24   26 1
    42   26   27 1
    43   26   47 1
    44   26   48 1
    45   27   28 1
    46   28   33 ar
    47   28   29 ar
    48   29   30 ar
    49   29   49 1
    50   30   31 ar
    51   30   50 1
    52   31   32 ar
    53   31   51 1
    54   32   33 ar
    55   32   52 1
    56   33   53 1
@<TRIPOS>MOLECULE
ZINC01169970
   53    56     0     0     0
SMALL
USER_CHARGES
N-[(R)-(5-chloro-8-hydroxy-7-quinolyl)-(4-methoxyphenyl)methyl]-2-phenoxy-acetamide
@<TRIPOS>ATOM
      1 C1          5.3129   -2.8345   -1.9614 C.3       1 <0>         0.0229
      2 O1          5.3025   -1.4462   -2.2996 O.3       1 <0>        -0.3163
      3 C2          4.3238   -0.6834   -1.7454 C.ar      1 <0>         0.1326
      4 C3          4.2542    0.6725   -2.0305 C.ar      1 <0>        -0.1486
      5 C4          3.2586    1.4458   -1.4655 C.ar      1 <0>        -0.0524
      6 C5          2.3323    0.8695   -0.6160 C.ar      1 <0>        -0.1251
      7 C6          2.4028   -0.4805   -0.3258 C.ar      1 <0>        -0.0712
      8 C7          3.3928   -1.2593   -0.8931 C.ar      1 <0>        -0.2056
      9 C8          1.2475    1.7155   -0.0006 C.3       1 <0>         0.2565
     10 H1          1.0943    2.6287   -0.5945 H         1 <0>         0.1143
     11 C9          1.6293    2.0714    1.4131 C.ar      1 <0>        -0.1333
     12 C10         1.1618    1.2901    2.4666 C.ar      1 <0>        -0.0419
     13 C11         1.4893    1.5850    3.7561 C.ar      1 <0>        -0.0647
     14 C12         2.3101    2.6925    4.0302 C.ar      1 <0>        -0.0614
     15 C13         2.6703    3.0286    5.3486 C.ar      1 <0>        -0.0608
     16 C14         3.4713    4.1182    5.5399 C.ar      1 <0>        -0.1585
     17 C15         3.9073    4.8611    4.4448 C.ar      1 <0>         0.1315
     18 N1          3.5698    4.5444    3.2183 N.ar      1 <0>        -0.4721
     19 C16         2.7886    3.4910    2.9628 C.ar      1 <0>         0.0696
     20 C17         2.4328    3.1518    1.6407 C.ar      1 <0>         0.2171
     21 O2          2.8837    3.8989    0.5992 O.3       1 <0>        -0.4861
     22 Cl1         0.8958    0.5970    5.0542 Cl        1 <0>        -0.0597
     23 N2         -0.0111    0.9658    0.0074 N.am      1 <0>        -0.7365
     24 C18        -1.1873    1.6238    0.0165 C.2       1 <0>         0.5195
     25 O3         -1.2037    2.8365    0.0232 O.2       1 <0>        -0.5062
     26 C19        -2.4820    0.8526    0.0185 C.3       1 <0>         0.0391
     27 O4         -3.5807    1.7664    0.0286 O.3       1 <0>        -0.2888
     28 C20        -4.8293    1.2299    0.0316 C.ar      1 <0>         0.1273
     29 C21        -4.9938   -0.1476    0.0192 C.ar      1 <0>        -0.2115
     30 C22        -6.2641   -0.6904    0.0286 C.ar      1 <0>        -0.0800
     31 C23        -7.3711    0.1379    0.0379 C.ar      1 <0>        -0.1573
     32 C24        -7.2099    1.5111    0.0445 C.ar      1 <0>        -0.0789
     33 C25        -5.9417    2.0589    0.0414 C.ar      1 <0>        -0.1477
     34 H2          6.1500   -3.3306   -2.4744 H         1 <0>         0.1031
     35 H3          4.3650   -3.2956   -2.2759 H         1 <0>         0.0575
     36 H4          5.4317   -2.9460   -0.8735 H         1 <0>         0.0571
     37 H5          4.9779    1.1232   -2.6934 H         1 <0>         0.1336
     38 H6          3.2040    2.5013   -1.6872 H         1 <0>         0.1365
     39 H7          1.6810   -0.9273    0.3418 H         1 <0>         0.1221
     40 H8          3.4447   -2.3147   -0.6698 H         1 <0>         0.1303
     41 H9          0.5312    0.4383    2.2588 H         1 <0>         0.1376
     42 H10         2.3227    2.4414    6.1858 H         1 <0>         0.1454
     43 H11         3.7661    4.4039    6.5388 H         1 <0>         0.1444
     44 H12         4.5403    5.7203    4.6107 H         1 <0>         0.1665
     45 H13         3.5308    4.7686    0.7857 H         1 <0>         0.4488
     46 H14         0.0039   -0.1341    0.0060 H         1 <0>         0.4202
     47 H15        -2.5359    0.2243   -0.8828 H         1 <0>         0.0956
     48 H16        -2.5274    0.2146    0.9134 H         1 <0>         0.0944
     49 H17        -4.1294   -0.7950    0.0070 H         1 <0>         0.1270
     50 H18        -6.3926   -1.7628    0.0234 H         1 <0>         0.1257
     51 H19        -8.3634   -0.2884    0.0403 H         1 <0>         0.1248
     52 H20        -8.0762    2.1560    0.0525 H         1 <0>         0.1309
     53 H21        -5.8163    3.1316    0.0463 H         1 <0>         0.1325
@<TRIPOS>BOND
     1    1    2 1
     2    1   34 1
     3    1   35 1
     4    1   36 1
     5    2    3 1
     6    3    8 ar
     7    3    4 ar
     8    4    5 ar
     9    4   37 1
    10    5    6 ar
    11    5   38 1
    12    6    7 ar
    13    6    9 1
    14    7    8 ar
    15    7   39 1
    16    8   40 1
    17    9   10 1
    18    9   11 1
    19    9   23 1
    20   11   20 ar
    21   11   12 ar
    22   12   13 ar
    23   12   41 1
    24   13   14 ar
    25   13   22 1
    26   14   19 ar
    27   14   15 ar
    28   15   16 ar
    29   15   42 1
    30   16   17 ar
    31   16   43 1
    32   17   18 ar
    33   17   44 1
    34   18   19 ar
    35   19   20 ar
    36   20   21 1
    37   21   45 1
    38   23   24 am
    39   23   46 1
    40   24   25 2
    41   24   26 1
    42   26   27 1
    43   26   47 1
    44   26   48 1
    45   27   28 1
    46   28   33 ar
    47   28   29 ar
    48   29   30 ar
    49   29   49 1
    50   30   31 ar
    51   30   50 1
    52   31   32 ar
    53   31   51 1
    54   32   33 ar
    55   32   52 1
    56   33   53 1
@<TRIPOS>MOLECULE
ZINC01170061
   49    52     0     0     0
SMALL
USER_CHARGES

@<TRIPOS>ATOM
      1 C1          0.5970    1.7968   -1.6789 C.ar      1 <0>        -0.1563
      2 C2          1.8305    2.4132   -1.5780 C.ar      1 <0>        -0.0787
      3 C3          2.9615    1.6607   -1.3270 C.ar      1 <0>        -0.1466
      4 C4          2.8588    0.2855   -1.1758 C.ar      1 <0>         0.1262
      5 C5          1.6198   -0.3305   -1.2770 C.ar      1 <0>        -0.2115
      6 C6          0.4919    0.4264   -1.5285 C.ar      1 <0>        -0.0798
      7 O1          3.9700   -0.4571   -0.9293 O.3       1 <0>        -0.2887
      8 C7          3.7890   -1.8672   -0.7848 C.3       1 <0>         0.0418
      9 C8          5.1209   -2.5198   -0.5180 C.2       1 <0>         0.5211
     10 O2          6.1261   -1.8439   -0.4575 O.2       1 <0>        -0.4987
     11 N1          5.1951   -3.8546   -0.3466 N.am      1 <0>        -0.7249
     12 C9          6.4899   -4.4890   -0.0872 C.3       1 <0>         0.2384
     13 H1          7.2742   -3.9404   -0.6088 H         1 <0>         0.1262
     14 C10         6.7677   -4.4763    1.3939 C.ar      1 <0>        -0.0934
     15 C11         5.7477   -4.7345    2.2905 C.ar      1 <0>        -0.0902
     16 C12         6.0019   -4.7230    3.6490 C.ar      1 <0>        -0.1083
     17 C13         7.2776   -4.4531    4.1115 C.ar      1 <0>        -0.0300
     18 C14         8.2981   -4.1948    3.2137 C.ar      1 <0>        -0.1057
     19 C15         8.0438   -4.2121    1.8552 C.ar      1 <0>        -0.0917
     20 Cl1         7.5975   -4.4380    5.8177 Cl        1 <0>        -0.0655
     21 C16         6.4595   -5.9127   -0.5805 C.ar      1 <0>        -0.1002
     22 C17         5.2467   -6.5947   -0.6313 C.ar      1 <0>        -0.0866
     23 C18         5.1854   -7.8825   -1.0728 C.ar      1 <0>        -0.0162
     24 C19         6.3609   -8.5345   -1.4834 C.ar      1 <0>        -0.0846
     25 C20         6.3380   -9.8636   -1.9458 C.ar      1 <0>        -0.0567
     26 C21         7.5189  -10.4331   -2.3287 C.ar      1 <0>        -0.1599
     27 C22         8.7008   -9.6991   -2.2546 C.ar      1 <0>         0.1384
     28 N2          8.7178   -8.4613   -1.8232 N.ar      1 <0>        -0.4551
     29 C23         7.5976   -7.8460   -1.4338 C.ar      1 <0>         0.1173
     30 C24         7.6210   -6.5120   -0.9759 C.ar      1 <0>         0.1668
     31 O3          8.7942   -5.8285   -0.9239 O.3       1 <0>        -0.4713
     32 Cl2         3.6625   -8.7140   -1.1274 Cl        1 <0>        -0.0469
     33 H2         -0.2866    2.3874   -1.8710 H         1 <0>         0.1252
     34 H3          1.9100    3.4838   -1.6958 H         1 <0>         0.1314
     35 H4          3.9249    2.1425   -1.2490 H         1 <0>         0.1331
     36 H5          1.5373   -1.4010   -1.1599 H         1 <0>         0.1268
     37 H6         -0.4728   -0.0526   -1.6074 H         1 <0>         0.1260
     38 H7          3.1148   -2.0635    0.0488 H         1 <0>         0.0953
     39 H8          3.3620   -2.2745   -1.7012 H         1 <0>         0.0959
     40 H9          4.3911   -4.3952   -0.3950 H         1 <0>         0.4010
     41 H10         4.7518   -4.9449    1.9293 H         1 <0>         0.1274
     42 H11         5.2048   -4.9244    4.3493 H         1 <0>         0.1355
     43 H12         9.2940   -3.9837    3.5741 H         1 <0>         0.1380
     44 H13         8.8414   -4.0152    1.1541 H         1 <0>         0.1378
     45 H14         4.3419   -6.0962   -0.3162 H         1 <0>         0.1391
     46 H15         5.4124  -10.4178   -1.9963 H         1 <0>         0.1476
     47 H16         7.5366  -11.4514   -2.6881 H         1 <0>         0.1465
     48 H17         9.6274  -10.1621   -2.5602 H         1 <0>         0.1679
     49 H18         9.2654   -5.9194   -0.0844 H         1 <0>         0.3964
@<TRIPOS>BOND
     1    1    6 ar
     2    1    2 ar
     3    1   33 1
     4    2    3 ar
     5    2   34 1
     6    3    4 ar
     7    3   35 1
     8    4    5 ar
     9    4    7 1
    10    5    6 ar
    11    5   36 1
    12    6   37 1
    13    7    8 1
    14    8    9 1
    15    8   38 1
    16    8   39 1
    17    9   10 2
    18    9   11 am
    19   11   12 1
    20   11   40 1
    21   12   13 1
    22   12   14 1
    23   12   21 1
    24   14   19 ar
    25   14   15 ar
    26   15   16 ar
    27   15   41 1
    28   16   17 ar
    29   16   42 1
    30   17   18 ar
    31   17   20 1
    32   18   19 ar
    33   18   43 1
    34   19   44 1
    35   21   30 ar
    36   21   22 ar
    37   22   23 ar
    38   22   45 1
    39   23   24 ar
    40   23   32 1
    41   24   29 ar
    42   24   25 ar
    43   25   26 ar
    44   25   46 1
    45   26   27 ar
    46   26   47 1
    47   27   28 ar
    48   27   48 1
    49   28   29 ar
    50   29   30 ar
    51   30   31 1
    52   31   49 1
@<TRIPOS>MOLECULE
ZINC01170062
   49    52     0     0     0
SMALL
USER_CHARGES

@<TRIPOS>ATOM
      1 C1         -0.1371    1.2342   -0.4017 C.ar      1 <0>        -0.1562
      2 C2          1.0342    1.9687   -0.4130 C.ar      1 <0>        -0.0787
      3 C3          2.2554    1.3242   -0.3707 C.ar      1 <0>        -0.1467
      4 C4          2.3058   -0.0611   -0.3164 C.ar      1 <0>         0.1261
      5 C5          1.1290   -0.7958   -0.3047 C.ar      1 <0>        -0.2114
      6 C6         -0.0896   -0.1466   -0.3476 C.ar      1 <0>        -0.0798
      7 O1          3.5059   -0.6974   -0.2752 O.3       1 <0>        -0.2888
      8 C7          3.4816   -2.1252   -0.2203 C.3       1 <0>         0.0415
      9 C8          4.8936   -2.6504   -0.1804 C.2       1 <0>         0.5214
     10 O2          5.8286   -1.8782   -0.1974 O.2       1 <0>        -0.4999
     11 N1          5.1173   -3.9784   -0.1260 N.am      1 <0>        -0.7263
     12 C9          6.4899   -4.4890   -0.0872 C.3       1 <0>         0.2436
     13 H1          7.1245   -3.7846    0.4506 H         1 <0>         0.1188
     14 C10         7.0038   -4.6553   -1.4941 C.ar      1 <0>        -0.0926
     15 C11         6.1689   -5.1443   -2.4814 C.ar      1 <0>        -0.0915
     16 C12         6.6397   -5.2971   -3.7719 C.ar      1 <0>        -0.1126
     17 C13         7.9469   -4.9605   -4.0754 C.ar      1 <0>        -0.0286
     18 C14         8.7820   -4.4711   -3.0869 C.ar      1 <0>        -0.1091
     19 C15         8.3084   -4.3135   -1.7980 C.ar      1 <0>        -0.0739
     20 Cl1         8.5391   -5.1526   -5.6959 Cl        1 <0>        -0.0678
     21 C16         6.5104   -5.8217    0.6159 C.ar      1 <0>        -0.1015
     22 C17         5.3729   -6.6245    0.5966 C.ar      1 <0>        -0.0864
     23 C18         5.3594   -7.8350    1.2223 C.ar      1 <0>        -0.0165
     24 C19         6.5078   -8.2827    1.8975 C.ar      1 <0>        -0.0847
     25 C20         6.5327   -9.5270    2.5549 C.ar      1 <0>        -0.0568
     26 C21         7.6837   -9.8972    3.1903 C.ar      1 <0>        -0.1599
     27 C22         8.7897   -9.0500    3.1745 C.ar      1 <0>         0.1381
     28 N2          8.7624   -7.8918    2.5610 N.ar      1 <0>        -0.4547
     29 C23         7.6680   -7.4706    1.9207 C.ar      1 <0>         0.1172
     30 C24         7.6461   -6.2259    1.2574 C.ar      1 <0>         0.1678
     31 O3          8.7480   -5.4309    1.2610 O.3       1 <0>        -0.4709
     32 Cl2         3.9299   -8.8194    1.1860 Cl        1 <0>        -0.0471
     33 H2         -1.0909    1.7401   -0.4306 H         1 <0>         0.1252
     34 H3          0.9945    3.0471   -0.4553 H         1 <0>         0.1314
     35 H4          3.1701    1.8984   -0.3803 H         1 <0>         0.1331
     36 H5          1.1657   -1.8743   -0.2628 H         1 <0>         0.1268
     37 H6         -1.0060   -0.7180   -0.3385 H         1 <0>         0.1261
     38 H7          2.9495   -2.4453    0.6755 H         1 <0>         0.0957
     39 H8          2.9740   -2.5142   -1.1030 H         1 <0>         0.0955
     40 H9          4.3695   -4.5960   -0.1124 H         1 <0>         0.4013
     41 H10         5.1486   -5.4074   -2.2443 H         1 <0>         0.1257
     42 H11         5.9874   -5.6795   -4.5431 H         1 <0>         0.1343
     43 H12         9.8026   -4.2085   -3.3232 H         1 <0>         0.1364
     44 H13         8.9588   -3.9270   -1.0273 H         1 <0>         0.1385
     45 H14         4.4888   -6.2828    0.0788 H         1 <0>         0.1389
     46 H15         5.6657  -10.1709    2.5571 H         1 <0>         0.1475
     47 H16         7.7364  -10.8454    3.7046 H         1 <0>         0.1464
     48 H17         9.6932   -9.3553    3.6814 H         1 <0>         0.1678
     49 H18         8.7853   -4.8137    2.0045 H         1 <0>         0.3979
@<TRIPOS>BOND
     1    1    6 ar
     2    1    2 ar
     3    1   33 1
     4    2    3 ar
     5    2   34 1
     6    3    4 ar
     7    3   35 1
     8    4    5 ar
     9    4    7 1
    10    5    6 ar
    11    5   36 1
    12    6   37 1
    13    7    8 1
    14    8    9 1
    15    8   38 1
    16    8   39 1
    17    9   10 2
    18    9   11 am
    19   11   12 1
    20   11   40 1
    21   12   13 1
    22   12   14 1
    23   12   21 1
    24   14   19 ar
    25   14   15 ar
    26   15   16 ar
    27   15   41 1
    28   16   17 ar
    29   16   42 1
    30   17   18 ar
    31   17   20 1
    32   18   19 ar
    33   18   43 1
    34   19   44 1
    35   21   30 ar
    36   21   22 ar
    37   22   23 ar
    38   22   45 1
    39   23   24 ar
    40   23   32 1
    41   24   29 ar
    42   24   25 ar
    43   25   26 ar
    44   25   46 1
    45   26   27 ar
    46   26   47 1
    47   27   28 ar
    48   27   48 1
    49   28   29 ar
    50   29   30 ar
    51   30   31 1
    52   31   49 1
@<TRIPOS>MOLECULE
ZINC06457410
   49    52     0     0     0
SMALL
USER_CHARGES
N-[(R)-(5-chloro-8-hydroxy-7-quinolyl)-(2-chlorophenyl)methyl]-2-phenoxy-acetamide
@<TRIPOS>ATOM
      1 C1         -8.3273    5.3225   -5.4188 C.ar      1 <0>        -0.1568
      2 C2         -7.4700    4.5624   -6.1927 C.ar      1 <0>        -0.0789
      3 C3         -6.4404    3.8593   -5.5978 C.ar      1 <0>        -0.1471
      4 C4         -6.2671    3.9162   -4.2225 C.ar      1 <0>         0.1270
      5 C5         -7.1321    4.6750   -3.4475 C.ar      1 <0>        -0.2114
      6 C6         -8.1564    5.3812   -4.0480 C.ar      1 <0>        -0.0799
      7 O1         -5.2550    3.2254   -3.6349 O.3       1 <0>        -0.2887
      8 C7         -5.1367    3.3306   -2.2147 C.3       1 <0>         0.0427
      9 C8         -3.9675    2.5037   -1.7454 C.2       1 <0>         0.5223
     10 O2         -3.3010    1.8853   -2.5481 O.2       1 <0>        -0.5015
     11 N1         -3.6623    2.4515   -0.4337 N.am      1 <0>        -0.7156
     12 C9         -2.5257    1.6477    0.0225 C.3       1 <0>         0.2427
     13 H1         -2.4341    0.7598   -0.6031 H         1 <0>         0.1186
     14 C10        -1.2623    2.4633   -0.0750 C.ar      1 <0>        -0.0925
     15 C11        -1.3249    3.8434   -0.0268 C.ar      1 <0>        -0.0965
     16 C12        -0.1668    4.5918   -0.1215 C.ar      1 <0>        -0.1118
     17 C13         1.0556    3.9606   -0.2597 C.ar      1 <0>        -0.1020
     18 C14         1.1200    2.5808   -0.3031 C.ar      1 <0>        -0.1060
     19 C15        -0.0391    1.8310   -0.2079 C.ar      1 <0>        -0.0210
     20 Cl1         0.0410    0.0977   -0.2623 Cl        1 <0>        -0.0621
     21 C16        -2.7464    1.2326    1.4544 C.ar      1 <0>        -0.1141
     22 C17        -2.0568    1.8870    2.4717 C.ar      1 <0>        -0.0720
     23 C18        -2.2389    1.5397    3.7768 C.ar      1 <0>        -0.0253
     24 C19        -3.1249    0.4986    4.1033 C.ar      1 <0>        -0.0779
     25 C20        -3.3347    0.1071    5.4388 C.ar      1 <0>        -0.0593
     26 C21        -4.2108   -0.9123    5.6814 C.ar      1 <0>        -0.1579
     27 C22        -4.8668   -1.5323    4.6201 C.ar      1 <0>         0.1343
     28 N2         -4.6688   -1.1643    3.3776 N.ar      1 <0>        -0.4523
     29 C23        -3.8248   -0.1746    3.0723 C.ar      1 <0>         0.1120
     30 C24        -3.6154    0.2169    1.7335 C.ar      1 <0>         0.1760
     31 O3         -4.2753   -0.4132    0.7267 O.3       1 <0>        -0.4707
     32 Cl2        -1.3741    2.3738    5.0299 Cl        1 <0>        -0.0486
     33 H2         -9.1316    5.8715   -5.8858 H         1 <0>         0.1250
     34 H3         -7.6051    4.5187   -7.2634 H         1 <0>         0.1311
     35 H4         -5.7712    3.2654   -6.2027 H         1 <0>         0.1329
     36 H5         -7.0020    4.7173   -2.3763 H         1 <0>         0.1268
     37 H6         -8.8274    5.9756   -3.4456 H         1 <0>         0.1258
     38 H7         -6.0508    2.9661   -1.7460 H         1 <0>         0.0960
     39 H8         -4.9781    4.3732   -1.9395 H         1 <0>         0.0938
     40 H9         -4.1953    2.9461    0.2083 H         1 <0>         0.4045
     41 H10        -2.2795    4.3371    0.0808 H         1 <0>         0.1300
     42 H11        -0.2166    5.6702   -0.0880 H         1 <0>         0.1319
     43 H12         1.9602    4.5459   -0.3340 H         1 <0>         0.1349
     44 H13         2.0747    2.0879   -0.4118 H         1 <0>         0.1371
     45 H14        -1.3719    2.6842    2.2234 H         1 <0>         0.1461
     46 H15        -2.8172    0.5989    6.2492 H         1 <0>         0.1473
     47 H16        -4.3945   -1.2376    6.6947 H         1 <0>         0.1459
     48 H17        -5.5571   -2.3368    4.8266 H         1 <0>         0.1670
     49 H18        -3.7750   -1.1330    0.3185 H         1 <0>         0.3980
@<TRIPOS>BOND
     1    1    6 ar
     2    1    2 ar
     3    1   33 1
     4    2    3 ar
     5    2   34 1
     6    3    4 ar
     7    3   35 1
     8    4    5 ar
     9    4    7 1
    10    5    6 ar
    11    5   36 1
    12    6   37 1
    13    7    8 1
    14    8    9 1
    15    8   38 1
    16    8   39 1
    17    9   10 2
    18    9   11 am
    19   11   12 1
    20   11   40 1
    21   12   13 1
    22   12   14 1
    23   12   21 1
    24   14   19 ar
    25   14   15 ar
    26   15   16 ar
    27   15   41 1
    28   16   17 ar
    29   16   42 1
    30   17   18 ar
    31   17   43 1
    32   18   19 ar
    33   18   44 1
    34   19   20 1
    35   21   30 ar
    36   21   22 ar
    37   22   23 ar
    38   22   45 1
    39   23   24 ar
    40   23   32 1
    41   24   29 ar
    42   24   25 ar
    43   25   26 ar
    44   25   46 1
    45   26   27 ar
    46   26   47 1
    47   27   28 ar
    48   27   48 1
    49   28   29 ar
    50   29   30 ar
    51   30   31 1
    52   31   49 1
@<TRIPOS>MOLECULE
ZINC15821674
   49    52     0     0     0
SMALL
USER_CHARGES
N-[(S)-(5-chloro-8-hydroxy-7-quinolyl)-(2-chlorophenyl)methyl]-2-phenoxy-acetamide
@<TRIPOS>ATOM
      1 C1          7.4948    5.2675    5.8199 C.ar      1 <0>        -0.1563
      2 C2          6.3677    4.9161    6.5396 C.ar      1 <0>        -0.0786
      3 C3          5.1976    4.5946    5.8794 C.ar      1 <0>        -0.1466
      4 C4          5.1540    4.6245    4.4931 C.ar      1 <0>         0.1265
      5 C5          6.2878    4.9719    3.7731 C.ar      1 <0>        -0.2116
      6 C6          7.4538    5.2985    4.4382 C.ar      1 <0>        -0.0800
      7 O1          4.0041    4.3087    3.8413 O.3       1 <0>        -0.2885
      8 C7          4.0323    4.3609    2.4136 C.3       1 <0>         0.0427
      9 C8          2.6786    3.9822    1.8702 C.2       1 <0>         0.5182
     10 O2          1.7784    3.6959    2.6307 O.2       1 <0>        -0.4940
     11 N1          2.4685    3.9618    0.5391 N.am      1 <0>        -0.7236
     12 C9          1.1525    3.5937    0.0109 C.3       1 <0>         0.2379
     13 H1          0.3764    3.9517    0.6873 H         1 <0>         0.1279
     14 C10         1.0612    2.0943   -0.1099 C.ar      1 <0>        -0.0927
     15 C11         2.2088    1.3435   -0.2835 C.ar      1 <0>        -0.0973
     16 C12         2.1252   -0.0317   -0.3937 C.ar      1 <0>        -0.1132
     17 C13         0.8938   -0.6573   -0.3305 C.ar      1 <0>        -0.1019
     18 C14        -0.2541    0.0921   -0.1566 C.ar      1 <0>        -0.1067
     19 C15        -0.1711    1.4690   -0.0461 C.ar      1 <0>        -0.0211
     20 Cl1        -1.6134    2.4117    0.1653 Cl        1 <0>        -0.0566
     21 C16         0.9633    4.2194   -1.3470 C.ar      1 <0>        -0.1096
     22 C17         1.0894    3.4318   -2.4882 C.ar      1 <0>        -0.0728
     23 C18         0.9238    3.9673   -3.7303 C.ar      1 <0>        -0.0248
     24 C19         0.6215    5.3332   -3.8652 C.ar      1 <0>        -0.0782
     25 C20         0.4428    5.9223   -5.1308 C.ar      1 <0>        -0.0588
     26 C21         0.1505    7.2554   -5.1856 C.ar      1 <0>        -0.1581
     27 C22         0.0372    7.9911   -4.0079 C.ar      1 <0>         0.1350
     28 N2          0.2040    7.4384   -2.8309 N.ar      1 <0>        -0.4536
     29 C23         0.4920    6.1395   -2.7080 C.ar      1 <0>         0.1102
     30 C24         0.6653    5.5490   -1.4388 C.ar      1 <0>         0.1743
     31 O3          0.5408    6.3001   -0.3134 O.3       1 <0>        -0.4682
     32 Cl2         1.0850    2.9667   -5.1398 Cl        1 <0>        -0.0484
     33 H2          8.4086    5.5185    6.3379 H         1 <0>         0.1251
     34 H3          6.4021    4.8933    7.6188 H         1 <0>         0.1314
     35 H4          4.3176    4.3199    6.4420 H         1 <0>         0.1331
     36 H5          6.2577    4.9916    2.6937 H         1 <0>         0.1265
     37 H6          8.3355    5.5733    3.8783 H         1 <0>         0.1259
     38 H7          4.7820    3.6638    2.0393 H         1 <0>         0.0945
     39 H8          4.2832    5.3717    2.0918 H         1 <0>         0.0950
     40 H9          3.1885    4.1908   -0.0692 H         1 <0>         0.4029
     41 H10         3.1710    1.8316   -0.3326 H         1 <0>         0.1294
     42 H11         3.0221   -0.6178   -0.5297 H         1 <0>         0.1315
     43 H12         0.8291   -1.7319   -0.4168 H         1 <0>         0.1346
     44 H13        -1.2158   -0.3967   -0.1065 H         1 <0>         0.1370
     45 H14         1.3212    2.3818   -2.3876 H         1 <0>         0.1466
     46 H15         0.5347    5.3367   -6.0336 H         1 <0>         0.1474
     47 H16         0.0076    7.7387   -6.1408 H         1 <0>         0.1460
     48 H17        -0.1944    9.0443   -4.0661 H         1 <0>         0.1671
     49 H18         1.3667    6.7085   -0.0198 H         1 <0>         0.3947
@<TRIPOS>BOND
     1    1    6 ar
     2    1    2 ar
     3    1   33 1
     4    2    3 ar
     5    2   34 1
     6    3    4 ar
     7    3   35 1
     8    4    5 ar
     9    4    7 1
    10    5    6 ar
    11    5   36 1
    12    6   37 1
    13    7    8 1
    14    8    9 1
    15    8   38 1
    16    8   39 1
    17    9   10 2
    18    9   11 am
    19   11   12 1
    20   11   40 1
    21   12   13 1
    22   12   14 1
    23   12   21 1
    24   14   19 ar
    25   14   15 ar
    26   15   16 ar
    27   15   41 1
    28   16   17 ar
    29   16   42 1
    30   17   18 ar
    31   17   43 1
    32   18   19 ar
    33   18   44 1
    34   19   20 1
    35   21   30 ar
    36   21   22 ar
    37   22   23 ar
    38   22   45 1
    39   23   24 ar
    40   23   32 1
    41   24   29 ar
    42   24   25 ar
    43   25   26 ar
    44   25   46 1
    45   26   27 ar
    46   26   47 1
    47   27   28 ar
    48   27   48 1
    49   28   29 ar
    50   29   30 ar
    51   30   31 1
    52   31   49 1
@<TRIPOS>MOLECULE
ZINC01169900
   51    54     0     0     0
SMALL
USER_CHARGES

@<TRIPOS>ATOM
      1 C1          0.5970    1.7968   -1.6788 C.ar      1 <0>        -0.1553
      2 C2          1.8305    2.4132   -1.5780 C.ar      1 <0>        -0.0784
      3 C3          2.9615    1.6607   -1.3270 C.ar      1 <0>        -0.1462
      4 C4          2.8588    0.2855   -1.1757 C.ar      1 <0>         0.1251
      5 C5          1.6198   -0.3305   -1.2769 C.ar      1 <0>        -0.2113
      6 C6          0.4919    0.4264   -1.5285 C.ar      1 <0>        -0.0797
      7 O1          3.9699   -0.4571   -0.9293 O.3       1 <0>        -0.2892
      8 C7          3.7890   -1.8672   -0.7848 C.3       1 <0>         0.0419
      9 C8          5.1209   -2.5198   -0.5180 C.2       1 <0>         0.5212
     10 O2          6.1261   -1.8439   -0.4575 O.2       1 <0>        -0.4970
     11 N1          5.1951   -3.8546   -0.3466 N.am      1 <0>        -0.7260
     12 C9          6.4899   -4.4890   -0.0872 C.3       1 <0>         0.2338
     13 H1          7.2742   -3.9404   -0.6088 H         1 <0>         0.1327
     14 C10         6.7677   -4.4763    1.3939 C.ar      1 <0>        -0.0467
     15 C11         5.7479   -4.7345    2.2907 C.ar      1 <0>        -0.1028
     16 C12         6.0028   -4.7229    3.6493 C.ar      1 <0>        -0.0512
     17 C13         7.2776   -4.4536    4.1111 C.ar      1 <0>        -0.0454
     18 C14         8.2976   -4.1963    3.2142 C.ar      1 <0>        -0.0485
     19 C15         8.0437   -4.2122    1.8555 C.ar      1 <0>        -0.1041
     20 N2          7.5503   -4.4402    5.5658 N.pl3     1 <0>         0.0314
     21 O3          6.6581   -4.6648    6.3502 O.2       1 <0>        -0.1558
     22 O4          8.6652   -4.2046    5.9697 O.3       1 <0>        -0.1533
     23 C16         6.4595   -5.9127   -0.5805 C.ar      1 <0>        -0.1065
     24 C17         5.2467   -6.5947   -0.6313 C.ar      1 <0>        -0.0886
     25 C18         5.1854   -7.8825   -1.0728 C.ar      1 <0>        -0.0141
     26 C19         6.3609   -8.5345   -1.4834 C.ar      1 <0>        -0.0835
     27 C20         6.3380   -9.8636   -1.9458 C.ar      1 <0>        -0.0567
     28 C21         7.5189  -10.4331   -2.3287 C.ar      1 <0>        -0.1575
     29 C22         8.7008   -9.6991   -2.2546 C.ar      1 <0>         0.1403
     30 N3          8.7178   -8.4613   -1.8232 N.ar      1 <0>        -0.4549
     31 C23         7.5976   -7.8460   -1.4338 C.ar      1 <0>         0.1168
     32 C24         7.6210   -6.5120   -0.9759 C.ar      1 <0>         0.1697
     33 O5          8.7942   -5.8285   -0.9239 O.3       1 <0>        -0.4709
     34 Cl1         3.6625   -8.7140   -1.1274 Cl        1 <0>        -0.0437
     35 H2         -0.2866    2.3874   -1.8710 H         1 <0>         0.1258
     36 H3          1.9100    3.4838   -1.6958 H         1 <0>         0.1319
     37 H4          3.9249    2.1425   -1.2490 H         1 <0>         0.1332
     38 H5          1.5373   -1.4010   -1.1599 H         1 <0>         0.1267
     39 H6         -0.4728   -0.0527   -1.6074 H         1 <0>         0.1265
     40 H7          3.1148   -2.0635    0.0488 H         1 <0>         0.0963
     41 H8          3.3620   -2.2745   -1.7012 H         1 <0>         0.0974
     42 H9          4.3911   -4.3952   -0.3950 H         1 <0>         0.4034
     43 H10         4.7520   -4.9449    1.9299 H         1 <0>         0.1427
     44 H11         5.2059   -4.9238    4.3499 H         1 <0>         0.1561
     45 H12         9.2935   -3.9855    3.5750 H         1 <0>         0.1587
     46 H13         8.8414   -4.0148    1.1547 H         1 <0>         0.1533
     47 H14         4.3419   -6.0962   -0.3162 H         1 <0>         0.1402
     48 H15         5.4124  -10.4178   -1.9963 H         1 <0>         0.1487
     49 H16         7.5366  -11.4514   -2.6881 H         1 <0>         0.1478
     50 H17         9.6274  -10.1621   -2.5602 H         1 <0>         0.1692
     51 H18         9.2654   -5.9194   -0.0844 H         1 <0>         0.3966
@<TRIPOS>BOND
     1    1    6 ar
     2    1    2 ar
     3    1   35 1
     4    2    3 ar
     5    2   36 1
     6    3    4 ar
     7    3   37 1
     8    4    5 ar
     9    4    7 1
    10    5    6 ar
    11    5   38 1
    12    6   39 1
    13    7    8 1
    14    8    9 1
    15    8   40 1
    16    8   41 1
    17    9   10 2
    18    9   11 am
    19   11   12 1
    20   11   42 1
    21   12   13 1
    22   12   14 1
    23   12   23 1
    24   14   19 ar
    25   14   15 ar
    26   15   16 ar
    27   15   43 1
    28   16   17 ar
    29   16   44 1
    30   17   18 ar
    31   17   20 1
    32   18   19 ar
    33   18   45 1
    34   19   46 1
    35   20   21 2
    36   20   22 1
    37   23   32 ar
    38   23   24 ar
    39   24   25 ar
    40   24   47 1
    41   25   26 ar
    42   25   34 1
    43   26   31 ar
    44   26   27 ar
    45   27   28 ar
    46   27   48 1
    47   28   29 ar
    48   28   49 1
    49   29   30 ar
    50   29   50 1
    51   30   31 ar
    52   31   32 ar
    53   32   33 1
    54   33   51 1
@<TRIPOS>MOLECULE
ZINC01169901
   51    54     0     0     0
SMALL
USER_CHARGES

@<TRIPOS>ATOM
      1 C1         -0.1371    1.2342   -0.4019 C.ar      1 <0>        -0.1551
      2 C2          1.0342    1.9687   -0.4133 C.ar      1 <0>        -0.0784
      3 C3          2.2554    1.3242   -0.3710 C.ar      1 <0>        -0.1462
      4 C4          2.3058   -0.0611   -0.3166 C.ar      1 <0>         0.1250
      5 C5          1.1290   -0.7958   -0.3048 C.ar      1 <0>        -0.2112
      6 C6         -0.0896   -0.1466   -0.3477 C.ar      1 <0>        -0.0797
      7 O1          3.5059   -0.6974   -0.2754 O.3       1 <0>        -0.2893
      8 C7          3.4816   -2.1252   -0.2204 C.3       1 <0>         0.0416
      9 C8          4.8936   -2.6504   -0.1805 C.2       1 <0>         0.5215
     10 O2          5.8286   -1.8782   -0.1976 O.2       1 <0>        -0.4983
     11 N1          5.1173   -3.9784   -0.1259 N.am      1 <0>        -0.7274
     12 C9          6.4899   -4.4890   -0.0872 C.3       1 <0>         0.2390
     13 H1          7.1245   -3.7846    0.4506 H         1 <0>         0.1253
     14 C10         7.0038   -4.6553   -1.4941 C.ar      1 <0>        -0.0457
     15 C11         6.1692   -5.1443   -2.4816 C.ar      1 <0>        -0.1043
     16 C12         6.6406   -5.2968   -3.7721 C.ar      1 <0>        -0.0554
     17 C13         7.9466   -4.9600   -4.0751 C.ar      1 <0>        -0.0447
     18 C14         8.7810   -4.4702   -3.0878 C.ar      1 <0>        -0.0518
     19 C15         8.3083   -4.3136   -1.7983 C.ar      1 <0>        -0.0864
     20 N2          8.4517   -5.1243   -5.4568 N.pl3     1 <0>         0.0322
     21 O3          7.7221   -5.5530   -6.3201 O.2       1 <0>        -0.1572
     22 O4          9.5939   -4.8297   -5.7218 O.3       1 <0>        -0.1547
     23 C16         6.5104   -5.8217    0.6159 C.ar      1 <0>        -0.1079
     24 C17         5.3729   -6.6245    0.5966 C.ar      1 <0>        -0.0884
     25 C18         5.3594   -7.8350    1.2223 C.ar      1 <0>        -0.0146
     26 C19         6.5078   -8.2827    1.8975 C.ar      1 <0>        -0.0836
     27 C20         6.5327   -9.5270    2.5549 C.ar      1 <0>        -0.0568
     28 C21         7.6837   -9.8972    3.1903 C.ar      1 <0>        -0.1576
     29 C22         8.7897   -9.0500    3.1745 C.ar      1 <0>         0.1399
     30 N3          8.7624   -7.8918    2.5610 N.ar      1 <0>        -0.4546
     31 C23         7.6680   -7.4706    1.9207 C.ar      1 <0>         0.1166
     32 C24         7.6461   -6.2259    1.2574 C.ar      1 <0>         0.1709
     33 O5          8.7480   -5.4309    1.2610 O.3       1 <0>        -0.4723
     34 Cl1         3.9299   -8.8194    1.1860 Cl        1 <0>        -0.0440
     35 H2         -1.0909    1.7401   -0.4308 H         1 <0>         0.1258
     36 H3          0.9945    3.0471   -0.4557 H         1 <0>         0.1319
     37 H4          3.1701    1.8984   -0.3807 H         1 <0>         0.1331
     38 H5          1.1657   -1.8743   -0.2628 H         1 <0>         0.1267
     39 H6         -1.0060   -0.7180   -0.3386 H         1 <0>         0.1265
     40 H7          2.9495   -2.4452    0.6755 H         1 <0>         0.0973
     41 H8          2.9740   -2.5142   -1.1030 H         1 <0>         0.0964
     42 H9          4.3695   -4.5960   -0.1123 H         1 <0>         0.4037
     43 H10         5.1488   -5.4074   -2.2448 H         1 <0>         0.1411
     44 H11         5.9887   -5.6795   -4.5434 H         1 <0>         0.1550
     45 H12         9.8014   -4.2074   -3.3246 H         1 <0>         0.1571
     46 H13         8.9591   -3.9274   -1.0278 H         1 <0>         0.1539
     47 H14         4.4888   -6.2828    0.0788 H         1 <0>         0.1399
     48 H15         5.6657  -10.1709    2.5571 H         1 <0>         0.1485
     49 H16         7.7364  -10.8454    3.7046 H         1 <0>         0.1477
     50 H17         9.6932   -9.3553    3.6814 H         1 <0>         0.1690
     51 H18         8.7853   -4.8137    2.0045 H         1 <0>         0.4000
@<TRIPOS>BOND
     1    1    6 ar
     2    1    2 ar
     3    1   35 1
     4    2    3 ar
     5    2   36 1
     6    3    4 ar
     7    3   37 1
     8    4    5 ar
     9    4    7 1
    10    5    6 ar
    11    5   38 1
    12    6   39 1
    13    7    8 1
    14    8    9 1
    15    8   40 1
    16    8   41 1
    17    9   10 2
    18    9   11 am
    19   11   12 1
    20   11   42 1
    21   12   13 1
    22   12   14 1
    23   12   23 1
    24   14   19 ar
    25   14   15 ar
    26   15   16 ar
    27   15   43 1
    28   16   17 ar
    29   16   44 1
    30   17   18 ar
    31   17   20 1
    32   18   19 ar
    33   18   45 1
    34   19   46 1
    35   20   21 2
    36   20   22 1
    37   23   32 ar
    38   23   24 ar
    39   24   25 ar
    40   24   47 1
    41   25   26 ar
    42   25   34 1
    43   26   31 ar
    44   26   27 ar
    45   27   28 ar
    46   27   48 1
    47   28   29 ar
    48   28   49 1
    49   29   30 ar
    50   29   50 1
    51   30   31 ar
    52   31   32 ar
    53   32   33 1
    54   33   51 1
