@<TRIPOS>MOLECULE
ZINC34633957
   32    35     0     0     0
SMALL
USER_CHARGES

@<TRIPOS>ATOM
      1 C1         -0.0143    1.3784   -0.0483 C.ar      1 <0>        -0.1488
      2 C2          1.1681    2.0822    0.1079 C.ar      1 <0>        -0.0588
      3 C3          2.3771    1.4200    0.1651 C.ar      1 <0>        -0.1422
      4 C4          2.4194    0.0321    0.0663 C.ar      1 <0>         0.1618
      5 C5          1.2217   -0.6754   -0.0911 C.ar      1 <0>        -0.1625
      6 C6          0.0080    0.0019   -0.1480 C.ar      1 <0>        -0.0260
      7 C7          1.5787   -2.1121   -0.1655 C.2       1 <0>         0.1803
      8 N1          0.7682   -3.1254   -0.3117 N.2       1 <0>        -0.2625
      9 O1         -0.6268   -2.9066   -0.4182 O.3       1 <0>        -0.3794
     10 C8          3.0518   -2.1494   -0.0386 C.2       1 <0>         0.3106
     11 C9          3.8487   -3.2858   -0.0526 C.2       1 <0>        -0.2144
     12 C10         3.4076   -4.6940    0.0398 C.ar      1 <0>        -0.0494
     13 C11         2.1588   -5.2966    0.1617 C.ar      1 <0>        -0.1198
     14 C12         2.0666   -6.6738    0.2263 C.ar      1 <0>         0.0771
     15 C13         3.2147   -7.4503    0.1703 C.ar      1 <0>        -0.1208
     16 C14         4.4567   -6.8608    0.0496 C.ar      1 <0>        -0.1076
     17 C15         4.5692   -5.4766   -0.0174 C.ar      1 <0>         0.1283
     18 N2          5.6750   -4.6423   -0.1374 N.am      1 <0>        -0.6463
     19 C16         5.3104   -3.3492   -0.1688 C.2       1 <0>         0.5709
     20 O2          6.0621   -2.3960   -0.2723 O.2       1 <0>        -0.5204
     21 F1          0.8574   -7.2646    0.3445 F         1 <0>        -0.1377
     22 N3          3.4857   -0.8575    0.0946 N.pl3     1 <0>        -0.6144
     23 H1         -0.9554    1.9068   -0.0877 H         1 <0>         0.1365
     24 H2          1.1436    3.1591    0.1854 H         1 <0>         0.1384
     25 H3          3.2928    1.9796    0.2865 H         1 <0>         0.1352
     26 H4         -0.9139   -0.5475   -0.2695 H         1 <0>         0.1392
     27 H5         -1.1450   -3.7162   -0.5237 H         1 <0>         0.4151
     28 H6          1.2660   -4.6905    0.2058 H         1 <0>         0.1753
     29 H7          3.1360   -8.5262    0.2221 H         1 <0>         0.1430
     30 H8          5.3433   -7.4761    0.0070 H         1 <0>         0.1384
     31 H9          6.5918   -4.9538   -0.1952 H         1 <0>         0.4210
     32 H10         4.4148   -0.5979    0.1954 H         1 <0>         0.4399
@<TRIPOS>BOND
     1    1    6 ar
     2    1    2 ar
     3    1   23 1
     4    2    3 ar
     5    2   24 1
     6    3    4 ar
     7    3   25 1
     8    4   22 1
     9    4    5 ar
    10    5    6 ar
    11    5    7 1
    12    6   26 1
    13    7    8 2
    14    7   10 1
    15    8    9 1
    16    9   27 1
    17   10   11 2
    18   10   22 1
    19   11   19 1
    20   11   12 1
    21   12   17 ar
    22   12   13 ar
    23   13   14 ar
    24   13   28 1
    25   14   15 ar
    26   14   21 1
    27   15   16 ar
    28   15   29 1
    29   16   17 ar
    30   16   30 1
    31   17   18 1
    32   18   19 am
    33   18   31 1
    34   19   20 2
    35   22   32 1
@<TRIPOS>MOLECULE
ZINC43170519
   72    76     0     0     0
SMALL
USER_CHARGES

@<TRIPOS>ATOM
      1 C1          0.2065    1.9793   -0.0342 C.3       1 <0>        -0.1665
      2 C2         -0.0710    0.4975    0.2268 C.3       1 <0>         0.1267
      3 N1          0.6656   -0.3156   -0.7441 N.pl3     1 <0>        -0.3596
      4 C3          1.5251   -1.3103   -0.4474 C.2       1 <0>         0.0834
      5 C4          1.9992   -1.8173   -1.6224 C.2       1 <0>        -0.2084
      6 C5          1.3909   -1.0872   -2.6763 C.2       1 <0>         0.1396
      7 N2          0.5906   -0.1944   -2.1367 N.2       1 <0>        -0.2737
      8 C6          1.6135   -1.2974   -4.1269 C.ar      1 <0>        -0.0306
      9 C7          1.6870   -2.5911   -4.6418 C.ar      1 <0>        -0.0653
     10 C8          1.8936   -2.7840   -5.9912 C.ar      1 <0>        -0.1479
     11 C9          2.0291   -1.6904   -6.8379 C.ar      1 <0>         0.1764
     12 C10         1.9568   -0.4000   -6.3271 C.ar      1 <0>        -0.1210
     13 C11         1.7441   -0.2018   -4.9794 C.ar      1 <0>        -0.0692
     14 N3          2.2392   -1.8888   -8.2064 N.am      1 <0>        -0.6868
     15 C12         1.7319   -1.0162   -9.0995 C.2       1 <0>         0.7025
     16 O1          1.0144   -0.1094   -8.7235 O.2       1 <0>        -0.5649
     17 N4          2.0199   -1.1486  -10.4095 N.am      1 <0>        -0.6331
     18 C13         1.4684   -0.2001  -11.3803 C.3       1 <0>         0.0998
     19 C14         2.8843   -2.2412  -10.8626 C.3       1 <0>         0.0747
     20 C15         2.9696   -2.9253   -1.7705 C.ar      1 <0>         0.1046
     21 C16         2.6505   -4.2210   -1.3636 C.ar      1 <0>        -0.1961
     22 C17         3.5843   -5.2284   -1.5193 C.ar      1 <0>         0.1572
     23 N5          4.7712   -4.9970   -2.0426 N.ar      1 <0>        -0.5068
     24 C18         5.1367   -3.7881   -2.4493 C.ar      1 <0>         0.3000
     25 C19         4.2446   -2.7061   -2.3328 C.ar      1 <0>        -0.1366
     26 C20         4.9036   -1.5649   -2.8480 C.2       1 <0>        -0.1235
     27 C21         6.1360   -1.9531   -3.2596 C.2       1 <0>         0.0868
     28 N6          6.2920   -3.3007   -3.0153 N.pl3     1 <0>        -0.5749
     29 H1          7.0840   -3.8226   -3.2186 H         1 <0>         0.4155
     30 C22         7.1551   -1.0687   -3.8637 C.ar      1 <0>        -0.0002
     31 C23         6.8859    0.2889   -4.0459 C.ar      1 <0>        -0.0681
     32 C24         7.8411    1.1086   -4.6101 C.ar      1 <0>        -0.1012
     33 C25         9.0640    0.5879   -4.9952 C.ar      1 <0>        -0.0993
     34 C26         9.3370   -0.7566   -4.8179 C.ar      1 <0>        -0.1519
     35 C27         8.3926   -1.5862   -4.2490 C.ar      1 <0>        -0.0991
     36 C28        10.6713   -1.3151   -5.2407 C.3       1 <0>         0.0432
     37 N7         11.6166   -1.2266   -4.1197 N.4       1 <0>        -0.3867
     38 C29        12.8795   -1.8784   -4.4916 C.3       1 <0>        -0.0479
     39 C30        11.8691    0.1853   -3.8024 C.3       1 <0>        -0.0538
     40 H2          1.2746    2.1722    0.0663 H         1 <0>         0.0600
     41 H3         -0.1160    2.2372   -1.0429 H         1 <0>         0.0725
     42 H4         -0.3415    2.5843    0.6882 H         1 <0>         0.0790
     43 H5          0.2515    0.2396    1.2356 H         1 <0>         0.1000
     44 H6         -1.1390    0.3046    0.1263 H         1 <0>         0.0906
     45 H7          1.7916   -1.6461    0.5439 H         1 <0>         0.1791
     46 H8          1.5824   -3.4413   -3.9841 H         1 <0>         0.1255
     47 H9          1.9505   -3.7859   -6.3905 H         1 <0>         0.1262
     48 H10         2.0628    0.4482   -6.9871 H         1 <0>         0.1382
     49 H11         1.6832    0.8012   -4.5836 H         1 <0>         0.1279
     50 H12         2.7500   -2.6545   -8.5128 H         1 <0>         0.4060
     51 H13         2.1557    0.6373  -11.5008 H         1 <0>         0.0561
     52 H14         1.3327   -0.6996  -12.3395 H         1 <0>         0.0734
     53 H15         0.5067    0.1678  -11.0228 H         1 <0>         0.0809
     54 H16         2.2747   -3.1143  -11.0953 H         1 <0>         0.0612
     55 H17         3.4271   -1.9289  -11.7548 H         1 <0>         0.0805
     56 H18         3.5944   -2.4933  -10.0750 H         1 <0>         0.0647
     57 H19         1.6842   -4.4347   -0.9313 H         1 <0>         0.1414
     58 H20         3.3348   -6.2306   -1.2035 H         1 <0>         0.1659
     59 H21         4.4984   -0.5653   -2.9034 H         1 <0>         0.1472
     60 H22         5.9318    0.6965   -3.7460 H         1 <0>         0.1417
     61 H23         7.6340    2.1590   -4.7519 H         1 <0>         0.1419
     62 H24         9.8085    1.2340   -5.4365 H         1 <0>         0.1335
     63 H25         8.6088   -2.6347   -4.1062 H         1 <0>         0.1259
     64 H26        10.5522   -2.3580   -5.5341 H         1 <0>         0.1362
     65 H27        11.0541   -0.7416   -6.0849 H         1 <0>         0.1377
     66 H28        13.3025   -1.3801   -5.3638 H         1 <0>         0.1231
     67 H29        13.5809   -1.8128   -3.6598 H         1 <0>         0.1252
     68 H30        12.6920   -2.9261   -4.7270 H         1 <0>         0.1234
     69 H31        10.9321    0.6689   -3.5265 H         1 <0>         0.1242
     70 H32        12.5705    0.2509   -2.9706 H         1 <0>         0.1244
     71 H33        12.2922    0.6837   -4.6746 H         1 <0>         0.1229
     72 H34        11.2250   -1.6880   -3.3123 H         1 <0>         0.4260
@<TRIPOS>BOND
     1    1    2 1
     2    1   40 1
     3    1   41 1
     4    1   42 1
     5    2    3 1
     6    2   43 1
     7    2   44 1
     8    3    7 1
     9    3    4 1
    10    4    5 2
    11    4   45 1
    12    5    6 1
    13    5   20 1
    14    6    7 2
    15    6    8 1
    16    8   13 ar
    17    8    9 ar
    18    9   10 ar
    19    9   46 1
    20   10   11 ar
    21   10   47 1
    22   11   12 ar
    23   11   14 1
    24   12   13 ar
    25   12   48 1
    26   13   49 1
    27   14   15 am
    28   14   50 1
    29   15   16 2
    30   15   17 am
    31   17   18 1
    32   17   19 1
    33   18   51 1
    34   18   52 1
    35   18   53 1
    36   19   54 1
    37   19   55 1
    38   19   56 1
    39   20   25 ar
    40   20   21 ar
    41   21   22 ar
    42   21   57 1
    43   22   23 ar
    44   22   58 1
    45   23   24 ar
    46   24   28 1
    47   24   25 ar
    48   25   26 1
    49   26   27 2
    50   26   59 1
    51   27   28 1
    52   27   30 1
    53   28   29 1
    54   30   35 ar
    55   30   31 ar
    56   31   32 ar
    57   31   60 1
    58   32   33 ar
    59   32   61 1
    60   33   34 ar
    61   33   62 1
    62   34   35 ar
    63   34   36 1
    64   35   63 1
    65   36   37 1
    66   36   64 1
    67   36   65 1
    68   37   38 1
    69   37   39 1
    70   37   72 1
    71   38   66 1
    72   38   67 1
    73   38   68 1
    74   39   69 1
    75   39   70 1
    76   39   71 1
@<TRIPOS>MOLECULE
ZINC19890380
   54    58     0     0     0
SMALL
USER_CHARGES

@<TRIPOS>ATOM
      1 C1         -0.1169    1.1840    0.1384 C.ar      1 <0>        -0.1122
      2 C2          1.0272    1.9371   -0.0567 C.ar      1 <0>        -0.1136
      3 C3          2.2614    1.3223   -0.1055 C.ar      1 <0>        -0.0948
      4 C4          2.3542   -0.0620    0.0424 C.ar      1 <0>        -0.0248
      5 C5          1.1967   -0.8159    0.2389 C.ar      1 <0>        -0.1129
      6 C6         -0.0315   -0.1891    0.2857 C.ar      1 <0>        -0.1158
      7 C7          3.6750   -0.7281   -0.0094 C.2       1 <0>        -0.0862
      8 C8          4.1674   -1.6420   -1.0481 C.ar      1 <0>        -0.2788
      9 C9          3.6468   -2.1704   -2.2370 C.ar      1 <0>         0.4990
     10 N1          4.4094   -2.9987   -2.9462 N.ar      1 <0>        -0.5843
     11 C10         5.6254   -3.3149   -2.5406 C.ar      1 <0>         0.3755
     12 N2          6.1512   -2.8413   -1.4309 N.ar      1 <0>        -0.5458
     13 C11         5.4658   -2.0054   -0.6545 C.ar      1 <0>         0.3308
     14 O1          5.7338   -1.3772    0.5031 O.3       1 <0>        -0.1651
     15 C12         4.6934   -0.6157    0.8975 C.2       1 <0>         0.0808
     16 C13         4.6574    0.2089    2.1201 C.ar      1 <0>        -0.0296
     17 C14         3.5520    0.1518    2.9729 C.ar      1 <0>        -0.0798
     18 C15         3.5252    0.9257    4.1142 C.ar      1 <0>        -0.1182
     19 C16         4.5895    1.7572    4.4156 C.ar      1 <0>        -0.1016
     20 C17         5.6876    1.8189    3.5756 C.ar      1 <0>        -0.1192
     21 C18         5.7308    1.0465    2.4338 C.ar      1 <0>        -0.0893
     22 N3          2.3729   -1.8399   -2.6622 N.pl3     1 <0>        -0.6985
     23 C19         1.8473   -2.4033   -3.9082 C.3       1 <0>         0.1282
     24 C20         0.4289   -1.8811   -4.1456 C.3       1 <0>         0.0429
     25 N4         -0.0981   -2.4460   -5.3951 N.3       1 <0>        -0.5306
     26 C21         0.6509   -1.9453   -6.5568 C.3       1 <0>         0.0113
     27 C22         0.1092   -2.6032   -7.8286 C.3       1 <0>         0.0631
     28 O2         -1.2929   -2.3416   -7.9346 O.3       1 <0>        -0.3847
     29 C23        -2.0530   -2.8165   -6.8202 C.3       1 <0>         0.0631
     30 C24        -1.5332   -2.1607   -5.5381 C.3       1 <0>         0.0184
     31 H1         -1.0802    1.6704    0.1803 H         1 <0>         0.1254
     32 H2          0.9540    3.0085   -0.1714 H         1 <0>         0.1268
     33 H3          3.1537    1.9112   -0.2582 H         1 <0>         0.1232
     34 H4          1.2619   -1.8877    0.3537 H         1 <0>         0.1237
     35 H5         -0.9282   -0.7714    0.4380 H         1 <0>         0.1272
     36 H6          6.2130   -3.9906   -3.1444 H         1 <0>         0.2124
     37 H7          2.7205   -0.4964    2.7388 H         1 <0>         0.1270
     38 H8          2.6714    0.8829    4.7742 H         1 <0>         0.1302
     39 H9          4.5629    2.3612    5.3105 H         1 <0>         0.1281
     40 H10         6.5146    2.4701    3.8171 H         1 <0>         0.1304
     41 H11         6.5905    1.0920    1.7817 H         1 <0>         0.1288
     42 H12         1.8275   -1.2351   -2.1353 H         1 <0>         0.4125
     43 H13         2.4874   -2.1071   -4.7393 H         1 <0>         0.0727
     44 H14         1.8267   -3.4906   -3.8351 H         1 <0>         0.0833
     45 H15        -0.2111   -2.1772   -3.3146 H         1 <0>         0.0833
     46 H16         0.4496   -0.7937   -4.2188 H         1 <0>         0.0422
     47 H17         0.5326   -0.8640   -6.6277 H         1 <0>         0.0452
     48 H18         1.7069   -2.1898   -6.4420 H         1 <0>         0.0916
     49 H19         0.6228   -2.1926   -8.6980 H         1 <0>         0.1003
     50 H20         0.2760   -3.6793   -7.7811 H         1 <0>         0.0626
     51 H21        -3.1031   -2.5602   -6.9601 H         1 <0>         0.1002
     52 H22        -1.9490   -3.8988   -6.7434 H         1 <0>         0.0620
     53 H23        -2.0715   -2.5625   -4.6797 H         1 <0>         0.0884
     54 H24        -1.6864   -1.0829   -5.5927 H         1 <0>         0.0452
@<TRIPOS>BOND
     1    1    6 ar
     2    1    2 ar
     3    1   31 1
     4    2    3 ar
     5    2   32 1
     6    3    4 ar
     7    3   33 1
     8    4    5 ar
     9    4    7 1
    10    5    6 ar
    11    5   34 1
    12    6   35 1
    13    7   15 2
    14    7    8 1
    15    8   13 ar
    16    8    9 ar
    17    9   10 ar
    18    9   22 1
    19   10   11 ar
    20   11   12 ar
    21   11   36 1
    22   12   13 ar
    23   13   14 1
    24   14   15 1
    25   15   16 1
    26   16   21 ar
    27   16   17 ar
    28   17   18 ar
    29   17   37 1
    30   18   19 ar
    31   18   38 1
    32   19   20 ar
    33   19   39 1
    34   20   21 ar
    35   20   40 1
    36   21   41 1
    37   22   23 1
    38   22   42 1
    39   23   24 1
    40   23   43 1
    41   23   44 1
    42   24   25 1
    43   24   45 1
    44   24   46 1
    45   25   30 1
    46   25   26 1
    47   26   27 1
    48   26   47 1
    49   26   48 1
    50   27   28 1
    51   27   49 1
    52   27   50 1
    53   28   29 1
    54   29   30 1
    55   29   51 1
    56   29   52 1
    57   30   53 1
    58   30   54 1
@<TRIPOS>MOLECULE
ZINC04004302
   52    56     0     0     0
SMALL
USER_CHARGES

@<TRIPOS>ATOM
      1 C1         -0.1169    1.1840    0.1384 C.ar      1 <0>        -0.1146
      2 C2          1.0272    1.9371   -0.0567 C.ar      1 <0>        -0.1125
      3 C3          2.2614    1.3223   -0.1055 C.ar      1 <0>        -0.0937
      4 C4          2.3542   -0.0620    0.0424 C.ar      1 <0>        -0.0198
      5 C5          1.1967   -0.8159    0.2389 C.ar      1 <0>        -0.1148
      6 C6         -0.0315   -0.1891    0.2857 C.ar      1 <0>        -0.1187
      7 C7          3.6750   -0.7281   -0.0094 C.2       1 <0>        -0.0987
      8 C8          4.1674   -1.6420   -1.0481 C.ar      1 <0>        -0.2719
      9 C9          3.6468   -2.1704   -2.2370 C.ar      1 <0>         0.4936
     10 N1          4.4094   -2.9987   -2.9462 N.ar      1 <0>        -0.5852
     11 C10         5.6254   -3.3149   -2.5406 C.ar      1 <0>         0.3743
     12 N2          6.1512   -2.8413   -1.4309 N.ar      1 <0>        -0.5361
     13 C11         5.4658   -2.0054   -0.6545 C.ar      1 <0>         0.3310
     14 O1          5.7338   -1.3772    0.5031 O.3       1 <0>        -0.1624
     15 C12         4.6934   -0.6157    0.8975 C.2       1 <0>         0.0970
     16 C13         4.6574    0.2089    2.1201 C.ar      1 <0>        -0.0389
     17 C14         3.5520    0.1518    2.9729 C.ar      1 <0>        -0.0792
     18 C15         3.5252    0.9257    4.1142 C.ar      1 <0>        -0.1183
     19 C16         4.5895    1.7572    4.4156 C.ar      1 <0>        -0.0969
     20 C17         5.6876    1.8189    3.5756 C.ar      1 <0>        -0.1177
     21 C18         5.7308    1.0465    2.4338 C.ar      1 <0>        -0.0867
     22 N3          2.3729   -1.8399   -2.6622 N.pl3     1 <0>        -0.7069
     23 C19         1.8473   -2.4033   -3.9082 C.3       1 <0>         0.1303
     24 C20         0.4289   -1.8811   -4.1456 C.3       1 <0>        -0.1575
     25 C21        -0.1200   -2.4694   -5.4470 C.3       1 <0>         0.0969
     26 N4         -1.4781   -1.9694   -5.6743 N.pl3     1 <0>        -0.4079
     27 C22        -2.6397   -2.5454   -5.2356 C.2       1 <0>         0.0258
     28 C23        -3.6486   -1.7624   -5.6631 C.2       1 <0>         0.0044
     29 N5         -3.1174   -0.7363   -6.3443 N.pl3     1 <0>        -0.4759
     30 C24        -1.8175   -0.8510   -6.3508 C.cat     1 <0>         0.2888
     31 H1         -1.0802    1.6704    0.1803 H         1 <0>         0.1246
     32 H2          0.9540    3.0085   -0.1714 H         1 <0>         0.1279
     33 H3          3.1537    1.9112   -0.2582 H         1 <0>         0.1250
     34 H4          1.2619   -1.8877    0.3537 H         1 <0>         0.1232
     35 H5         -0.9282   -0.7714    0.4380 H         1 <0>         0.1253
     36 H6          6.2130   -3.9906   -3.1444 H         1 <0>         0.2147
     37 H7          2.7205   -0.4964    2.7388 H         1 <0>         0.1258
     38 H8          2.6714    0.8829    4.7742 H         1 <0>         0.1315
     39 H9          4.5629    2.3612    5.3105 H         1 <0>         0.1305
     40 H10         6.5146    2.4701    3.8171 H         1 <0>         0.1327
     41 H11         6.5905    1.0920    1.7817 H         1 <0>         0.1297
     42 H12         1.8275   -1.2351   -2.1353 H         1 <0>         0.4142
     43 H13         2.4874   -2.1071   -4.7393 H         1 <0>         0.0803
     44 H14         1.8267   -3.4906   -3.8351 H         1 <0>         0.0810
     45 H15        -0.2111   -2.1772   -3.3146 H         1 <0>         0.0886
     46 H16         0.4496   -0.7937   -4.2188 H         1 <0>         0.0860
     47 H17         0.5201   -2.1733   -6.2780 H         1 <0>         0.1277
     48 H18        -0.1406   -3.5568   -5.3738 H         1 <0>         0.1306
     49 H19        -2.7299   -3.4534   -4.6579 H         1 <0>         0.2232
     50 H20        -4.7009   -1.9311   -5.4881 H         1 <0>         0.2242
     51 H21        -1.1275   -0.1664   -6.8216 H         1 <0>         0.2599
     52 H22        -3.6200   -0.0200   -6.7629 H         1 <0>         0.4658
@<TRIPOS>BOND
     1    1    6 ar
     2    1    2 ar
     3    1   31 1
     4    2    3 ar
     5    2   32 1
     6    3    4 ar
     7    3   33 1
     8    4    5 ar
     9    4    7 1
    10    5    6 ar
    11    5   34 1
    12    6   35 1
    13    7   15 2
    14    7    8 1
    15    8   13 ar
    16    8    9 ar
    17    9   10 ar
    18    9   22 1
    19   10   11 ar
    20   11   12 ar
    21   11   36 1
    22   12   13 ar
    23   13   14 1
    24   14   15 1
    25   15   16 1
    26   16   21 ar
    27   16   17 ar
    28   17   18 ar
    29   17   37 1
    30   18   19 ar
    31   18   38 1
    32   19   20 ar
    33   19   39 1
    34   20   21 ar
    35   20   40 1
    36   21   41 1
    37   22   23 1
    38   22   42 1
    39   23   24 1
    40   23   43 1
    41   23   44 1
    42   24   25 1
    43   24   45 1
    44   24   46 1
    45   25   26 1
    46   25   47 1
    47   25   48 1
    48   26   30 1
    49   26   27 1
    50   27   28 2
    51   27   49 1
    52   28   29 1
    53   28   50 1
    54   29   30 2
    55   29   52 1
    56   30   51 1
@<TRIPOS>MOLECULE
ZINC04004302
   51    55     0     0     0
SMALL
USER_CHARGES

@<TRIPOS>ATOM
      1 C1         -0.1169    1.1840    0.1384 C.ar      1 <0>        -0.1109
      2 C2          1.0272    1.9371   -0.0567 C.ar      1 <0>        -0.1129
      3 C3          2.2614    1.3223   -0.1055 C.ar      1 <0>        -0.0947
      4 C4          2.3542   -0.0620    0.0424 C.ar      1 <0>        -0.0257
      5 C5          1.1967   -0.8159    0.2389 C.ar      1 <0>        -0.1134
      6 C6         -0.0315   -0.1891    0.2857 C.ar      1 <0>        -0.1154
      7 C7          3.6750   -0.7281   -0.0094 C.2       1 <0>        -0.0865
      8 C8          4.1674   -1.6420   -1.0481 C.ar      1 <0>        -0.2776
      9 C9          3.6468   -2.1704   -2.2370 C.ar      1 <0>         0.4970
     10 N1          4.4094   -2.9987   -2.9462 N.ar      1 <0>        -0.5858
     11 C10         5.6254   -3.3149   -2.5406 C.ar      1 <0>         0.3749
     12 N2          6.1512   -2.8413   -1.4309 N.ar      1 <0>        -0.5446
     13 C11         5.4658   -2.0054   -0.6545 C.ar      1 <0>         0.3305
     14 O1          5.7338   -1.3772    0.5031 O.3       1 <0>        -0.1647
     15 C12         4.6934   -0.6157    0.8975 C.2       1 <0>         0.0823
     16 C13         4.6574    0.2089    2.1201 C.ar      1 <0>        -0.0306
     17 C14         3.5520    0.1518    2.9729 C.ar      1 <0>        -0.0795
     18 C15         3.5252    0.9257    4.1142 C.ar      1 <0>        -0.1181
     19 C16         4.5895    1.7572    4.4156 C.ar      1 <0>        -0.1010
     20 C17         5.6876    1.8189    3.5756 C.ar      1 <0>        -0.1191
     21 C18         5.7308    1.0465    2.4338 C.ar      1 <0>        -0.0890
     22 N3          2.3729   -1.8399   -2.6622 N.pl3     1 <0>        -0.6995
     23 C19         1.8473   -2.4033   -3.9082 C.3       1 <0>         0.1287
     24 C20         0.4289   -1.8811   -4.1456 C.3       1 <0>        -0.1510
     25 C21        -0.1200   -2.4694   -5.4470 C.3       1 <0>         0.1105
     26 N4         -1.4781   -1.9694   -5.6743 N.pl3     1 <0>        -0.4603
     27 C22        -2.6398   -2.5456   -5.2360 C.2       1 <0>        -0.0570
     28 C23        -3.6486   -1.7626   -5.6633 C.2       1 <0>        -0.0283
     29 N5         -3.1174   -0.7362   -6.3441 N.2       1 <0>        -0.4942
     30 C24        -1.8174   -0.8508   -6.3504 C.2       1 <0>         0.1818
     31 H1         -1.0802    1.6704    0.1803 H         1 <0>         0.1259
     32 H2          0.9540    3.0085   -0.1714 H         1 <0>         0.1273
     33 H3          3.1537    1.9112   -0.2582 H         1 <0>         0.1234
     34 H4          1.2619   -1.8877    0.3537 H         1 <0>         0.1227
     35 H5         -0.9282   -0.7714    0.4380 H         1 <0>         0.1268
     36 H6          6.2130   -3.9906   -3.1444 H         1 <0>         0.2126
     37 H7          2.7205   -0.4964    2.7388 H         1 <0>         0.1269
     38 H8          2.6714    0.8829    4.7742 H         1 <0>         0.1304
     39 H9          4.5629    2.3612    5.3105 H         1 <0>         0.1284
     40 H10         6.5146    2.4701    3.8171 H         1 <0>         0.1306
     41 H11         6.5905    1.0920    1.7817 H         1 <0>         0.1288
     42 H12         1.8275   -1.2351   -2.1353 H         1 <0>         0.4143
     43 H13         2.4874   -2.1071   -4.7393 H         1 <0>         0.0771
     44 H14         1.8267   -3.4906   -3.8351 H         1 <0>         0.0770
     45 H15        -0.2111   -2.1772   -3.3146 H         1 <0>         0.0788
     46 H16         0.4496   -0.7937   -4.2188 H         1 <0>         0.0789
     47 H17         0.5201   -2.1733   -6.2780 H         1 <0>         0.1001
     48 H18        -0.1406   -3.5568   -5.3738 H         1 <0>         0.0979
     49 H19        -2.7300   -3.4539   -4.6586 H         1 <0>         0.1734
     50 H20        -4.7009   -1.9314   -5.4886 H         1 <0>         0.1695
     51 H21        -1.1275   -0.1659   -6.8208 H         1 <0>         0.2034
@<TRIPOS>BOND
     1    1    6 ar
     2    1    2 ar
     3    1   31 1
     4    2    3 ar
     5    2   32 1
     6    3    4 ar
     7    3   33 1
     8    4    5 ar
     9    4    7 1
    10    5    6 ar
    11    5   34 1
    12    6   35 1
    13    7   15 2
    14    7    8 1
    15    8   13 ar
    16    8    9 ar
    17    9   10 ar
    18    9   22 1
    19   10   11 ar
    20   11   12 ar
    21   11   36 1
    22   12   13 ar
    23   13   14 1
    24   14   15 1
    25   15   16 1
    26   16   21 ar
    27   16   17 ar
    28   17   18 ar
    29   17   37 1
    30   18   19 ar
    31   18   38 1
    32   19   20 ar
    33   19   39 1
    34   20   21 ar
    35   20   40 1
    36   21   41 1
    37   22   23 1
    38   22   42 1
    39   23   24 1
    40   23   43 1
    41   23   44 1
    42   24   25 1
    43   24   45 1
    44   24   46 1
    45   25   26 1
    46   25   47 1
    47   25   48 1
    48   26   30 1
    49   26   27 1
    50   27   28 2
    51   27   49 1
    52   28   29 1
    53   28   50 1
    54   29   30 2
    55   30   51 1
@<TRIPOS>MOLECULE
ZINC58660958
   57    60     0     0     0
SMALL
USER_CHARGES

@<TRIPOS>ATOM
      1 C1          0.3721    1.3777   -0.3055 C.3       1 <0>        -0.1988
      2 C2          0.1634   -0.1084   -0.0071 C.3       1 <0>        -0.0200
      3 N1          0.9255   -0.4786    1.1929 N.4       1 <0>        -0.3758
      4 C3          0.1113   -0.2220    2.3885 C.3       1 <0>         0.0685
      5 C4         -0.1137    1.2609    2.5342 C.2       1 <0>         0.0656
      6 C5         -1.2571    1.8625    2.0543 C.2       1 <0>        -0.2833
      7 C6         -1.3356    3.2123    2.2516 C.2       1 <0>         0.0494
      8 S1          0.0999    3.5603    3.0483 S.3       1 <0>         0.4981
      9 N2          0.7669    2.0280    3.1266 N.2       1 <0>        -0.5011
     10 N3         -2.3559    4.0847    1.8824 N.pl3     1 <0>        -0.5737
     11 C7         -2.2517    5.4363    2.1737 C.2       1 <0>         0.4571
     12 C8         -3.2900    6.3273    1.8053 C.2       1 <0>         0.1343
     13 N4         -4.4479    6.1600    1.1891 N.2       1 <0>        -0.4484
     14 C9         -5.0665    7.3337    1.0833 C.2       1 <0>         0.0363
     15 C10        -4.2758    8.2924    1.6534 C.2       1 <0>         0.0797
     16 N5         -3.1536    7.6597    2.1100 N.pl3     1 <0>        -0.3300
     17 C11        -2.0229    8.0863    2.7582 C.2       1 <0>        -0.0245
     18 C12        -1.0629    7.1998    3.0878 C.2       1 <0>         0.1199
     19 N6         -1.1882    5.8999    2.8001 N.2       1 <0>        -0.5252
     20 C13         0.1747    7.6823    3.7995 C.3       1 <0>        -0.0983
     21 C14        -4.5771    9.7385    1.7559 C.2       1 <0>        -0.1867
     22 C15        -5.7040   10.3628    1.3017 C.2       1 <0>         0.1025
     23 N7         -5.5866   11.6761    1.5904 N.pl3     1 <0>        -0.4612
     24 H1         -6.2389   12.3640    1.3850 H         1 <0>         0.4502
     25 N8         -4.3612   11.8742    2.2379 N.2       1 <0>        -0.2752
     26 C16        -3.7561   10.7211    2.3456 C.2       1 <0>         0.0592
     27 C17         1.2712   -1.9051    1.1328 C.3       1 <0>         0.0542
     28 C18         2.0649   -2.2906    2.3827 C.3       1 <0>        -0.1727
     29 C19        -0.0105   -2.7380    1.0654 C.3       1 <0>        -0.1711
     30 C20         2.1191   -2.1723   -0.1124 C.3       1 <0>         0.0671
     31 O1          2.4554   -3.5599   -0.1709 O.3       1 <0>        -0.5516
     32 H2          1.4092    1.5481   -0.5946 H         1 <0>         0.0782
     33 H3         -0.2865    1.6808   -1.1195 H         1 <0>         0.1048
     34 H4          0.1423    1.9628    0.5849 H         1 <0>         0.0876
     35 H5         -0.8962   -0.2997    0.1620 H         1 <0>         0.1316
     36 H6          0.5090   -0.7011   -0.8542 H         1 <0>         0.1322
     37 H7         -0.8494   -0.7273    2.2891 H         1 <0>         0.1474
     38 H8          0.6307   -0.5990    3.2695 H         1 <0>         0.1497
     39 H9         -2.0370    1.3055    1.5563 H         1 <0>         0.1608
     40 H10        -3.1397    3.7469    1.4214 H         1 <0>         0.4425
     41 H11        -6.0298    7.5005    0.6244 H         1 <0>         0.1933
     42 H12        -1.9019    9.1310    3.0039 H         1 <0>         0.1754
     43 H13         0.0146    7.6388    4.8768 H         1 <0>         0.0884
     44 H14         1.0189    7.0469    3.5317 H         1 <0>         0.0868
     45 H15         0.3858    8.7103    3.5047 H         1 <0>         0.0852
     46 H16        -6.5373    9.8913    0.8020 H         1 <0>         0.1909
     47 H17        -2.7932   10.5508    2.8043 H         1 <0>         0.1818
     48 H18         1.4608   -2.1003    3.2698 H         1 <0>         0.0831
     49 H19         2.3214   -3.3491    2.3381 H         1 <0>         0.1139
     50 H20         2.9779   -1.6972    2.4307 H         1 <0>         0.0806
     51 H21        -0.5759   -2.4633    0.1749 H         1 <0>         0.0798
     52 H22         0.2460   -3.7964    1.0208 H         1 <0>         0.1124
     53 H23        -0.6146   -2.5476    1.9525 H         1 <0>         0.0819
     54 H24         1.5537   -1.8976   -1.0029 H         1 <0>         0.0698
     55 H25         3.0322   -1.5789   -0.0644 H         1 <0>         0.0683
     56 H26         2.9938   -3.8022   -0.9368 H         1 <0>         0.4046
     57 H27         1.7707    0.0707    1.2374 H         1 <0>         0.4245
@<TRIPOS>BOND
     1    1    2 1
     2    1   32 1
     3    1   33 1
     4    1   34 1
     5    2    3 1
     6    2   35 1
     7    2   36 1
     8    3    4 1
     9    3   27 1
    10    3   57 1
    11    4    5 1
    12    4   37 1
    13    4   38 1
    14    5    9 2
    15    5    6 1
    16    6    7 2
    17    6   39 1
    18    7    8 1
    19    7   10 1
    20    8    9 1
    21   10   11 1
    22   10   40 1
    23   11   19 2
    24   11   12 1
    25   12   16 1
    26   12   13 2
    27   13   14 1
    28   14   15 2
    29   14   41 1
    30   15   16 1
    31   15   21 1
    32   16   17 1
    33   17   18 2
    34   17   42 1
    35   18   19 1
    36   18   20 1
    37   20   43 1
    38   20   44 1
    39   20   45 1
    40   21   26 1
    41   21   22 2
    42   22   23 1
    43   22   46 1
    44   23   24 1
    45   23   25 1
    46   25   26 2
    47   26   47 1
    48   27   28 1
    49   27   29 1
    50   27   30 1
    51   28   48 1
    52   28   49 1
    53   28   50 1
    54   29   51 1
    55   29   52 1
    56   29   53 1
    57   30   31 1
    58   30   54 1
    59   30   55 1
    60   31   56 1
@<TRIPOS>MOLECULE
ZINC58661275
   68    73     0     0     0
SMALL
USER_CHARGES

@<TRIPOS>ATOM
      1 C1          0.0302    1.4149    0.0749 C.3       1 <0>        -0.0917
      2 C2          0.0367   -0.0920    0.0552 C.2       1 <0>         0.0786
      3 C3         -1.0495   -0.8883    0.0469 C.2       1 <0>        -0.2927
      4 C4         -0.6120   -2.2248    0.0281 C.2       1 <0>         0.1145
      5 N1          0.6910   -2.2236    0.0254 N.2       1 <0>        -0.3010
      6 O1          1.1256   -0.8758    0.0371 O.3       1 <0>        -0.0812
      7 C5         -1.4959   -3.4453    0.0141 C.3       1 <0>         0.1246
      8 N2         -1.6887   -3.8943   -1.3712 N.3       1 <0>        -0.5267
      9 C6         -2.4416   -2.8998   -2.1471 C.3       1 <0>         0.0336
     10 C7         -2.4647   -3.3177   -3.6212 C.3       1 <0>         0.1532
     11 N3         -2.9780   -4.6932   -3.7089 N.pl3     1 <0>        -0.6777
     12 C8         -2.3623   -5.7214   -2.8563 C.3       1 <0>         0.1521
     13 C9         -2.3432   -5.2088   -1.4123 C.3       1 <0>         0.0385
     14 C10        -4.0198   -5.0139   -4.5770 C.ar      1 <0>         0.2665
     15 C11        -5.3482   -4.9325   -4.1636 C.ar      1 <0>        -0.1525
     16 C12        -6.3563   -5.2583   -5.0532 C.ar      1 <0>         0.1629
     17 N4         -6.0899   -5.6445   -6.2833 N.ar      1 <0>        -0.4380
     18 C13        -4.8372   -5.7404   -6.7327 C.ar      1 <0>         0.2741
     19 C14        -3.7631   -5.4201   -5.8871 C.ar      1 <0>        -0.0036
     20 N5         -2.6122   -5.6084   -6.6292 N.pl3     1 <0>        -0.5798
     21 H1         -1.7009   -5.4737   -6.3253 H         1 <0>         0.4270
     22 C15        -3.0025   -6.0210   -7.8731 C.2       1 <0>         0.3588
     23 N6         -4.3115   -6.1030   -7.9210 N.2       1 <0>        -0.4725
     24 C16        -2.0888   -6.3381   -8.9899 C.ar      1 <0>        -0.0738
     25 C17        -0.7071   -6.2303   -8.8157 C.ar      1 <0>        -0.0450
     26 C18         0.1421   -6.5266   -9.8586 C.ar      1 <0>        -0.1855
     27 C19        -0.3749   -6.9328  -11.0847 C.ar      1 <0>         0.2204
     28 C20        -1.7506   -7.0410  -11.2612 C.ar      1 <0>        -0.1875
     29 C21        -2.6046   -6.7517  -10.2202 C.ar      1 <0>        -0.0119
     30 N7          0.4868   -7.2313  -12.1381 N.pl3     1 <0>        -0.6406
     31 C22        -0.0269   -7.7752  -13.4047 C.3       1 <0>         0.0955
     32 C23         0.5405   -6.9404  -14.5574 C.3       1 <0>        -0.0235
     33 N8          2.0054   -6.9075  -14.4619 N.4       1 <0>        -0.3844
     34 C24         2.4109   -6.2124  -13.2337 C.3       1 <0>        -0.0227
     35 C25         1.9355   -7.0058  -12.0174 C.3       1 <0>         0.0960
     36 C26         2.5546   -6.2007  -15.6266 C.3       1 <0>        -0.0473
     37 Br1        -5.7685   -4.3828   -2.4038 Br        1 <0>        -0.0124
     38 H2          1.0562    1.7827    0.0727 H         1 <0>         0.0859
     39 H3         -0.4913    1.7875   -0.8067 H         1 <0>         0.0961
     40 H4         -0.4791    1.7643    0.9730 H         1 <0>         0.0976
     41 H5         -2.0778   -0.5579    0.0537 H         1 <0>         0.1564
     42 H6         -1.0258   -4.2410    0.5919 H         1 <0>         0.0995
     43 H7         -2.4623   -3.1990    0.4540 H         1 <0>         0.0655
     44 H8         -3.4625   -2.8409   -1.7697 H         1 <0>         0.0514
     45 H9         -1.9618   -1.9257   -2.0527 H         1 <0>         0.0836
     46 H10        -3.1163   -2.6473   -4.1817 H         1 <0>         0.0736
     47 H11        -1.4548   -3.2771   -4.0292 H         1 <0>         0.0602
     48 H12        -2.9462   -6.6402   -2.9110 H         1 <0>         0.0757
     49 H13        -1.3425   -5.9118   -3.1907 H         1 <0>         0.0624
     50 H14        -1.7920   -5.9093   -0.7849 H         1 <0>         0.0866
     51 H15        -3.3655   -5.1178   -1.0451 H         1 <0>         0.0514
     52 H16        -7.3852   -5.1947   -4.7312 H         1 <0>         0.1774
     53 H17        -0.3052   -5.9147   -7.8643 H         1 <0>         0.1269
     54 H18         1.2105   -6.4431   -9.7247 H         1 <0>         0.1318
     55 H19        -2.1490   -7.3563  -12.2142 H         1 <0>         0.1337
     56 H20        -3.6723   -6.8405  -10.3563 H         1 <0>         0.1485
     57 H21         0.2898   -8.8125  -13.5131 H         1 <0>         0.0918
     58 H22        -1.1154   -7.7188  -13.4128 H         1 <0>         0.1301
     59 H23         0.2482   -7.3870  -15.5078 H         1 <0>         0.1430
     60 H24         0.1495   -5.9247  -14.4975 H         1 <0>         0.1336
     61 H25         3.4969   -6.1225  -13.2087 H         1 <0>         0.1428
     62 H26         1.9633   -5.2187  -13.2138 H         1 <0>         0.1330
     63 H27         2.1438   -6.4409  -11.1087 H         1 <0>         0.1279
     64 H28         2.4538   -7.9641  -11.9833 H         1 <0>         0.0907
     65 H29         2.1683   -5.1817  -15.6486 H         1 <0>         0.1220
     66 H30         3.6420   -6.1756  -15.5569 H         1 <0>         0.1256
     67 H31         2.2609   -6.7203  -16.5387 H         1 <0>         0.1260
     68 H32         2.3614   -7.8515  -14.4458 H         1 <0>         0.4253
@<TRIPOS>BOND
     1    1    2 1
     2    1   38 1
     3    1   39 1
     4    1   40 1
     5    2    6 1
     6    2    3 2
     7    3    4 1
     8    3   41 1
     9    4    5 2
    10    4    7 1
    11    5    6 1
    12    7    8 1
    13    7   42 1
    14    7   43 1
    15    8   13 1
    16    8    9 1
    17    9   10 1
    18    9   44 1
    19    9   45 1
    20   10   11 1
    21   10   46 1
    22   10   47 1
    23   11   12 1
    24   11   14 1
    25   12   13 1
    26   12   48 1
    27   12   49 1
    28   13   50 1
    29   13   51 1
    30   14   19 ar
    31   14   15 ar
    32   15   16 ar
    33   15   37 1
    34   16   17 ar
    35   16   52 1
    36   17   18 ar
    37   18   23 1
    38   18   19 ar
    39   19   20 1
    40   20   21 1
    41   20   22 1
    42   22   23 2
    43   22   24 1
    44   24   29 ar
    45   24   25 ar
    46   25   26 ar
    47   25   53 1
    48   26   27 ar
    49   26   54 1
    50   27   28 ar
    51   27   30 1
    52   28   29 ar
    53   28   55 1
    54   29   56 1
    55   30   35 1
    56   30   31 1
    57   31   32 1
    58   31   57 1
    59   31   58 1
    60   32   33 1
    61   32   59 1
    62   32   60 1
    63   33   34 1
    64   33   36 1
    65   33   68 1
    66   34   35 1
    67   34   61 1
    68   34   62 1
    69   35   63 1
    70   35   64 1
    71   36   65 1
    72   36   66 1
    73   36   67 1
@<TRIPOS>MOLECULE
ZINC58661275
   69    74     0     0     0
SMALL
USER_CHARGES

@<TRIPOS>ATOM
      1 C1         -0.0627    1.5915   -0.0574 C.3       1 <0>        -0.1039
      2 C2         -0.0287    0.0849   -0.0540 C.2       1 <0>         0.1141
      3 C3         -1.1002   -0.7311   -0.0440 C.2       1 <0>        -0.2989
      4 C4         -0.6385   -2.0595   -0.0448 C.2       1 <0>         0.0455
      5 N1          0.6643   -2.0347   -0.0550 N.2       1 <0>        -0.2843
      6 O1          1.0742   -0.6791   -0.0664 O.3       1 <0>        -0.0446
      7 C5         -1.5000   -3.2959   -0.0351 C.3       1 <0>         0.0806
      8 N2         -1.6921   -3.7697   -1.4122 N.4       1 <0>        -0.3800
      9 C6         -2.4455   -2.7650   -2.1730 C.3       1 <0>        -0.0252
     10 C7         -2.5474   -3.2050   -3.6372 C.3       1 <0>         0.1252
     11 N3         -3.1255   -4.5571   -3.6786 N.pl3     1 <0>        -0.6660
     12 C8         -2.5311   -5.5918   -2.8183 C.3       1 <0>         0.1230
     13 C9         -2.4300   -5.0391   -1.3928 C.3       1 <0>        -0.0201
     14 C10        -4.2044   -4.8490   -4.5077 C.ar      1 <0>         0.2761
     15 C11        -4.0065   -5.2943   -5.8103 C.ar      1 <0>        -0.1572
     16 C12        -5.1024   -5.5751   -6.6070 C.ar      1 <0>         0.1803
     17 N4         -6.3337   -5.4295   -6.1588 N.ar      1 <0>        -0.4627
     18 C13        -6.5831   -5.0088   -4.9270 C.ar      1 <0>         0.2645
     19 C14        -5.5275   -4.7079   -4.0513 C.ar      1 <0>         0.0103
     20 N5         -6.0736   -4.3153   -2.8759 N.2       1 <0>        -0.4766
     21 H1         -8.6495   -4.8919   -4.5469 H         1 <0>         0.4339
     22 C15        -7.3806   -4.3589   -2.9652 C.2       1 <0>         0.3594
     23 N6         -7.7438   -4.7740   -4.2202 N.pl3     1 <0>        -0.5811
     24 C16        -8.3200   -4.0023   -1.8818 C.ar      1 <0>        -0.0822
     25 C17        -9.6976   -4.0940   -2.0918 C.ar      1 <0>        -0.0422
     26 C18       -10.5708   -3.7609   -1.0800 C.ar      1 <0>        -0.1829
     27 C19       -10.0817   -3.3330    0.1500 C.ar      1 <0>         0.2284
     28 C20        -8.7101   -3.2402    0.3620 C.ar      1 <0>        -0.1912
     29 C21        -7.8318   -3.5784   -0.6439 C.ar      1 <0>        -0.0140
     30 N7        -10.9678   -2.9961    1.1718 N.pl3     1 <0>        -0.6394
     31 C22       -10.4776   -2.6551    2.5162 C.3       1 <0>         0.0957
     32 C23       -11.1202   -1.3323    2.9464 C.3       1 <0>        -0.0233
     33 N8        -12.5808   -1.4427    2.8438 N.4       1 <0>        -0.3849
     34 C24       -12.9706   -1.6334    1.4411 C.3       1 <0>        -0.0228
     35 C25       -12.4193   -2.9657    0.9348 C.3       1 <0>         0.0941
     36 C26       -13.2003   -0.2146    3.3597 C.3       1 <0>        -0.0480
     37 Br1        -2.2544   -5.5136   -6.4872 Br        1 <0>        -0.0006
     38 H2          0.9565    1.9779   -0.0711 H         1 <0>         0.0963
     39 H3         -0.5957    1.9410   -0.9416 H         1 <0>         0.1070
     40 H4         -0.5734    1.9454    0.8382 H         1 <0>         0.1074
     41 H5         -2.1343   -0.4194   -0.0363 H         1 <0>         0.1695
     42 H6         -1.0123   -4.0740    0.5522 H         1 <0>         0.1521
     43 H7         -2.4683   -3.0606    0.4066 H         1 <0>         0.1548
     44 H8         -3.4464   -2.6661   -1.7527 H         1 <0>         0.1393
     45 H9         -1.9312   -1.8056   -2.1168 H         1 <0>         0.1347
     46 H10        -3.1905   -2.5148   -4.1832 H         1 <0>         0.1158
     47 H11        -1.5541   -3.2175   -4.0859 H         1 <0>         0.0867
     48 H12        -3.1634   -6.4797   -2.8229 H         1 <0>         0.1178
     49 H13        -1.5361   -5.8453   -3.1843 H         1 <0>         0.0887
     50 H14        -1.9041   -5.7555   -0.7616 H         1 <0>         0.1413
     51 H15        -3.4313   -4.8714   -0.9961 H         1 <0>         0.1392
     52 H16        -4.9457   -5.9207   -7.6181 H         1 <0>         0.1840
     53 H17       -10.0780   -4.4254   -3.0467 H         1 <0>         0.1295
     54 H18       -11.6363   -3.8316   -1.2418 H         1 <0>         0.1352
     55 H19        -8.3332   -2.9070    1.3177 H         1 <0>         0.1329
     56 H20        -6.7669   -3.5107   -0.4771 H         1 <0>         0.1391
     57 H21       -10.7546   -3.4420    3.2176 H         1 <0>         0.0936
     58 H22        -9.3934   -2.5453    2.4938 H         1 <0>         0.1275
     59 H23       -10.8439   -1.1124    3.9776 H         1 <0>         0.1438
     60 H24       -10.7699   -0.5299    2.2971 H         1 <0>         0.1329
     61 H25       -14.0578   -1.6354    1.3630 H         1 <0>         0.1454
     62 H26       -12.5643   -0.8219    0.8373 H         1 <0>         0.1333
     63 H27       -12.6183   -3.0611   -0.1327 H         1 <0>         0.1288
     64 H28       -12.8958   -3.7845    1.4738 H         1 <0>         0.0937
     65 H29       -12.8578    0.6387    2.7743 H         1 <0>         0.1224
     66 H30       -14.2847   -0.2953    3.2841 H         1 <0>         0.1277
     67 H31       -12.9182   -0.0761    4.4034 H         1 <0>         0.1271
     68 H32       -12.8965   -2.2305    3.3895 H         1 <0>         0.4265
     69 H33        -0.7924   -3.9117   -1.8463 H         1 <0>         0.4267
@<TRIPOS>BOND
     1    1    2 1
     2    1   38 1
     3    1   39 1
     4    1   40 1
     5    2    6 1
     6    2    3 2
     7    3    4 1
     8    3   41 1
     9    4    5 2
    10    4    7 1
    11    5    6 1
    12    7    8 1
    13    7   42 1
    14    7   43 1
    15    8   13 1
    16    8    9 1
    17    8   69 1
    18    9   10 1
    19    9   44 1
    20    9   45 1
    21   10   11 1
    22   10   46 1
    23   10   47 1
    24   11   12 1
    25   11   14 1
    26   12   13 1
    27   12   48 1
    28   12   49 1
    29   13   50 1
    30   13   51 1
    31   14   15 ar
    32   14   19 ar
    33   15   16 ar
    34   15   37 1
    35   16   17 ar
    36   16   52 1
    37   17   18 ar
    38   18   23 1
    39   18   19 ar
    40   19   20 1
    41   20   22 2
    42   21   23 1
    43   22   24 1
    44   22   23 1
    45   24   29 ar
    46   24   25 ar
    47   25   26 ar
    48   25   53 1
    49   26   27 ar
    50   26   54 1
    51   27   28 ar
    52   27   30 1
    53   28   29 ar
    54   28   55 1
    55   29   56 1
    56   30   35 1
    57   30   31 1
    58   31   32 1
    59   31   57 1
    60   31   58 1
    61   32   33 1
    62   32   59 1
    63   32   60 1
    64   33   34 1
    65   33   36 1
    66   33   68 1
    67   34   35 1
    68   34   61 1
    69   34   62 1
    70   35   63 1
    71   35   64 1
    72   36   65 1
    73   36   66 1
    74   36   67 1
@<TRIPOS>MOLECULE
ZINC01493878
   48    50     0     0     0
SMALL
USER_CHARGES

@<TRIPOS>ATOM
      1 C1         -1.0955   -5.0083   -6.9234 C.3       1 <0>         0.0847
      2 N1         -1.5520   -4.3038   -5.7228 N.am      1 <0>        -0.7137
      3 C2         -1.8827   -5.0004   -4.6175 C.2       1 <0>         0.5696
      4 O1         -1.8023   -6.2129   -4.6168 O.2       1 <0>        -0.5284
      5 C3         -2.3445   -4.2878   -3.4031 C.ar      1 <0>         0.1129
      6 C4         -2.6788   -5.0128   -2.2640 C.ar      1 <0>        -0.1883
      7 C5         -3.1110   -4.3279   -1.1310 C.ar      1 <0>         0.1595
      8 C6         -3.1903   -2.9389   -1.1877 C.ar      1 <0>        -0.1766
      9 C7         -2.8404   -2.2885   -2.3571 C.ar      1 <0>         0.1349
     10 N2         -2.4302   -2.9626   -3.4105 N.ar      1 <0>        -0.4815
     11 O2         -3.4471   -4.9979    0.0005 O.3       1 <0>        -0.2437
     12 C8         -3.4462   -6.3570   -0.0383 C.ar      1 <0>         0.0568
     13 C9         -2.2447   -7.0505   -0.0178 C.ar      1 <0>        -0.1074
     14 C10        -2.2431   -8.4307   -0.0577 C.ar      1 <0>        -0.1009
     15 C11        -3.4442   -9.1246   -0.1179 C.ar      1 <0>         0.1671
     16 C12        -4.6464   -8.4301   -0.1379 C.ar      1 <0>        -0.1272
     17 C13        -4.6469   -7.0500   -0.0928 C.ar      1 <0>        -0.0940
     18 N3         -3.4432  -10.5252   -0.1588 N.am      1 <0>        -0.6776
     19 C14        -2.5108  -11.2187    0.5239 C.2       1 <0>         0.7077
     20 O3         -1.6217  -10.6297    1.1080 O.2       1 <0>        -0.5493
     21 N4         -2.5639  -12.5649    0.5593 N.am      1 <0>        -0.6795
     22 C15        -1.6655  -13.2800    1.3600 C.ar      1 <0>         0.1700
     23 C16        -1.2529  -12.7583    2.5792 C.ar      1 <0>        -0.0742
     24 C17        -0.3670  -13.4659    3.3674 C.ar      1 <0>        -0.0871
     25 C18         0.1097  -14.6941    2.9434 C.ar      1 <0>        -0.0077
     26 C19        -0.2993  -15.2159    1.7290 C.ar      1 <0>        -0.1564
     27 C20        -1.1898  -14.5147    0.9394 C.ar      1 <0>        -0.0879
     28 C21         0.2222  -16.5533    1.2702 C.3       1 <0>         0.5112
     29 F1         -0.3299  -16.8663    0.0234 F         1 <0>        -0.1743
     30 F2          1.6160  -16.4983    1.1626 F         1 <0>        -0.1671
     31 F3         -0.1354  -17.5367    2.1987 F         1 <0>        -0.1677
     32 Cl1         1.2234  -15.5812    3.9366 Cl        1 <0>        -0.0394
     33 H1         -0.8760   -4.2843   -7.7081 H         1 <0>         0.0803
     34 H2         -0.1948   -5.5764   -6.6909 H         1 <0>         0.0631
     35 H3         -1.8761   -5.6883   -7.2645 H         1 <0>         0.0629
     36 H4         -1.6162   -3.3359   -5.7233 H         1 <0>         0.4141
     37 H5         -2.6047   -6.0902   -2.2584 H         1 <0>         0.1546
     38 H6         -3.5217   -2.3755   -0.3280 H         1 <0>         0.1523
     39 H7         -2.9005   -1.2112   -2.4052 H         1 <0>         0.1747
     40 H8         -1.3104   -6.5106    0.0290 H         1 <0>         0.1364
     41 H9         -1.3078   -8.9704   -0.0424 H         1 <0>         0.1514
     42 H10        -5.5809   -8.9693   -0.1851 H         1 <0>         0.1386
     43 H11        -5.5820   -6.5098   -0.1039 H         1 <0>         0.1400
     44 H12        -4.1137  -10.9957   -0.6785 H         1 <0>         0.4131
     45 H13        -3.2246  -13.0383    0.0299 H         1 <0>         0.4146
     46 H14        -1.6244  -11.7997    2.9103 H         1 <0>         0.1546
     47 H15        -0.0456  -13.0604    4.3154 H         1 <0>         0.1524
     48 H16        -1.5123  -14.9245   -0.0064 H         1 <0>         0.1525
@<TRIPOS>BOND
     1    1    2 1
     2    1   33 1
     3    1   34 1
     4    1   35 1
     5    2    3 am
     6    2   36 1
     7    3    4 2
     8    3    5 1
     9    5   10 ar
    10    5    6 ar
    11    6    7 ar
    12    6   37 1
    13    7    8 ar
    14    7   11 1
    15    8    9 ar
    16    8   38 1
    17    9   10 ar
    18    9   39 1
    19   11   12 1
    20   12   17 ar
    21   12   13 ar
    22   13   14 ar
    23   13   40 1
    24   14   15 ar
    25   14   41 1
    26   15   16 ar
    27   15   18 1
    28   16   17 ar
    29   16   42 1
    30   17   43 1
    31   18   19 am
    32   18   44 1
    33   19   20 2
    34   19   21 am
    35   21   22 1
    36   21   45 1
    37   22   27 ar
    38   22   23 ar
    39   23   24 ar
    40   23   46 1
    41   24   25 ar
    42   24   47 1
    43   25   26 ar
    44   25   32 1
    45   26   27 ar
    46   26   28 1
    47   27   48 1
    48   28   29 1
    49   28   30 1
    50   28   31 1
@<TRIPOS>MOLECULE
ZINC43128171
   39    42     0     0     0
SMALL
USER_CHARGES

@<TRIPOS>ATOM
      1 C1         -2.0654    1.3525   -0.2437 C.3       1 <0>        -0.0945
      2 C2         -1.6915   -0.1063   -0.1877 C.2       1 <0>         0.1002
      3 C3         -1.3707   -0.8870   -1.2443 C.2       1 <0>        -0.2695
      4 C4         -1.0891   -2.1744   -0.7589 C.2       1 <0>         0.3133
      5 N1         -1.2379   -2.1589    0.5450 N.2       1 <0>        -0.3260
      6 N2         -1.6116   -0.8639    0.9264 N.pl3     1 <0>        -0.4679
      7 H1         -1.7850   -0.5645    1.8326 H         1 <0>         0.4406
      8 N3         -0.7154   -3.2811   -1.5310 N.pl3     1 <0>        -0.6037
      9 C5         -0.4599   -3.1269   -2.8897 C.2       1 <0>         0.3942
     10 C6         -0.2009   -4.3041   -3.7273 C.ar      1 <0>        -0.0629
     11 C7         -0.2024   -5.5956   -3.2006 C.ar      1 <0>        -0.0971
     12 C8          0.0453   -6.6678   -4.0288 C.ar      1 <0>        -0.0846
     13 C9          0.2968   -6.4771   -5.3813 C.ar      1 <0>        -0.1049
     14 C10         0.3038   -5.2107   -5.9232 C.ar      1 <0>        -0.0507
     15 C11         0.0545   -4.1108   -5.1032 C.ar      1 <0>        -0.1081
     16 C12         0.0477   -2.7388   -5.6258 C.2       1 <0>         0.5253
     17 O1          0.2624   -2.5245   -6.8059 O.2       1 <0>        -0.5083
     18 N4         -0.2007   -1.7195   -4.7780 N.am      1 <0>        -0.3716
     19 N5         -0.4552   -1.9347   -3.4233 N.2       1 <0>        -0.2921
     20 C13        -0.2081   -0.4110   -5.2716 C.ar      1 <0>         0.1528
     21 C14        -0.9908   -0.0867   -6.3727 C.ar      1 <0>        -0.0984
     22 C15        -0.9962    1.2064   -6.8572 C.ar      1 <0>        -0.1075
     23 C16        -0.2236    2.1781   -6.2477 C.ar      1 <0>        -0.1156
     24 C17         0.5571    1.8587   -5.1518 C.ar      1 <0>        -0.1103
     25 C18         0.5627    0.5688   -4.6585 C.ar      1 <0>        -0.1034
     26 H2         -1.1662    1.9619   -0.1525 H         1 <0>         0.0831
     27 H3         -2.5542    1.5661   -1.1943 H         1 <0>         0.0882
     28 H4         -2.7463    1.5847    0.5752 H         1 <0>         0.0723
     29 H5         -1.3374   -0.5758   -2.2780 H         1 <0>         0.1742
     30 H6         -0.6348   -4.1553   -1.1185 H         1 <0>         0.4277
     31 H7         -0.3963   -5.7538   -2.1500 H         1 <0>         0.1372
     32 H8          0.0443   -7.6682   -3.6218 H         1 <0>         0.1400
     33 H9          0.4893   -7.3304   -6.0147 H         1 <0>         0.1410
     34 H10         0.5005   -5.0707   -6.9758 H         1 <0>         0.1478
     35 H11        -1.5941   -0.8451   -6.8493 H         1 <0>         0.1250
     36 H12        -1.6041    1.4591   -7.7134 H         1 <0>         0.1298
     37 H13        -0.2296    3.1887   -6.6287 H         1 <0>         0.1271
     38 H14         1.1595    2.6198   -4.6784 H         1 <0>         0.1293
     39 H15         1.1692    0.3210   -3.7999 H         1 <0>         0.1278
@<TRIPOS>BOND
     1    1    2 1
     2    1   26 1
     3    1   27 1
     4    1   28 1
     5    2    6 1
     6    2    3 2
     7    3    4 1
     8    3   29 1
     9    4    5 2
    10    4    8 1
    11    5    6 1
    12    6    7 1
    13    8    9 1
    14    8   30 1
    15    9   19 2
    16    9   10 1
    17   10   15 ar
    18   10   11 ar
    19   11   12 ar
    20   11   31 1
    21   12   13 ar
    22   12   32 1
    23   13   14 ar
    24   13   33 1
    25   14   15 ar
    26   14   34 1
    27   15   16 1
    28   16   17 2
    29   16   18 am
    30   18   19 1
    31   18   20 1
    32   20   25 ar
    33   20   21 ar
    34   21   22 ar
    35   21   35 1
    36   22   23 ar
    37   22   36 1
    38   23   24 ar
    39   23   37 1
    40   24   25 ar
    41   24   38 1
    42   25   39 1
@<TRIPOS>MOLECULE
ZINC03814434
   62    69     0     0     0
SMALL
USER_CHARGES

@<TRIPOS>ATOM
      1 C1         -0.1295    1.5952   -0.2973 C.3       1 <0>        -0.1687
      2 C2         -0.0862    0.0696   -0.1900 C.3       1 <0>         0.3342
      3 C3          0.5692   -0.4501   -1.4637 C.3       1 <0>         0.0405
      4 H1          1.4796    0.1159   -1.6612 H         1 <0>         0.1372
      5 C4          0.9167   -1.9328   -1.2889 C.3       1 <0>        -0.0061
      6 H2          1.3963   -2.3075   -2.1932 H         1 <0>         0.1555
      7 C5          1.8785   -2.0596   -0.1021 C.3       1 <0>        -0.1827
      8 C6          1.2061   -1.5198    1.1541 C.3       1 <0>         0.2999
      9 H3          1.9797   -1.4243    1.9161 H         1 <0>         0.1550
     10 O1          0.6555   -0.2442    0.9666 O.3       1 <0>        -0.3234
     11 N1          0.2189   -2.4746    1.6600 N.pl3     1 <0>        -0.5366
     12 C7          0.4705   -3.5508    2.4739 C.ar      1 <0>         0.1469
     13 C8          1.6649   -4.0152    3.0240 C.ar      1 <0>        -0.1522
     14 C9          1.5948   -5.1456    3.8201 C.ar      1 <0>        -0.0582
     15 C10         0.4006   -5.7997    4.0696 C.ar      1 <0>        -0.1457
     16 C11        -0.7984   -5.3597    3.5358 C.ar      1 <0>        -0.0280
     17 C12        -0.7487   -4.2198    2.7307 C.ar      1 <0>        -0.1131
     18 C13        -1.7893   -3.4830    2.0197 C.ar      1 <0>         0.0276
     19 C14        -1.1442   -2.4197    1.3841 C.ar      1 <0>         0.0376
     20 C15        -1.8806   -1.5095    0.6175 C.ar      1 <0>         0.0894
     21 N2         -1.4718   -0.3951   -0.1095 N.pl3     1 <0>        -0.5183
     22 C16        -2.5611    0.1913   -0.7090 C.ar      1 <0>         0.1618
     23 C17        -2.6521    1.3277   -1.5118 C.ar      1 <0>        -0.1305
     24 C18        -3.9109    1.6745   -1.9733 C.ar      1 <0>        -0.0737
     25 C19        -5.0393    0.9368   -1.6616 C.ar      1 <0>        -0.1358
     26 C20        -4.9745   -0.1955   -0.8662 C.ar      1 <0>        -0.0503
     27 C21        -3.7147   -0.5596   -0.3919 C.ar      1 <0>        -0.1042
     28 C22        -3.2693   -1.6660    0.4845 C.ar      1 <0>        -0.0360
     29 C23        -3.9084   -2.7313    1.1102 C.ar      1 <0>        -0.0288
     30 C24        -3.1873   -3.6421    1.8754 C.ar      1 <0>        -0.1255
     31 C25        -4.1221   -4.6480    2.4030 C.2       1 <0>         0.5632
     32 O2         -3.8062   -5.5851    3.1110 O.2       1 <0>        -0.5106
     33 N3         -5.3744   -4.3851    1.9926 N.am      1 <0>        -0.7162
     34 C26        -5.3495   -3.1771    1.1601 C.3       1 <0>         0.1358
     35 N4         -0.3067   -2.7008   -1.0216 N.4       1 <0>        -0.5252
     36 C27         0.0145   -4.1336   -0.9773 C.3       1 <0>        -0.0497
     37 O3         -0.3340   -0.2979   -2.5607 O.3       1 <0>        -0.3614
     38 C28         0.3101   -0.0933   -3.8198 C.3       1 <0>         0.0162
     39 H4          0.8261    2.0094    0.0240 H         1 <0>         0.0984
     40 H5         -0.3202    1.8814   -1.3317 H         1 <0>         0.1036
     41 H6         -0.9255    1.9818    0.3392 H         1 <0>         0.0921
     42 H7          2.1370   -3.1081    0.0458 H         1 <0>         0.1233
     43 H8          2.7835   -1.4869   -0.3048 H         1 <0>         0.1455
     44 H9          2.6036   -3.5149    2.8368 H         1 <0>         0.1365
     45 H10         2.5026   -5.5304    4.2610 H         1 <0>         0.1359
     46 H11         0.4045   -6.6780    4.6980 H         1 <0>         0.1352
     47 H12        -1.7278   -5.8736    3.7323 H         1 <0>         0.1600
     48 H13        -1.7792    1.9122   -1.7624 H         1 <0>         0.1440
     49 H14        -4.0153    2.5500   -2.5970 H         1 <0>         0.1336
     50 H15        -5.9967    1.2527   -2.0488 H         1 <0>         0.1332
     51 H16        -5.8575   -0.7687   -0.6249 H         1 <0>         0.1415
     52 H17        -6.1628   -4.9065    2.2103 H         1 <0>         0.4348
     53 H18        -5.9671   -2.3994    1.6094 H         1 <0>         0.1115
     54 H19        -5.7060   -3.4063    0.1559 H         1 <0>         0.1103
     55 H20        -0.6958   -2.4158   -0.1353 H         1 <0>         0.4186
     56 H21         0.4349   -4.4415   -1.9347 H         1 <0>         0.1256
     57 H22         0.7403   -4.3189   -0.1854 H         1 <0>         0.1191
     58 H23        -0.8932   -4.7035   -0.7789 H         1 <0>         0.1256
     59 H24         0.9168    0.8112   -3.7748 H         1 <0>         0.0633
     60 H25         0.9482   -0.9479   -4.0446 H         1 <0>         0.0514
     61 H26        -0.4433    0.0130   -4.6003 H         1 <0>         0.1100
     62 H27        -0.9785   -2.5293   -1.7546 H         1 <0>         0.4274
@<TRIPOS>BOND
     1    1    2 1
     2    1   39 1
     3    1   40 1
     4    1   41 1
     5    2   10 1
     6    2   21 1
     7    2    3 1
     8    3    4 1
     9    3    5 1
    10    3   37 1
    11    5    6 1
    12    5    7 1
    13    5   35 1
    14    7    8 1
    15    7   42 1
    16    7   43 1
    17    8    9 1
    18    8   10 1
    19    8   11 1
    20   11   19 1
    21   11   12 1
    22   12   17 ar
    23   12   13 ar
    24   13   14 ar
    25   13   44 1
    26   14   15 ar
    27   14   45 1
    28   15   16 ar
    29   15   46 1
    30   16   17 ar
    31   16   47 1
    32   17   18 1
    33   18   30 ar
    34   18   19 ar
    35   19   20 ar
    36   20   28 ar
    37   20   21 1
    38   21   22 1
    39   22   27 ar
    40   22   23 ar
    41   23   24 ar
    42   23   48 1
    43   24   25 ar
    44   24   49 1
    45   25   26 ar
    46   25   50 1
    47   26   27 ar
    48   26   51 1
    49   27   28 1
    50   28   29 ar
    51   29   34 1
    52   29   30 ar
    53   30   31 1
    54   31   32 2
    55   31   33 am
    56   33   34 1
    57   33   52 1
    58   34   53 1
    59   34   54 1
    60   35   36 1
    61   35   55 1
    62   35   62 1
    63   36   56 1
    64   36   57 1
    65   36   58 1
    66   37   38 1
    67   38   59 1
    68   38   60 1
    69   38   61 1
@<TRIPOS>MOLECULE
ZINC00846684
   71    74     0     0     0
SMALL
USER_CHARGES
N-[1-[(2,4-dimethylphenyl)carbamoyl]-2-(4-hydroxyphenyl)-ethyl]-2-(4-methoxybenzoyl)amino-benzamide
@<TRIPOS>ATOM
      1 C1         -2.5896    3.8224    0.0031 C.3       1 <0>        -0.1154
      2 C2         -1.2704    3.0941    0.0124 C.ar      1 <0>        -0.0916
      3 C3         -1.1571    1.8636   -0.6089 C.ar      1 <0>        -0.1088
      4 C4          0.0493    1.1917   -0.5985 C.ar      1 <0>        -0.1102
      5 C5          1.1522    1.7574    0.0282 C.ar      1 <0>         0.1314
      6 C6          1.0364    2.9951    0.6469 C.ar      1 <0>        -0.1030
      7 C7         -0.1745    3.6597    0.6374 C.ar      1 <0>        -0.1048
      8 C8          2.2304    3.6123    1.3284 C.3       1 <0>        -0.1169
      9 N1          2.3772    1.0814    0.0363 N.am      1 <0>        -0.6635
     10 C9          2.4040   -0.2640    0.1114 C.2       1 <0>         0.5124
     11 O1          1.3673   -0.8933    0.0898 O.2       1 <0>        -0.5104
     12 C10         3.7218   -0.9865    0.2223 C.3       1 <0>         0.1393
     13 H1          4.3352   -0.7592   -0.6496 H         1 <0>         0.1221
     14 C11         4.4481   -0.5311    1.4895 C.3       1 <0>        -0.0877
     15 C12         5.8169   -1.1597    1.5374 C.ar      1 <0>        -0.0787
     16 C13         5.9938   -2.3817    2.1595 C.ar      1 <0>        -0.0867
     17 C14         7.2465   -2.9627    2.1998 C.ar      1 <0>        -0.1332
     18 C15         8.3297   -2.3136    1.6254 C.ar      1 <0>         0.1161
     19 C16         8.1506   -1.0848    1.0068 C.ar      1 <0>        -0.1395
     20 C17         6.8949   -0.5107    0.9642 C.ar      1 <0>        -0.0886
     21 O2          9.5640   -2.8806    1.6682 O.3       1 <0>        -0.4926
     22 N2          3.4831   -2.4304    0.2884 N.am      1 <0>        -0.7094
     23 C18         4.4421   -3.2908   -0.1074 C.2       1 <0>         0.5748
     24 O3          5.5053   -2.8686   -0.5193 O.2       1 <0>        -0.5263
     25 C19         4.2017   -4.7446   -0.0408 C.ar      1 <0>        -0.1745
     26 C20         2.9517   -5.2332    0.3465 C.ar      1 <0>        -0.0666
     27 C21         2.7334   -6.5924    0.4068 C.ar      1 <0>        -0.1445
     28 C22         3.7485   -7.4792    0.0850 C.ar      1 <0>        -0.0691
     29 C23         4.9886   -7.0116   -0.2998 C.ar      1 <0>        -0.1349
     30 C24         5.2255   -5.6450   -0.3715 C.ar      1 <0>         0.2171
     31 N3          6.4739   -5.1711   -0.7644 N.am      1 <0>        -0.6561
     32 C25         7.5899   -5.8389   -0.4110 C.2       1 <0>         0.5673
     33 O4          7.5034   -6.8944    0.1864 O.2       1 <0>        -0.5260
     34 C26         8.9169   -5.2891   -0.7490 C.ar      1 <0>        -0.1705
     35 C27         9.0185   -4.0790   -1.4406 C.ar      1 <0>        -0.0249
     36 C28        10.2587   -3.5669   -1.7499 C.ar      1 <0>        -0.2100
     37 C29        11.4085   -4.2575   -1.3850 C.ar      1 <0>         0.1619
     38 C30        11.3118   -5.4638   -0.7012 C.ar      1 <0>        -0.1608
     39 C31        10.0754   -5.9800   -0.3835 C.ar      1 <0>        -0.0124
     40 O5         12.6289   -3.7523   -1.6966 O.3       1 <0>        -0.3136
     41 C32        12.6559   -2.5086   -2.4000 C.3       1 <0>         0.0255
     42 H2         -2.6456    4.4616   -0.8780 H         1 <0>         0.0710
     43 H3         -3.4042    3.0985   -0.0207 H         1 <0>         0.0670
     44 H4         -2.6733    4.4340    0.9015 H         1 <0>         0.0665
     45 H5         -2.0139    1.4263   -1.0999 H         1 <0>         0.1255
     46 H6          0.1362    0.2294   -1.0809 H         1 <0>         0.1390
     47 H7         -0.2652    4.6224    1.1185 H         1 <0>         0.1264
     48 H8          2.7801    4.2250    0.6139 H         1 <0>         0.0726
     49 H9          1.8939    4.2348    2.1575 H         1 <0>         0.0729
     50 H10         2.8807    2.8236    1.7067 H         1 <0>         0.0634
     51 H11         3.2072    1.5810   -0.0121 H         1 <0>         0.4122
     52 H12         4.5469    0.5544    1.4815 H         1 <0>         0.0864
     53 H13         3.8768   -0.8374    2.3658 H         1 <0>         0.0836
     54 H14         5.1510   -2.8846    2.6104 H         1 <0>         0.1136
     55 H15         7.3833   -3.9194    2.6820 H         1 <0>         0.1180
     56 H16         8.9922   -0.5776    0.5585 H         1 <0>         0.1212
     57 H17         6.7549    0.4457    0.4824 H         1 <0>         0.1192
     58 H18        10.0826   -2.6356    2.4467 H         1 <0>         0.3850
     59 H19         2.6349   -2.7672    0.6170 H         1 <0>         0.4105
     60 H20         2.1570   -4.5464    0.5980 H         1 <0>         0.1289
     61 H21         1.7663   -6.9685    0.7060 H         1 <0>         0.1305
     62 H22         3.5679   -8.5428    0.1352 H         1 <0>         0.1317
     63 H23         5.7744   -7.7091   -0.5497 H         1 <0>         0.1469
     64 H24         6.5406   -4.3602   -1.2925 H         1 <0>         0.4224
     65 H25         8.1255   -3.5442   -1.7287 H         1 <0>         0.1256
     66 H26        10.3381   -2.6296   -2.2805 H         1 <0>         0.1302
     67 H27        12.2076   -5.9971   -0.4191 H         1 <0>         0.1360
     68 H28        10.0011   -6.9174    0.1478 H         1 <0>         0.1400
     69 H29        13.6901   -2.2188   -2.5860 H         1 <0>         0.1019
     70 H30        12.1325   -2.6170   -3.3499 H         1 <0>         0.0573
     71 H31        12.1658   -1.7415   -1.8005 H         1 <0>         0.0578
@<TRIPOS>BOND
     1    1    2 1
     2    1   42 1
     3    1   43 1
     4    1   44 1
     5    2    7 ar
     6    2    3 ar
     7    3    4 ar
     8    3   45 1
     9    4    5 ar
    10    4   46 1
    11    5    6 ar
    12    5    9 1
    13    6    7 ar
    14    6    8 1
    15    7   47 1
    16    8   48 1
    17    8   49 1
    18    8   50 1
    19    9   10 am
    20    9   51 1
    21   10   11 2
    22   10   12 1
    23   12   13 1
    24   12   14 1
    25   12   22 1
    26   14   15 1
    27   14   52 1
    28   14   53 1
    29   15   20 ar
    30   15   16 ar
    31   16   17 ar
    32   16   54 1
    33   17   18 ar
    34   17   55 1
    35   18   19 ar
    36   18   21 1
    37   19   20 ar
    38   19   56 1
    39   20   57 1
    40   21   58 1
    41   22   23 am
    42   22   59 1
    43   23   24 2
    44   23   25 1
    45   25   30 ar
    46   25   26 ar
    47   26   27 ar
    48   26   60 1
    49   27   28 ar
    50   27   61 1
    51   28   29 ar
    52   28   62 1
    53   29   30 ar
    54   29   63 1
    55   30   31 1
    56   31   32 am
    57   31   64 1
    58   32   33 2
    59   32   34 1
    60   34   39 ar
    61   34   35 ar
    62   35   36 ar
    63   35   65 1
    64   36   37 ar
    65   36   66 1
    66   37   38 ar
    67   37   40 1
    68   38   39 ar
    69   38   67 1
    70   39   68 1
    71   40   41 1
    72   41   69 1
    73   41   70 1
    74   41   71 1
@<TRIPOS>MOLECULE
ZINC00846685
   71    74     0     0     0
SMALL
USER_CHARGES

@<TRIPOS>ATOM
      1 C1          0.0307    1.4897    0.0226 C.3       1 <0>        -0.1154
      2 C2          0.0492   -0.0171    0.0091 C.ar      1 <0>        -0.0915
      3 C3          0.6368   -0.6906   -1.0463 C.ar      1 <0>        -0.1091
      4 C4          0.6555   -2.0713   -1.0617 C.ar      1 <0>        -0.1097
      5 C5          0.0836   -2.7837   -0.0155 C.ar      1 <0>         0.1310
      6 C6         -0.5053   -2.1046    1.0429 C.ar      1 <0>        -0.1029
      7 C7         -0.5163   -0.7234    1.0546 C.ar      1 <0>        -0.1048
      8 C8         -1.1269   -2.8736    2.1801 C.3       1 <0>        -0.1172
      9 N1          0.1003   -4.1828   -0.0282 N.am      1 <0>        -0.6634
     10 C9         -0.0134   -4.8474   -1.1952 C.2       1 <0>         0.5125
     11 O1         -0.0436   -4.2349   -2.2416 O.2       1 <0>        -0.5104
     12 C10        -0.1029   -6.3518   -1.1999 C.3       1 <0>         0.1386
     13 H1         -0.9787   -6.6654   -0.6318 H         1 <0>         0.1233
     14 C11         1.1568   -6.9397   -0.5609 C.3       1 <0>        -0.0890
     15 C12         1.0143   -8.4361   -0.4538 C.ar      1 <0>        -0.0790
     16 C13         0.4515   -8.9965    0.6780 C.ar      1 <0>        -0.0874
     17 C14         0.3201  -10.3680    0.7788 C.ar      1 <0>        -0.1370
     18 C15         0.7530  -11.1831   -0.2570 C.ar      1 <0>         0.1094
     19 C16         1.3169  -10.6183   -1.3918 C.ar      1 <0>        -0.1332
     20 C17         1.4413   -9.2459   -1.4899 C.ar      1 <0>        -0.0868
     21 O2          0.6252  -12.5326   -0.1601 O.3       1 <0>        -0.5008
     22 N2         -0.2191   -6.8298   -2.5798 N.am      1 <0>        -0.7076
     23 C18        -0.8010   -8.0185   -2.8345 C.2       1 <0>         0.5761
     24 O3         -1.2296   -8.6942   -1.9189 O.2       1 <0>        -0.5300
     25 C19        -0.9180   -8.4997   -4.2239 C.ar      1 <0>        -0.1798
     26 C20        -0.3261   -7.7844   -5.2675 C.ar      1 <0>        -0.0624
     27 C21        -0.4385   -8.2394   -6.5633 C.ar      1 <0>        -0.1482
     28 C22        -1.1370   -9.4043   -6.8379 C.ar      1 <0>        -0.0653
     29 C23        -1.7273  -10.1218   -5.8174 C.ar      1 <0>        -0.1460
     30 C24        -1.6196   -9.6817   -4.5046 C.ar      1 <0>         0.2203
     31 N3         -2.2095  -10.4067   -3.4732 N.am      1 <0>        -0.6532
     32 C25        -2.4316  -11.7280   -3.6195 C.2       1 <0>         0.5631
     33 O4         -2.0254  -12.3069   -4.6085 O.2       1 <0>        -0.5195
     34 C26        -3.1677  -12.4720   -2.5793 C.ar      1 <0>        -0.1824
     35 C27        -3.6405  -11.8073   -1.4445 C.ar      1 <0>        -0.0391
     36 C28        -4.3274  -12.5052   -0.4764 C.ar      1 <0>        -0.1591
     37 C29        -4.5504  -13.8689   -0.6264 C.ar      1 <0>         0.1615
     38 C30        -4.0818  -14.5338   -1.7536 C.ar      1 <0>        -0.2190
     39 C31        -3.3991  -13.8421   -2.7291 C.ar      1 <0>        -0.0117
     40 O5         -5.2270  -14.5533    0.3304 O.3       1 <0>        -0.3114
     41 C32        -5.4210  -15.9523    0.1128 C.3       1 <0>         0.0231
     42 H2          0.9282    1.8596    0.5183 H         1 <0>         0.0711
     43 H3          0.0015    1.8619   -1.0014 H         1 <0>         0.0670
     44 H4         -0.8511    1.8374    0.5608 H         1 <0>         0.0664
     45 H5          1.0814   -0.1360   -1.8595 H         1 <0>         0.1256
     46 H6          1.1139   -2.5966   -1.8865 H         1 <0>         0.1392
     47 H7         -0.9705   -0.1945    1.8795 H         1 <0>         0.1264
     48 H8         -0.3770   -3.0524    2.9506 H         1 <0>         0.0730
     49 H9         -1.9504   -2.2970    2.6013 H         1 <0>         0.0729
     50 H10        -1.5031   -3.8277    1.8107 H         1 <0>         0.0635
     51 H11         0.1938   -4.6743    0.8028 H         1 <0>         0.4123
     52 H12         2.0228   -6.7004   -1.1781 H         1 <0>         0.0849
     53 H13         1.2914   -6.5154    0.4341 H         1 <0>         0.0874
     54 H14         0.1147   -8.3616    1.4841 H         1 <0>         0.1210
     55 H15        -0.1188  -10.8053    1.6633 H         1 <0>         0.1241
     56 H16         1.6546  -11.2507   -2.1995 H         1 <0>         0.1200
     57 H17         1.8761   -8.8055   -2.3750 H         1 <0>         0.1152
     58 H18        -0.2112  -12.8743   -0.5046 H         1 <0>         0.3877
     59 H19         0.1227   -6.2907   -3.3102 H         1 <0>         0.4110
     60 H20         0.2188   -6.8755   -5.0591 H         1 <0>         0.1289
     61 H21         0.0197   -7.6852   -7.3691 H         1 <0>         0.1306
     62 H22        -1.2203   -9.7526   -7.8568 H         1 <0>         0.1318
     63 H23        -2.2700  -11.0288   -6.0395 H         1 <0>         0.1526
     64 H24        -2.4609   -9.9610   -2.6491 H         1 <0>         0.4237
     65 H25        -3.4670  -10.7479   -1.3268 H         1 <0>         0.1346
     66 H26        -4.6931  -11.9923    0.4009 H         1 <0>         0.1390
     67 H27        -4.2572  -15.5934   -1.8665 H         1 <0>         0.1377
     68 H28        -3.0389  -14.3586   -3.6065 H         1 <0>         0.1409
     69 H29        -5.9844  -16.1021   -0.8082 H         1 <0>         0.0598
     70 H30        -4.4521  -16.4449    0.0302 H         1 <0>         0.0603
     71 H31        -5.9743  -16.3770    0.9504 H         1 <0>         0.1046
@<TRIPOS>BOND
     1    1    2 1
     2    1   42 1
     3    1   43 1
     4    1   44 1
     5    2    7 ar
     6    2    3 ar
     7    3    4 ar
     8    3   45 1
     9    4    5 ar
    10    4   46 1
    11    5    6 ar
    12    5    9 1
    13    6    7 ar
    14    6    8 1
    15    7   47 1
    16    8   48 1
    17    8   49 1
    18    8   50 1
    19    9   10 am
    20    9   51 1
    21   10   11 2
    22   10   12 1
    23   12   13 1
    24   12   14 1
    25   12   22 1
    26   14   15 1
    27   14   52 1
    28   14   53 1
    29   15   20 ar
    30   15   16 ar
    31   16   17 ar
    32   16   54 1
    33   17   18 ar
    34   17   55 1
    35   18   19 ar
    36   18   21 1
    37   19   20 ar
    38   19   56 1
    39   20   57 1
    40   21   58 1
    41   22   23 am
    42   22   59 1
    43   23   24 2
    44   23   25 1
    45   25   30 ar
    46   25   26 ar
    47   26   27 ar
    48   26   60 1
    49   27   28 ar
    50   27   61 1
    51   28   29 ar
    52   28   62 1
    53   29   30 ar
    54   29   63 1
    55   30   31 1
    56   31   32 am
    57   31   64 1
    58   32   33 2
    59   32   34 1
    60   34   39 ar
    61   34   35 ar
    62   35   36 ar
    63   35   65 1
    64   36   37 ar
    65   36   66 1
    66   37   38 ar
    67   37   40 1
    68   38   39 ar
    69   38   67 1
    70   39   68 1
    71   40   41 1
    72   41   69 1
    73   41   70 1
    74   41   71 1
@<TRIPOS>MOLECULE
ZINC71295347
   54    55     0     0     0
SMALL
USER_CHARGES

@<TRIPOS>ATOM
      1 C1          0.0148    1.5031    0.0101 C.3       1 <0>        -0.1266
      2 C2          0.0185   -0.0039    0.0019 C.ar      1 <0>         0.0879
      3 C3          0.0221   -0.7031   -1.1870 C.ar      1 <0>        -0.2800
      4 C4          0.0255   -2.0965   -1.1625 C.ar      1 <0>         0.4773
      5 N1          0.0252   -2.7599   -0.0150 N.ar      1 <0>        -0.5765
      6 C5          0.0218   -2.1331    1.1502 C.ar      1 <0>         0.4975
      7 C6          0.0242   -0.7280    1.2029 C.ar      1 <0>        -0.2076
      8 C7          0.0267   -0.0473    2.4628 C.1       1 <0>         0.2671
      9 N2          0.0286    0.4927    3.4622 N.1       1 <0>        -0.4332
     10 N3          0.0217   -2.8650    2.3245 N.pl3     1 <0>        -0.7022
     11 C8          0.0253   -4.3291    2.2750 C.3       1 <0>         0.1452
     12 H1         -0.5619   -4.6653    1.4205 H         1 <0>         0.0976
     13 C9          1.4638   -4.8311    2.1345 C.3       1 <0>        -0.1681
     14 C10        -0.5851   -4.8844    3.5634 C.3       1 <0>        -0.1309
     15 C11        -2.0601   -4.4857    3.6421 C.3       1 <0>        -0.1173
     16 C12        -2.6705   -5.0410    4.9305 C.3       1 <0>        -0.1448
     17 C13        -4.1455   -4.6423    5.0092 C.3       1 <0>         0.1248
     18 C14        -4.8933   -5.2139    3.8030 C.3       1 <0>        -0.1420
     19 C15        -4.7559   -5.1976    6.2976 C.3       1 <0>        -0.1801
     20 O1         -4.2546   -3.2175    5.0060 O.3       1 <0>        -0.5583
     21 N4          0.0286   -2.7997   -2.3569 N.pl3     1 <0>        -0.6143
     22 C16         0.1533   -4.1945   -2.3480 C.2       1 <0>         0.3113
     23 C17         0.1830   -5.0128   -1.2071 C.2       1 <0>        -0.2720
     24 C18         0.3131   -6.2943   -1.6190 C.2       1 <0>         0.0884
     25 N5          0.3642   -6.2926   -2.9677 N.pl3     1 <0>        -0.4707
     26 H2          0.4555   -7.0738   -3.5354 H         1 <0>         0.4386
     27 N6          0.2570   -4.9661   -3.4045 N.2       1 <0>        -0.3301
     28 C19         0.3885   -7.5087   -0.7298 C.3       1 <0>        -0.0946
     29 H3          1.0416    1.8690    0.0088 H         1 <0>         0.0872
     30 H4         -0.5028    1.8700   -0.8762 H         1 <0>         0.0832
     31 H5         -0.4970    1.8603    0.9037 H         1 <0>         0.0723
     32 H6          0.0220   -0.1752   -2.1292 H         1 <0>         0.1427
     33 H7          0.0192   -2.4086    3.1804 H         1 <0>         0.4096
     34 H8          1.4665   -5.9205    2.0977 H         1 <0>         0.0662
     35 H9          1.8986   -4.4355    1.2166 H         1 <0>         0.0664
     36 H10         2.0510   -4.4950    2.9890 H         1 <0>         0.0558
     37 H11        -0.5018   -5.9712    3.5659 H         1 <0>         0.0808
     38 H12        -0.0523   -4.4773    4.4228 H         1 <0>         0.0663
     39 H13        -2.1433   -3.3989    3.6397 H         1 <0>         0.0694
     40 H14        -2.5929   -4.8929    2.7828 H         1 <0>         0.0678
     41 H15        -2.5872   -6.1279    4.9330 H         1 <0>         0.0715
     42 H16        -2.1377   -4.6339    5.7899 H         1 <0>         0.0633
     43 H17        -4.8101   -6.3007    3.8055 H         1 <0>         0.0687
     44 H18        -5.9442   -4.9298    3.8591 H         1 <0>         0.0607
     45 H19        -4.4585   -4.8183    2.8851 H         1 <0>         0.0659
     46 H20        -4.2231   -4.7905    7.1570 H         1 <0>         0.0572
     47 H21        -5.8067   -4.9136    6.3537 H         1 <0>         0.0636
     48 H22        -4.6726   -6.2845    6.3001 H         1 <0>         0.0653
     49 H23        -3.8028   -2.7868    5.7445 H         1 <0>         0.3742
     50 H24        -0.0555   -2.3257   -3.1990 H         1 <0>         0.4273
     51 H25         0.1142   -4.6781   -0.1826 H         1 <0>         0.1894
     52 H26        -0.6162   -7.8930   -0.5537 H         1 <0>         0.0813
     53 H27         0.9916   -8.2767   -1.2141 H         1 <0>         0.0712
     54 H28         0.8446   -7.2347    0.2215 H         1 <0>         0.0864
@<TRIPOS>BOND
     1    1    2 1
     2    1   29 1
     3    1   30 1
     4    1   31 1
     5    2    7 ar
     6    2    3 ar
     7    3    4 ar
     8    3   32 1
     9    4    5 ar
    10    4   21 1
    11    5    6 ar
    12    6    7 ar
    13    6   10 1
    14    7    8 1
    15    8    9 3
    16   10   11 1
    17   10   33 1
    18   11   12 1
    19   11   13 1
    20   11   14 1
    21   13   34 1
    22   13   35 1
    23   13   36 1
    24   14   15 1
    25   14   37 1
    26   14   38 1
    27   15   16 1
    28   15   39 1
    29   15   40 1
    30   16   17 1
    31   16   41 1
    32   16   42 1
    33   17   18 1
    34   17   19 1
    35   17   20 1
    36   18   43 1
    37   18   44 1
    38   18   45 1
    39   19   46 1
    40   19   47 1
    41   19   48 1
    42   20   49 1
    43   21   22 1
    44   21   50 1
    45   22   27 2
    46   22   23 1
    47   23   24 2
    48   23   51 1
    49   24   25 1
    50   24   28 1
    51   25   26 1
    52   25   27 1
    53   28   52 1
    54   28   53 1
    55   28   54 1
@<TRIPOS>MOLECULE
ZINC71295348
   54    55     0     0     0
SMALL
USER_CHARGES

@<TRIPOS>ATOM
      1 C1         -0.3671    1.4684    0.0397 C.3       1 <0>        -0.1266
      2 C2         -0.1037   -0.0151    0.0115 C.ar      1 <0>         0.0878
      3 C3         -0.1614   -0.7197   -1.1728 C.ar      1 <0>        -0.2799
      4 C4          0.0869   -2.0910   -1.1671 C.ar      1 <0>         0.4773
      5 N1          0.3775   -2.7284   -0.0418 N.ar      1 <0>        -0.5759
      6 C5          0.4443   -2.0954    1.1180 C.ar      1 <0>         0.4975
      7 C6          0.2114   -0.7105    1.1880 C.ar      1 <0>        -0.2087
      8 C7          0.2890   -0.0221    2.4413 C.1       1 <0>         0.2670
      9 N2          0.3506    0.5240    3.4355 N.1       1 <0>        -0.4336
     10 N3          0.7510   -2.7997    2.2689 N.pl3     1 <0>        -0.7028
     11 C8          1.0005   -4.2417    2.2005 C.3       1 <0>         0.1454
     12 H1          1.5031   -4.4794    1.2630 H         1 <0>         0.0988
     13 C9         -0.3302   -4.9935    2.2707 C.3       1 <0>        -0.1694
     14 C10         1.8864   -4.6623    3.3749 C.3       1 <0>        -0.1305
     15 C11         3.2618   -4.0065    3.2367 C.3       1 <0>        -0.1168
     16 C12         4.1477   -4.4270    4.4111 C.3       1 <0>        -0.1447
     17 C13         5.5231   -3.7712    4.2728 C.3       1 <0>         0.1255
     18 C14         5.3648   -2.2494    4.2727 C.3       1 <0>        -0.1423
     19 C15         6.4089   -4.1918    5.4473 C.3       1 <0>        -0.1799
     20 O1          6.1281   -4.1873    3.0469 O.3       1 <0>        -0.5582
     21 N4          0.0286   -2.7997   -2.3569 N.pl3     1 <0>        -0.6147
     22 C16         0.1533   -4.1945   -2.3480 C.2       1 <0>         0.3120
     23 C17         0.1830   -5.0128   -1.2071 C.2       1 <0>        -0.2693
     24 C18         0.3131   -6.2943   -1.6190 C.2       1 <0>         0.0893
     25 N5          0.3642   -6.2926   -2.9677 N.pl3     1 <0>        -0.4705
     26 H2          0.4555   -7.0738   -3.5354 H         1 <0>         0.4389
     27 N6          0.2570   -4.9661   -3.4045 N.2       1 <0>        -0.3293
     28 C19         0.3885   -7.5087   -0.7298 C.3       1 <0>        -0.0943
     29 H3          0.5683    2.0064   -0.1144 H         1 <0>         0.0874
     30 H4         -1.0701    1.7277   -0.7519 H         1 <0>         0.0831
     31 H5         -0.7898    1.7441    1.0058 H         1 <0>         0.0720
     32 H6         -0.3974   -0.2130   -2.0969 H         1 <0>         0.1427
     33 H7          0.8008   -2.3388    3.1209 H         1 <0>         0.4090
     34 H8         -0.9614   -4.6939    1.4340 H         1 <0>         0.0662
     35 H9         -0.1446   -6.0663    2.2199 H         1 <0>         0.0671
     36 H10        -0.8328   -4.7557    3.2083 H         1 <0>         0.0564
     37 H11         1.4249   -4.3449    4.3100 H         1 <0>         0.0662
     38 H12         1.9991   -5.7464    3.3750 H         1 <0>         0.0803
     39 H13         3.7233   -4.3239    2.3016 H         1 <0>         0.0711
     40 H14         3.1490   -2.9223    3.2366 H         1 <0>         0.0653
     41 H15         3.6862   -4.1096    5.3462 H         1 <0>         0.0701
     42 H16         4.2604   -5.5112    4.4112 H         1 <0>         0.0649
     43 H17         4.9033   -1.9321    5.2078 H         1 <0>         0.0682
     44 H18         6.3447   -1.7823    4.1742 H         1 <0>         0.0611
     45 H19         4.7337   -1.9499    3.4360 H         1 <0>         0.0651
     46 H20         6.5217   -5.2759    5.4473 H         1 <0>         0.0576
     47 H21         7.3888   -3.7246    5.3488 H         1 <0>         0.0637
     48 H22         5.9475   -3.8744    6.3824 H         1 <0>         0.0652
     49 H23         6.2593   -5.1429    2.9775 H         1 <0>         0.3739
     50 H24        -0.0985   -2.3295   -3.1958 H         1 <0>         0.4273
     51 H25         0.1142   -4.6781   -0.1826 H         1 <0>         0.1852
     52 H26        -0.6162   -7.8930   -0.5537 H         1 <0>         0.0811
     53 H27         0.9916   -8.2767   -1.2141 H         1 <0>         0.0714
     54 H28         0.8446   -7.2347    0.2215 H         1 <0>         0.0863
@<TRIPOS>BOND
     1    1    2 1
     2    1   29 1
     3    1   30 1
     4    1   31 1
     5    2    7 ar
     6    2    3 ar
     7    3    4 ar
     8    3   32 1
     9    4    5 ar
    10    4   21 1
    11    5    6 ar
    12    6    7 ar
    13    6   10 1
    14    7    8 1
    15    8    9 3
    16   10   11 1
    17   10   33 1
    18   11   12 1
    19   11   13 1
    20   11   14 1
    21   13   34 1
    22   13   35 1
    23   13   36 1
    24   14   15 1
    25   14   37 1
    26   14   38 1
    27   15   16 1
    28   15   39 1
    29   15   40 1
    30   16   17 1
    31   16   41 1
    32   16   42 1
    33   17   18 1
    34   17   19 1
    35   17   20 1
    36   18   43 1
    37   18   44 1
    38   18   45 1
    39   19   46 1
    40   19   47 1
    41   19   48 1
    42   20   49 1
    43   21   22 1
    44   21   50 1
    45   22   27 2
    46   22   23 1
    47   23   24 2
    48   23   51 1
    49   24   25 1
    50   24   28 1
    51   25   26 1
    52   25   27 1
    53   28   52 1
    54   28   53 1
    55   28   54 1
@<TRIPOS>MOLECULE
ZINC03918087
   69    73     0     0     0
SMALL
USER_CHARGES
(7S,9S)-7-[(2R,4S,5S,6S)-4-amino-5-hydroxy-6-methyl-tetrahydropyran-2-yl]oxy-6,9,11-trihydroxy-9-(2-hydroxyacetyl)-4-methoxy-8,10-dihydro-7H-tetracene-5,12-dione
@<TRIPOS>ATOM
      1 C1          0.5150    0.0942    7.2444 C.3       1 <0>        -0.1580
      2 C2          0.1900   -0.3014    5.8026 C.3       1 <0>         0.0587
      3 H1          1.1127   -0.3614    5.2254 H         1 <0>         0.0888
      4 C3         -0.5085   -1.6636    5.7921 C.3       1 <0>         0.0555
      5 H2          0.1643   -2.4212    6.1939 H         1 <0>         0.0935
      6 C4         -0.8843   -2.0248    4.3517 C.3       1 <0>         0.0407
      7 H3          0.0209   -2.1235    3.7526 H         1 <0>         0.1613
      8 C5         -1.7663   -0.9147    3.7721 C.3       1 <0>        -0.1574
      9 C6         -1.0192    0.4186    3.8607 C.3       1 <0>         0.2505
     10 H4         -1.6586    1.2192    3.4888 H         1 <0>         0.1282
     11 O1         -0.6723    0.6792    5.2222 O.3       1 <0>        -0.3651
     12 O2          0.1696    0.3521    3.0704 O.3       1 <0>        -0.3828
     13 C7          0.7875    1.6202    2.8423 C.3       1 <0>         0.1526
     14 H5          0.0364    2.4057    2.9245 H         1 <0>         0.0878
     15 C8          1.8713    1.8482    3.8936 C.3       1 <0>        -0.1239
     16 C9          2.6612    3.1042    3.5067 C.3       1 <0>         0.1037
     17 C10         3.4811    2.7902    2.2574 C.3       1 <0>        -0.0998
     18 C11         2.6090    2.1869    1.1864 C.ar      1 <0>        -0.0396
     19 C12         1.3765    1.6468    1.4552 C.ar      1 <0>        -0.0831
     20 C13         0.6155    1.0847    0.4217 C.ar      1 <0>         0.1754
     21 C14         1.0919    1.0819   -0.8875 C.ar      1 <0>        -0.1384
     22 C15         2.3535    1.6455   -1.1656 C.ar      1 <0>        -0.1258
     23 C16         3.1021    2.1926   -0.1251 C.ar      1 <0>         0.1594
     24 O3          4.3175    2.7354   -0.3842 O.3       1 <0>        -0.4706
     25 C17         2.8707    1.6513   -2.5448 C.2       1 <0>         0.4337
     26 O4          3.9582    2.1389   -2.7855 O.2       1 <0>        -0.4026
     27 C18         2.0646    1.0643   -3.6354 C.ar      1 <0>        -0.0823
     28 C19         2.5444    1.0651   -4.9411 C.ar      1 <0>        -0.1037
     29 C20         1.7841    0.5148   -5.9600 C.ar      1 <0>        -0.0521
     30 C21         0.5481   -0.0381   -5.6929 C.ar      1 <0>        -0.1899
     31 C22         0.0493   -0.0508   -4.3941 C.ar      1 <0>         0.1799
     32 C23         0.8055    0.5015   -3.3556 C.ar      1 <0>        -0.1650
     33 C24         0.2887    0.4960   -1.9751 C.2       1 <0>         0.4376
     34 O5         -0.7994    0.0089   -1.7342 O.2       1 <0>        -0.4060
     35 O6         -1.1652   -0.5961   -4.1364 O.3       1 <0>        -0.2855
     36 C25        -1.8803   -1.1413   -5.2470 C.3       1 <0>         0.0181
     37 O7         -0.5973    0.5440    0.6972 O.3       1 <0>        -0.4647
     38 C26         1.7077    4.2347    3.2174 C.2       1 <0>         0.3173
     39 O8          1.3555    4.4523    2.0830 O.2       1 <0>        -0.3991
     40 C27         1.1935    5.0937    4.3439 C.3       1 <0>         0.0415
     41 O9          0.3120    6.0889    3.8199 O.3       1 <0>        -0.5563
     42 O10         3.5348    3.4728    4.5758 O.3       1 <0>        -0.5342
     43 O11        -1.6907   -1.6002    6.5925 O.3       1 <0>        -0.5647
     44 H6         -0.4077    0.1538    7.8216 H         1 <0>         0.0713
     45 H7          1.1728   -0.6538    7.6870 H         1 <0>         0.0811
     46 H8          1.0115    1.0646    7.2518 H         1 <0>         0.0831
     47 H9         -2.6934   -0.8513    4.3418 H         1 <0>         0.1199
     48 H10        -1.9930   -1.1367    2.7293 H         1 <0>         0.1121
     49 H11         2.5404    0.9883    3.9239 H         1 <0>         0.0986
     50 H12         1.4112    1.9903    4.8714 H         1 <0>         0.0994
     51 H13         4.2726    2.0865    2.5147 H         1 <0>         0.1131
     52 H14         3.9280    3.7102    1.8805 H         1 <0>         0.0957
     53 H15         4.2898    3.6779   -0.5986 H         1 <0>         0.4022
     54 H16         3.5102    1.4955   -5.1607 H         1 <0>         0.1477
     55 H17         2.1617    0.5187   -6.9718 H         1 <0>         0.1448
     56 H18        -0.0349   -0.4635   -6.4964 H         1 <0>         0.1451
     57 H19        -2.8331   -1.5440   -4.9033 H         1 <0>         0.1073
     58 H20        -2.0613   -0.3577   -5.9827 H         1 <0>         0.0618
     59 H21        -1.2921   -1.9382   -5.7021 H         1 <0>         0.0608
     60 H22        -0.5786   -0.4124    0.8386 H         1 <0>         0.3887
     61 H23         0.6995    4.5228    4.9997 H         1 <0>         0.0740
     62 H24         2.0325    5.5781    4.8435 H         1 <0>         0.0863
     63 H25        -0.0576    6.6794    4.4906 H         1 <0>         0.3912
     64 H26         4.0772    4.2515    4.3898 H         1 <0>         0.3917
     65 H27        -1.8810   -3.5544    3.4001 H         1 <0>         0.4393
     66 H28        -1.0879   -4.0276    4.7832 H         1 <0>         0.4381
     67 H29        -1.5275   -1.3709    7.5176 H         1 <0>         0.4083
     68 N1         -1.6423   -3.2885    4.3540 N.4       1 <0>        -0.6408
     69 H30        -2.5070   -3.1624    4.8930 H         1 <0>         0.4454
@<TRIPOS>BOND
     1    1    2 1
     2    1   44 1
     3    1   45 1
     4    1   46 1
     5    2    3 1
     6    2   11 1
     7    2    4 1
     8    4    5 1
     9    4    6 1
    10    4   43 1
    11    6    7 1
    12    6    8 1
    13    6   68 1
    14    8    9 1
    15    8   47 1
    16    8   48 1
    17    9   10 1
    18    9   11 1
    19    9   12 1
    20   12   13 1
    21   13   14 1
    22   13   19 1
    23   13   15 1
    24   15   16 1
    25   15   49 1
    26   15   50 1
    27   16   17 1
    28   16   38 1
    29   16   42 1
    30   17   18 1
    31   17   51 1
    32   17   52 1
    33   18   23 ar
    34   18   19 ar
    35   19   20 ar
    36   20   21 ar
    37   20   37 1
    38   21   33 1
    39   21   22 ar
    40   22   23 ar
    41   22   25 1
    42   23   24 1
    43   24   53 1
    44   25   26 2
    45   25   27 1
    46   27   32 ar
    47   27   28 ar
    48   28   29 ar
    49   28   54 1
    50   29   30 ar
    51   29   55 1
    52   30   31 ar
    53   30   56 1
    54   31   32 ar
    55   31   35 1
    56   32   33 1
    57   33   34 2
    58   35   36 1
    59   36   57 1
    60   36   58 1
    61   36   59 1
    62   37   60 1
    63   38   39 2
    64   38   40 1
    65   40   41 1
    66   40   61 1
    67   40   62 1
    68   41   63 1
    69   42   64 1
    70   43   67 1
    71   65   68 1
    72   66   68 1
    73   68   69 1
@<TRIPOS>MOLECULE
ZINC15449300
   69    73     0     0     0
SMALL
USER_CHARGES
(7S,9S)-7-[(2S,4S,5S,6S)-4-amino-5-hydroxy-6-methyl-tetrahydropyran-2-yl]oxy-6,9,11-trihydroxy-9-(2-hydroxyacetyl)-4-methoxy-8,10-dihydro-7H-tetracene-5,12-dione
@<TRIPOS>ATOM
      1 C1         -1.9293   -2.2582   -4.4934 C.3       1 <0>        -0.1592
      2 C2         -2.4406   -1.0478   -3.7095 C.3       1 <0>         0.0724
      3 H1         -1.9870   -0.1395   -4.1063 H         1 <0>         0.0790
      4 C3         -3.9630   -0.9587   -3.8436 C.3       1 <0>         0.0515
      5 H2         -4.2282   -0.8049   -4.8896 H         1 <0>         0.0957
      6 C4         -4.4733    0.2191   -3.0078 C.3       1 <0>         0.0431
      7 H3         -4.0602    1.1493   -3.3980 H         1 <0>         0.1559
      8 C5         -4.0278    0.0305   -1.5544 C.3       1 <0>        -0.1676
      9 C6         -2.5029   -0.0968   -1.5087 C.3       1 <0>         0.2630
     10 H4         -2.0499    0.8239   -1.8765 H         1 <0>         0.0635
     11 O1         -2.0927   -1.1913   -2.3309 O.3       1 <0>        -0.3765
     12 O2         -2.0841   -0.3291   -0.1623 O.3       1 <0>        -0.3186
     13 C7         -0.6720   -0.2292    0.0326 C.3       1 <0>         0.1415
     14 H5         -0.1599   -0.5912   -0.8589 H         1 <0>         0.0882
     15 C8         -0.2989    1.2326    0.2685 C.3       1 <0>        -0.1297
     16 C9          1.1748    1.2924    0.6878 C.3       1 <0>         0.1047
     17 C10         1.3000    0.6955    2.0876 C.3       1 <0>        -0.0989
     18 C11         0.6367   -0.6565    2.1505 C.ar      1 <0>        -0.0405
     19 C12        -0.2724   -1.0772    1.2128 C.ar      1 <0>        -0.0880
     20 C13        -0.8680   -2.3402    1.3293 C.ar      1 <0>         0.1834
     21 C14        -0.5429   -3.1813    2.3913 C.ar      1 <0>        -0.1372
     22 C15         0.3939   -2.7509    3.3525 C.ar      1 <0>        -0.1247
     23 C16         0.9761   -1.4912    3.2234 C.ar      1 <0>         0.1549
     24 O3          1.8788   -1.0701    4.1436 O.3       1 <0>        -0.4698
     25 C17         0.7490   -3.6283    4.4810 C.2       1 <0>         0.4347
     26 O4          1.5567   -3.2572    5.3106 O.2       1 <0>        -0.4044
     27 C18         0.1224   -4.9612    4.6021 C.ar      1 <0>        -0.0828
     28 C19         0.4525   -5.7977    5.6633 C.ar      1 <0>        -0.1043
     29 C20        -0.1368   -7.0466    5.7716 C.ar      1 <0>        -0.0540
     30 C21        -1.0540   -7.4733    4.8327 C.ar      1 <0>        -0.1901
     31 C22        -1.3993   -6.6527    3.7634 C.ar      1 <0>         0.1787
     32 C23        -0.8124   -5.3894    3.6413 C.ar      1 <0>        -0.1622
     33 C24        -1.1688   -4.5097    2.5134 C.2       1 <0>         0.4351
     34 O5         -1.9781   -4.8800    1.6845 O.2       1 <0>        -0.3987
     35 O6         -2.3014   -7.0761    2.8438 O.3       1 <0>        -0.2848
     36 C25        -2.8591   -8.3780    3.0337 C.3       1 <0>         0.0185
     37 O7         -1.7683   -2.7474    0.4004 O.3       1 <0>        -0.4539
     38 C26         2.0110    0.4962   -0.2806 C.2       1 <0>         0.3170
     39 O8          2.3022   -0.6482   -0.0279 O.2       1 <0>        -0.3970
     40 C27         2.4839    1.1280   -1.5644 C.3       1 <0>         0.0415
     41 O9          3.2526    0.1796   -2.3072 O.3       1 <0>        -0.5554
     42 O10         1.6166    2.6513    0.7024 O.3       1 <0>        -0.5345
     43 O11        -4.5556   -2.1713   -3.3740 O.3       1 <0>        -0.5585
     44 H6         -2.2987   -3.1733   -4.0305 H         1 <0>         0.0769
     45 H7         -2.2857   -2.2018   -5.5220 H         1 <0>         0.0820
     46 H8         -0.8393   -2.2617   -4.4862 H         1 <0>         0.0828
     47 H9         -4.4811   -0.8740   -1.1489 H         1 <0>         0.1209
     48 H10        -4.3393    0.8917   -0.9632 H         1 <0>         0.1087
     49 H11        -0.4428    1.8013   -0.6502 H         1 <0>         0.0888
     50 H12        -0.9231    1.6480    1.0597 H         1 <0>         0.1057
     51 H13         0.8243    1.3626    2.8065 H         1 <0>         0.1138
     52 H14         2.3553    0.5899    2.3394 H         1 <0>         0.0956
     53 H15         2.7938   -1.2990    3.9304 H         1 <0>         0.3996
     54 H16         1.1687   -5.4730    6.4036 H         1 <0>         0.1471
     55 H17         0.1238   -7.6920    6.5974 H         1 <0>         0.1439
     56 H18        -1.5061   -8.4494    4.9285 H         1 <0>         0.1444
     57 H19        -3.5639   -8.5921    2.2303 H         1 <0>         0.1069
     58 H20        -2.0609   -9.1202    3.0242 H         1 <0>         0.0608
     59 H21        -3.3780   -8.4148    3.9916 H         1 <0>         0.0606
     60 H22        -1.3705   -3.1599   -0.3785 H         1 <0>         0.3918
     61 H23         1.6935    1.4139   -2.1061 H         1 <0>         0.0705
     62 H24         3.1013    1.9968   -1.3359 H         1 <0>         0.0874
     63 H25         3.5902    0.5188   -3.1475 H         1 <0>         0.3901
     64 H26         2.5422    2.7612    0.9598 H         1 <0>         0.3916
     65 H27        -6.3003    1.0375   -2.5273 H         1 <0>         0.4398
     66 H28        -6.2589    0.3207   -4.0274 H         1 <0>         0.4394
     67 H29        -4.2727   -2.9600   -3.8568 H         1 <0>         0.4094
     68 N1         -5.9457    0.2456   -3.0610 N.4       1 <0>        -0.6379
     69 H30        -6.3137   -0.6231   -2.6560 H         1 <0>         0.4484
@<TRIPOS>BOND
     1    1    2 1
     2    1   44 1
     3    1   45 1
     4    1   46 1
     5    2    3 1
     6    2   11 1
     7    2    4 1
     8    4    5 1
     9    4    6 1
    10    4   43 1
    11    6    7 1
    12    6    8 1
    13    6   68 1
    14    8    9 1
    15    8   47 1
    16    8   48 1
    17    9   10 1
    18    9   11 1
    19    9   12 1
    20   12   13 1
    21   13   14 1
    22   13   19 1
    23   13   15 1
    24   15   16 1
    25   15   49 1
    26   15   50 1
    27   16   17 1
    28   16   38 1
    29   16   42 1
    30   17   18 1
    31   17   51 1
    32   17   52 1
    33   18   23 ar
    34   18   19 ar
    35   19   20 ar
    36   20   21 ar
    37   20   37 1
    38   21   33 1
    39   21   22 ar
    40   22   23 ar
    41   22   25 1
    42   23   24 1
    43   24   53 1
    44   25   26 2
    45   25   27 1
    46   27   32 ar
    47   27   28 ar
    48   28   29 ar
    49   28   54 1
    50   29   30 ar
    51   29   55 1
    52   30   31 ar
    53   30   56 1
    54   31   32 ar
    55   31   35 1
    56   32   33 1
    57   33   34 2
    58   35   36 1
    59   36   57 1
    60   36   58 1
    61   36   59 1
    62   37   60 1
    63   38   39 2
    64   38   40 1
    65   40   41 1
    66   40   61 1
    67   40   62 1
    68   41   63 1
    69   42   64 1
    70   43   67 1
    71   65   68 1
    72   66   68 1
    73   68   69 1
@<TRIPOS>MOLECULE
ZINC34842284
   60    64     0     0     0
SMALL
USER_CHARGES

@<TRIPOS>ATOM
      1 C1         -0.0178    1.4608    0.0101 C.3       1 <0>         0.0965
      2 N1          0.0021   -0.0041    0.0020 N.pl3     1 <0>        -0.3671
      3 C2          0.0078   -0.7883   -1.0945 C.2       1 <0>         0.0815
      4 C3          0.0278   -2.0866   -0.6734 C.2       1 <0>        -0.2075
      5 C4          0.0343   -2.0758    0.7354 C.2       1 <0>         0.0682
      6 N2          0.0245   -0.8308    1.1317 N.2       1 <0>        -0.2890
      7 C5          0.0397   -3.2901   -1.5414 C.ar      1 <0>        -0.0366
      8 C6          0.0543   -4.5644   -0.9807 C.ar      1 <0>        -0.0385
      9 C7          0.0802   -5.6649   -1.8426 C.ar      1 <0>        -0.1799
     10 C8          0.1229   -5.4562   -3.2387 C.ar      1 <0>         0.1790
     11 C9          0.2532   -6.5705   -4.1609 C.2       1 <0>        -0.0928
     12 C10        -0.3414   -7.7510   -4.0859 C.2       1 <0>        -0.0827
     13 C11        -1.2649   -8.2108   -3.0641 C.ar      1 <0>        -0.0205
     14 C12        -2.3865   -8.9737   -3.4314 C.ar      1 <0>        -0.0788
     15 C13        -3.2359   -9.4502   -2.4792 C.ar      1 <0>        -0.1379
     16 C14        -3.0081   -9.1944   -1.1257 C.ar      1 <0>         0.1494
     17 C15        -1.9219   -8.4304   -0.7344 C.ar      1 <0>        -0.0939
     18 C16        -1.0553   -7.9152   -1.6995 C.ar      1 <0>        -0.1193
     19 C17         0.0500   -7.0298   -1.2992 C.2       1 <0>         0.4578
     20 O1          0.9175   -7.4185   -0.5376 O.2       1 <0>        -0.4210
     21 N3         -3.8773   -9.7097   -0.1653 N.pl3     1 <0>        -1.0655
     22 S1         -4.3812  -11.2840   -0.2641 S.o2      1 <0>         2.7793
     23 O2         -5.2247  -11.5116    0.8566 O.2       1 <0>        -0.9610
     24 O3         -4.8189  -11.4872   -1.6007 O.2       1 <0>        -0.9643
     25 N4         -3.0455  -12.2399   -0.0531 N.pl3     1 <0>        -0.9947
     26 C18        -2.6613  -12.6751    1.2920 C.3       1 <0>         0.0938
     27 C19        -2.2480  -12.6502   -1.2115 C.3       1 <0>         0.1210
     28 C20        -1.0763  -11.6831   -1.3923 C.3       1 <0>         0.0178
     29 H1         -1.4536  -10.6631   -1.4645 H         1 <0>         0.0816
     30 C21        -0.3126  -12.0380   -2.6715 C.3       1 <0>         0.0320
     31 O4          0.8442  -11.2023   -2.7746 O.3       1 <0>        -0.3693
     32 C22         1.7288  -11.3082   -1.6551 C.3       1 <0>         0.0253
     33 C23         0.9651  -10.9534   -0.3760 C.3       1 <0>         0.0211
     34 O5         -0.1924  -11.7879   -0.2721 O.3       1 <0>        -0.3671
     35 N5          0.0651   -4.2087   -3.7198 N.ar      1 <0>        -0.4628
     36 C24         0.0305   -3.1599   -2.9350 C.ar      1 <0>         0.1258
     37 H2          1.0048    1.8381    0.0023 H         1 <0>         0.0802
     38 H3         -0.5450    1.8219   -0.8730 H         1 <0>         0.0921
     39 H4         -0.5280    1.8123    0.9069 H         1 <0>         0.0936
     40 H5         -0.0021   -0.4506   -2.1203 H         1 <0>         0.1820
     41 H6          0.0494   -2.9451    1.3761 H         1 <0>         0.1866
     42 H7          0.0463   -4.6991    0.0909 H         1 <0>         0.1426
     43 H8          0.9100   -6.4187   -5.0047 H         1 <0>         0.1374
     44 H9         -0.1138   -8.4521   -4.8752 H         1 <0>         0.1386
     45 H10        -2.5760   -9.1830   -4.4738 H         1 <0>         0.1447
     46 H11        -4.0961  -10.0325   -2.7747 H         1 <0>         0.1659
     47 H12        -1.7458   -8.2343    0.3129 H         1 <0>         0.1371
     48 H13        -4.1869   -9.1460    0.5609 H         1 <0>         0.4277
     49 H14        -3.1500  -13.6222    1.5208 H         1 <0>         0.0607
     50 H15        -1.5799  -12.8040    1.3372 H         1 <0>         0.0884
     51 H16        -2.9683  -11.9229    2.0187 H         1 <0>         0.0679
     52 H17        -1.8656  -13.6582   -1.0506 H         1 <0>         0.0981
     53 H18        -2.8717  -12.6365   -2.1052 H         1 <0>         0.1107
     54 H19        -0.0048  -13.0830   -2.6340 H         1 <0>         0.0632
     55 H20        -0.9562  -11.8775   -3.5364 H         1 <0>         0.1055
     56 H21         2.1052  -12.3286   -1.5835 H         1 <0>         0.0597
     57 H22         2.5636  -10.6192   -1.7840 H         1 <0>         0.1035
     58 H23         1.6087  -11.1138    0.4889 H         1 <0>         0.1029
     59 H24         0.6574   -9.9084   -0.4134 H         1 <0>         0.0696
     60 H25        -0.0017   -2.1732   -3.3730 H         1 <0>         0.1615
@<TRIPOS>BOND
     1    1    2 1
     2    1   37 1
     3    1   38 1
     4    1   39 1
     5    2    6 1
     6    2    3 1
     7    3    4 2
     8    3   40 1
     9    4    5 1
    10    4    7 1
    11    5    6 2
    12    5   41 1
    13    7   36 ar
    14    7    8 ar
    15    8    9 ar
    16    8   42 1
    17    9   19 1
    18    9   10 ar
    19   10   11 1
    20   10   35 ar
    21   11   12 2
    22   11   43 1
    23   12   13 1
    24   12   44 1
    25   13   18 ar
    26   13   14 ar
    27   14   15 ar
    28   14   45 1
    29   15   16 ar
    30   15   46 1
    31   16   17 ar
    32   16   21 1
    33   17   18 ar
    34   17   47 1
    35   18   19 1
    36   19   20 2
    37   21   22 1
    38   21   48 1
    39   22   23 2
    40   22   24 2
    41   22   25 1
    42   25   26 1
    43   25   27 1
    44   26   49 1
    45   26   50 1
    46   26   51 1
    47   27   28 1
    48   27   52 1
    49   27   53 1
    50   28   29 1
    51   28   34 1
    52   28   30 1
    53   30   31 1
    54   30   54 1
    55   30   55 1
    56   31   32 1
    57   32   33 1
    58   32   56 1
    59   32   57 1
    60   33   34 1
    61   33   58 1
    62   33   59 1
    63   35   36 ar
    64   36   60 1
@<TRIPOS>MOLECULE
ZINC34842284
   59    63     0     0     0
SMALL
USER_CHARGES

@<TRIPOS>ATOM
      1 C1         -0.0178    1.4608    0.0101 C.3       1 <0>         0.1007
      2 N1          0.0021   -0.0041    0.0020 N.pl3     1 <0>        -0.3736
      3 C2          0.0078   -0.7883   -1.0945 C.2       1 <0>         0.0703
      4 C3          0.0278   -2.0866   -0.6734 C.2       1 <0>        -0.1902
      5 C4          0.0343   -2.0758    0.7354 C.2       1 <0>         0.0673
      6 N2          0.0245   -0.8308    1.1317 N.2       1 <0>        -0.2943
      7 C5          0.0397   -3.2901   -1.5414 C.ar      1 <0>        -0.0608
      8 C6          0.0543   -4.5644   -0.9807 C.ar      1 <0>        -0.0333
      9 C7          0.0802   -5.6649   -1.8426 C.ar      1 <0>        -0.1792
     10 C8          0.1229   -5.4562   -3.2387 C.ar      1 <0>         0.2045
     11 C9          0.2532   -6.5705   -4.1609 C.2       1 <0>        -0.1592
     12 C10        -0.3414   -7.7510   -4.0859 C.2       1 <0>        -0.0231
     13 C11        -1.2649   -8.2108   -3.0641 C.ar      1 <0>        -0.1647
     14 C12        -2.3865   -8.9737   -3.4314 C.ar      1 <0>        -0.0353
     15 C13        -3.2359   -9.4502   -2.4792 C.ar      1 <0>        -0.2465
     16 C14        -3.0081   -9.1944   -1.1257 C.ar      1 <0>         0.3005
     17 C15        -1.9219   -8.4304   -0.7344 C.ar      1 <0>        -0.1500
     18 C16        -1.0553   -7.9152   -1.6995 C.ar      1 <0>        -0.0837
     19 C17         0.0500   -7.0298   -1.2992 C.2       1 <0>         0.4609
     20 O1          0.9175   -7.4185   -0.5376 O.2       1 <0>        -0.4397
     21 N3         -3.8773   -9.7097   -0.1653 N.2       1 <0>        -1.0971
     22 S1         -5.1776  -10.6235   -0.6305 S.o2      1 <0>         2.7153
     23 O2         -6.0456   -9.7582   -1.3496 O.2       1 <0>        -1.0429
     24 O3         -4.6537  -11.8178   -1.1947 O.2       1 <0>        -1.0457
     25 N4         -5.9839  -11.0648    0.7470 N.pl3     1 <0>        -0.9885
     26 C18        -7.0496  -10.2109    1.2774 C.3       1 <0>         0.1091
     27 C19        -5.6314  -12.3092    1.4352 C.3       1 <0>         0.1365
     28 C20        -4.6323  -12.0078    2.5540 C.3       1 <0>         0.0329
     29 H1         -3.7717  -11.4810    2.1417 H         1 <0>         0.0873
     30 C21        -4.1704  -13.3198    3.1948 C.3       1 <0>         0.0320
     31 O4         -3.3244  -13.0250    4.3103 O.3       1 <0>        -0.3784
     32 C22        -3.9524  -12.2119    5.3061 C.3       1 <0>         0.0246
     33 C23        -4.4143  -10.8999    4.6653 C.3       1 <0>         0.0237
     34 O5         -5.2598  -11.1934    3.5490 O.3       1 <0>        -0.3667
     35 N5          0.0651   -4.2087   -3.7198 N.ar      1 <0>        -0.4751
     36 C24         0.0305   -3.1599   -2.9350 C.ar      1 <0>         0.1218
     37 H2          1.0048    1.8381    0.0023 H         1 <0>         0.0758
     38 H3         -0.5450    1.8219   -0.8730 H         1 <0>         0.0888
     39 H4         -0.5280    1.8123    0.9069 H         1 <0>         0.0902
     40 H5         -0.0021   -0.4506   -2.1203 H         1 <0>         0.1795
     41 H6          0.0494   -2.9451    1.3761 H         1 <0>         0.1876
     42 H7          0.0463   -4.6991    0.0909 H         1 <0>         0.1396
     43 H8          0.9100   -6.4187   -5.0047 H         1 <0>         0.1239
     44 H9         -0.1138   -8.4521   -4.8752 H         1 <0>         0.1183
     45 H10        -2.5760   -9.1830   -4.4738 H         1 <0>         0.1151
     46 H11        -4.0961  -10.0325   -2.7747 H         1 <0>         0.1021
     47 H12        -1.7458   -8.2343    0.3129 H         1 <0>         0.1215
     48 H13        -8.0037  -10.5080    0.8422 H         1 <0>         0.0404
     49 H14        -7.0955  -10.3181    2.3611 H         1 <0>         0.0728
     50 H15        -6.8424   -9.1713    1.0236 H         1 <0>         0.0649
     51 H16        -6.5299  -12.7559    1.8610 H         1 <0>         0.0781
     52 H17        -5.1826  -13.0029    0.7243 H         1 <0>         0.1032
     53 H18        -5.0384  -13.8845    3.5350 H         1 <0>         0.0590
     54 H19        -3.6164  -13.9075    2.4628 H         1 <0>         0.1068
     55 H20        -4.8131  -12.7393    5.7173 H         1 <0>         0.0563
     56 H21        -3.2406  -11.9973    6.1031 H         1 <0>         0.1003
     57 H22        -4.9682  -10.3122    5.3973 H         1 <0>         0.0994
     58 H23        -3.5462  -10.3353    4.3251 H         1 <0>         0.0629
     59 H24        -0.0017   -2.1732   -3.3730 H         1 <0>         0.1540
@<TRIPOS>BOND
     1    1    2 1
     2    1   37 1
     3    1   38 1
     4    1   39 1
     5    2    6 1
     6    2    3 1
     7    3    4 2
     8    3   40 1
     9    4    5 1
    10    4    7 1
    11    5    6 2
    12    5   41 1
    13    7   36 ar
    14    7    8 ar
    15    8    9 ar
    16    8   42 1
    17    9   19 1
    18    9   10 ar
    19   10   11 1
    20   10   35 ar
    21   11   12 2
    22   11   43 1
    23   12   13 1
    24   12   44 1
    25   13   18 ar
    26   13   14 ar
    27   14   15 ar
    28   14   45 1
    29   15   16 ar
    30   15   46 1
    31   16   17 ar
    32   16   21 1
    33   17   18 ar
    34   17   47 1
    35   18   19 1
    36   19   20 2
    37   21   22 1
    38   22   23 2
    39   22   24 2
    40   22   25 1
    41   25   26 1
    42   25   27 1
    43   26   48 1
    44   26   49 1
    45   26   50 1
    46   27   28 1
    47   27   51 1
    48   27   52 1
    49   28   29 1
    50   28   34 1
    51   28   30 1
    52   30   31 1
    53   30   53 1
    54   30   54 1
    55   31   32 1
    56   32   33 1
    57   32   55 1
    58   32   56 1
    59   33   34 1
    60   33   57 1
    61   33   58 1
    62   35   36 ar
    63   36   59 1
@<TRIPOS>MOLECULE
ZINC00988028
   47    51     0     0     0
SMALL
USER_CHARGES
5,8-diphenyl-4-phenylsulfonyl-2,6,7-triazabicyclo[4.3.0]nona-2,4,7,9-tetraene
@<TRIPOS>ATOM
      1 C1         -6.3960   -0.3684   -5.3211 C.ar      1 <0>        -0.1006
      2 C2         -5.0542   -0.6148   -5.0930 C.ar      1 <0>        -0.1229
      3 C3         -4.4045    0.0055   -4.0451 C.ar      1 <0>        -0.0817
      4 C4         -5.1026    0.8812   -3.2165 C.ar      1 <0>        -0.0334
      5 C5         -6.4554    1.1214   -3.4473 C.ar      1 <0>        -0.0846
      6 C6         -7.0938    0.5005   -4.5018 C.ar      1 <0>        -0.1215
      7 C7         -4.4091    1.5512   -2.0880 C.2       1 <0>         0.1729
      8 C8         -4.9938    2.4465   -1.1890 C.2       1 <0>        -0.2389
      9 C9         -4.0119    2.8419   -0.2924 C.2       1 <0>         0.2707
     10 N1         -4.0319    3.6758    0.7565 N.2       1 <0>        -0.4629
     11 C10        -2.9532    3.8974    1.4717 C.2       1 <0>         0.2492
     12 C11        -1.7495    3.2625    1.1527 C.2       1 <0>        -0.7750
     13 C12        -1.7084    2.4004    0.0766 C.2       1 <0>         0.3864
     14 N2         -2.8551    2.1977   -0.6525 N.pl3     1 <0>        -0.3162
     15 N3         -3.1360    1.3999   -1.7671 N.2       1 <0>        -0.2862
     16 C13        -0.4531    1.7125   -0.2888 C.ar      1 <0>        -0.0914
     17 C14         0.6001    2.4309   -0.8583 C.ar      1 <0>        -0.0628
     18 C15         1.7672    1.7812   -1.2027 C.ar      1 <0>        -0.1109
     19 C16         1.8957    0.4208   -0.9847 C.ar      1 <0>        -0.0840
     20 C17         0.8561   -0.2971   -0.4204 C.ar      1 <0>        -0.1134
     21 C18        -0.3167    0.3400   -0.0716 C.ar      1 <0>        -0.0593
     22 S1         -0.3027    3.5593    2.1135 S.o2      1 <0>         2.5934
     23 O1         -0.7257    3.6509    3.4670 O.2       1 <0>        -0.9218
     24 O2          0.6715    2.6191    1.6818 O.2       1 <0>        -0.9089
     25 C19         0.3021    5.1526    1.6659 C.ar      1 <0>        -0.6597
     26 C20         1.3112    5.2706    0.7285 C.ar      1 <0>        -0.0265
     27 C21         1.7823    6.5209    0.3738 C.ar      1 <0>        -0.1373
     28 C22         1.2514    7.6525    0.9640 C.ar      1 <0>        -0.0595
     29 C23         0.2463    7.5342    1.9056 C.ar      1 <0>        -0.1355
     30 C24        -0.2285    6.2842    2.2564 C.ar      1 <0>        -0.0232
     31 H1         -6.9006   -0.8559   -6.1422 H         1 <0>         0.1277
     32 H2         -4.5141   -1.2942   -5.7358 H         1 <0>         0.1292
     33 H3         -3.3567   -0.1874   -3.8681 H         1 <0>         0.1309
     34 H4         -7.0024    1.7957   -2.8050 H         1 <0>         0.1311
     35 H5         -8.1414    0.6894   -4.6843 H         1 <0>         0.1309
     36 H6         -6.0235    2.7721   -1.1919 H         1 <0>         0.1723
     37 H7         -2.9965    4.5742    2.3122 H         1 <0>         0.1918
     38 H8          0.5010    3.4927   -1.0293 H         1 <0>         0.1209
     39 H9          2.5825    2.3355   -1.6436 H         1 <0>         0.1319
     40 H10         2.8117   -0.0829   -1.2559 H         1 <0>         0.1296
     41 H11         0.9629   -1.3587   -0.2530 H         1 <0>         0.1315
     42 H12        -1.1274   -0.2215    0.3687 H         1 <0>         0.1216
     43 H13         1.7288    4.3862    0.2704 H         1 <0>         0.1452
     44 H14         2.5678    6.6133   -0.3616 H         1 <0>         0.1364
     45 H15         1.6221    8.6291    0.6896 H         1 <0>         0.1344
     46 H16        -0.1683    8.4183    2.3670 H         1 <0>         0.1376
     47 H17        -1.0137    6.1918    2.9921 H         1 <0>         0.1427
@<TRIPOS>BOND
     1    1    6 ar
     2    1    2 ar
     3    1   31 1
     4    2    3 ar
     5    2   32 1
     6    3    4 ar
     7    3   33 1
     8    4    5 ar
     9    4    7 1
    10    5    6 ar
    11    5   34 1
    12    6   35 1
    13    7   15 2
    14    7    8 1
    15    8    9 2
    16    8   36 1
    17    9   14 1
    18    9   10 1
    19   10   11 2
    20   11   12 1
    21   11   37 1
    22   12   13 2
    23   12   22 1
    24   13   14 1
    25   13   16 1
    26   14   15 1
    27   16   21 ar
    28   16   17 ar
    29   17   18 ar
    30   17   38 1
    31   18   19 ar
    32   18   39 1
    33   19   20 ar
    34   19   40 1
    35   20   21 ar
    36   20   41 1
    37   21   42 1
    38   22   23 2
    39   22   24 2
    40   22   25 1
    41   25   30 ar
    42   25   26 ar
    43   26   27 ar
    44   26   43 1
    45   27   28 ar
    46   27   44 1
    47   28   29 ar
    48   28   45 1
    49   29   30 ar
    50   29   46 1
    51   30   47 1
@<TRIPOS>MOLECULE
ZINC00987999
   51    55     0     0     0
SMALL
USER_CHARGES
8-(4-methoxyphenyl)-5-phenyl-4-phenylsulfonyl-2,6,7-triazabicyclo[4.3.0]nona-2,4,7,9-tetraene
@<TRIPOS>ATOM
      1 C1         -8.4160   -0.6838   -6.5353 C.3       1 <0>         0.0241
      2 O1         -7.0303   -0.9830   -6.3558 O.3       1 <0>        -0.3138
      3 C2         -6.3956   -0.3694   -5.3229 C.ar      1 <0>         0.1482
      4 C3         -5.0489   -0.6160   -5.0925 C.ar      1 <0>        -0.1550
      5 C4         -4.4021    0.0053   -4.0448 C.ar      1 <0>        -0.0396
      6 C5         -5.1016    0.8813   -3.2170 C.ar      1 <0>        -0.0728
      7 C6         -6.4546    1.1229   -3.4475 C.ar      1 <0>        -0.0411
      8 C7         -7.0951    0.5025   -4.4996 C.ar      1 <0>        -0.2111
      9 C8         -4.4085    1.5511   -2.0885 C.2       1 <0>         0.1806
     10 C9         -4.9933    2.4466   -1.1897 C.2       1 <0>        -0.2420
     11 C10        -4.0115    2.8421   -0.2930 C.2       1 <0>         0.2711
     12 N1         -4.0317    3.6760    0.7559 N.2       1 <0>        -0.4639
     13 C11        -2.9531    3.8972    1.4715 C.2       1 <0>         0.2493
     14 C12        -1.7494    3.2625    1.1526 C.2       1 <0>        -0.7762
     15 C13        -1.7082    2.4004    0.0764 C.2       1 <0>         0.3870
     16 N2         -2.8547    2.1976   -0.6527 N.pl3     1 <0>        -0.3161
     17 N3         -3.1354    1.3996   -1.7673 N.2       1 <0>        -0.2894
     18 C14        -0.4528    1.7126   -0.2889 C.ar      1 <0>        -0.0911
     19 C15         0.6003    2.4310   -0.8586 C.ar      1 <0>        -0.0629
     20 C16         1.7675    1.7814   -1.2029 C.ar      1 <0>        -0.1110
     21 C17         1.8961    0.4211   -0.9846 C.ar      1 <0>        -0.0842
     22 C18         0.8566   -0.2969   -0.4201 C.ar      1 <0>        -0.1133
     23 C19        -0.3162    0.3401   -0.0714 C.ar      1 <0>        -0.0592
     24 S1         -0.3027    3.5593    2.1135 S.o2      1 <0>         2.5936
     25 O2         -0.7258    3.6510    3.4670 O.2       1 <0>        -0.9223
     26 O3          0.6715    2.6192    1.6819 O.2       1 <0>        -0.9091
     27 C20         0.3021    5.1526    1.6660 C.ar      1 <0>        -0.6598
     28 C21         1.3112    5.2706    0.7286 C.ar      1 <0>        -0.0264
     29 C22         1.7823    6.5209    0.3739 C.ar      1 <0>        -0.1374
     30 C23         1.2514    7.6526    0.9641 C.ar      1 <0>        -0.0597
     31 C24         0.2463    7.5342    1.9057 C.ar      1 <0>        -0.1356
     32 C25        -0.2285    6.2843    2.2565 C.ar      1 <0>        -0.0232
     33 H1         -8.9685   -0.9703   -5.6405 H         1 <0>         0.0587
     34 H2         -8.5372    0.3852   -6.7105 H         1 <0>         0.0586
     35 H3         -8.7994   -1.2382   -7.3920 H         1 <0>         0.1033
     36 H4         -4.5072   -1.2948   -5.7346 H         1 <0>         0.1383
     37 H5         -3.3546   -0.1872   -3.8659 H         1 <0>         0.1389
     38 H6         -7.0002    1.7979   -2.8048 H         1 <0>         0.1347
     39 H7         -8.1426    0.6924   -4.6811 H         1 <0>         0.1366
     40 H8         -6.0230    2.7723   -1.1927 H         1 <0>         0.1712
     41 H9         -2.9966    4.5738    2.3122 H         1 <0>         0.1912
     42 H10         0.5011    3.4927   -1.0298 H         1 <0>         0.1207
     43 H11         2.5827    2.3357   -1.6439 H         1 <0>         0.1317
     44 H12         2.8122   -0.0826   -1.2558 H         1 <0>         0.1294
     45 H13         0.9637   -1.3584   -0.2525 H         1 <0>         0.1314
     46 H14        -1.1268   -0.2214    0.3691 H         1 <0>         0.1216
     47 H15         1.7288    4.3862    0.2705 H         1 <0>         0.1452
     48 H16         2.5679    6.6133   -0.3615 H         1 <0>         0.1363
     49 H17         1.6221    8.6292    0.6897 H         1 <0>         0.1343
     50 H18        -0.1683    8.4184    2.3670 H         1 <0>         0.1374
     51 H19        -1.0138    6.1918    2.9922 H         1 <0>         0.1426
@<TRIPOS>BOND
     1    1    2 1
     2    1   33 1
     3    1   34 1
     4    1   35 1
     5    2    3 1
     6    3    8 ar
     7    3    4 ar
     8    4    5 ar
     9    4   36 1
    10    5    6 ar
    11    5   37 1
    12    6    7 ar
    13    6    9 1
    14    7    8 ar
    15    7   38 1
    16    8   39 1
    17    9   17 2
    18    9   10 1
    19   10   11 2
    20   10   40 1
    21   11   16 1
    22   11   12 1
    23   12   13 2
    24   13   14 1
    25   13   41 1
    26   14   15 2
    27   14   24 1
    28   15   16 1
    29   15   18 1
    30   16   17 1
    31   18   23 ar
    32   18   19 ar
    33   19   20 ar
    34   19   42 1
    35   20   21 ar
    36   20   43 1
    37   21   22 ar
    38   21   44 1
    39   22   23 ar
    40   22   45 1
    41   23   46 1
    42   24   25 2
    43   24   26 2
    44   24   27 1
    45   27   32 ar
    46   27   28 ar
    47   28   29 ar
    48   28   47 1
    49   29   30 ar
    50   29   48 1
    51   30   31 ar
    52   30   49 1
    53   31   32 ar
    54   31   50 1
    55   32   51 1
@<TRIPOS>MOLECULE
ZINC00987998
   47    51     0     0     0
SMALL
USER_CHARGES
8-(4-chlorophenyl)-5-phenyl-4-phenylsulfonyl-2,6,7-triazabicyclo[4.3.0]nona-2,4,7,9-tetraene
@<TRIPOS>ATOM
      1 C1          1.8919    0.4188   -0.9851 C.ar      1 <0>        -0.0834
      2 C2          0.8507   -0.2991   -0.4239 C.ar      1 <0>        -0.1134
      3 C3         -0.3215    0.3387   -0.0746 C.ar      1 <0>        -0.0592
      4 C4         -0.4557    1.7120   -0.2882 C.ar      1 <0>        -0.0925
      5 C5          0.5992    2.4304   -0.8546 C.ar      1 <0>        -0.0622
      6 C6          1.7658    1.7800   -1.1992 C.ar      1 <0>        -0.1108
      7 C7         -1.7104    2.4007    0.0777 C.2       1 <0>         0.3865
      8 C8         -1.7504    3.2632    1.1536 C.2       1 <0>        -0.7736
      9 C9         -2.9534    3.8992    1.4729 C.2       1 <0>         0.2503
     10 N1         -4.0325    3.6785    0.7580 N.2       1 <0>        -0.4626
     11 C10        -4.0136    2.8443   -0.2906 C.2       1 <0>         0.2726
     12 N2         -2.8576    2.1986   -0.6506 N.pl3     1 <0>        -0.3154
     13 N3         -3.1394    1.4010   -1.7653 N.2       1 <0>        -0.2838
     14 C11        -4.4125    1.5535   -2.0859 C.2       1 <0>         0.1697
     15 C12        -4.9961    2.4495   -1.1869 C.2       1 <0>        -0.2382
     16 C13        -5.1070    0.8836   -3.2137 C.ar      1 <0>        -0.0265
     17 C14        -6.4598    1.1248   -3.4436 C.ar      1 <0>        -0.0719
     18 C15        -7.0999    0.5037   -4.4967 C.ar      1 <0>        -0.1113
     19 C16        -6.4026   -0.3661   -5.3175 C.ar      1 <0>        -0.0188
     20 C17        -5.0597   -0.6134   -5.0895 C.ar      1 <0>        -0.1125
     21 C18        -4.4096    0.0070   -4.0422 C.ar      1 <0>        -0.0691
     22 Cl1        -7.2149   -1.1496   -6.6365 Cl        1 <0>        -0.0609
     23 S1         -0.3029    3.5589    2.1139 S.o2      1 <0>         2.5932
     24 O1         -0.7253    3.6502    3.4676 O.2       1 <0>        -0.9213
     25 O2          0.6705    2.6184    1.6814 O.2       1 <0>        -0.9085
     26 C19         0.3025    5.1520    1.6667 C.ar      1 <0>        -0.6600
     27 C20         1.3119    5.2698    0.7296 C.ar      1 <0>        -0.0265
     28 C21         1.7835    6.5199    0.3752 C.ar      1 <0>        -0.1372
     29 C22         1.2527    7.6517    0.9652 C.ar      1 <0>        -0.0592
     30 C23         0.2472    7.5336    1.9065 C.ar      1 <0>        -0.1354
     31 C24        -0.2280    6.2838    2.2571 C.ar      1 <0>        -0.0232
     32 H1          2.8074   -0.0856   -1.2571 H         1 <0>         0.1297
     33 H2          0.9558   -1.3613   -0.2592 H         1 <0>         0.1317
     34 H3         -1.1335   -0.2228    0.3634 H         1 <0>         0.1217
     35 H4          0.5018    3.4927   -1.0228 H         1 <0>         0.1210
     36 H5          2.5824    2.3343   -1.6377 H         1 <0>         0.1321
     37 H6         -2.9957    4.5763    2.3132 H         1 <0>         0.1923
     38 H7         -6.0257    2.7758   -1.1892 H         1 <0>         0.1733
     39 H8         -7.0057    1.7998   -2.8011 H         1 <0>         0.1418
     40 H9         -8.1475    0.6932   -4.6782 H         1 <0>         0.1426
     41 H10        -4.5200   -1.2933   -5.7321 H         1 <0>         0.1409
     42 H11        -3.3621   -0.1868   -3.8649 H         1 <0>         0.1414
     43 H12         1.7294    4.3853    0.2716 H         1 <0>         0.1452
     44 H13         2.5693    6.6122   -0.3600 H         1 <0>         0.1365
     45 H14         1.6237    8.6282    0.6911 H         1 <0>         0.1345
     46 H15        -0.1672    8.4178    2.3678 H         1 <0>         0.1376
     47 H16        -1.0136    6.1915    2.9925 H         1 <0>         0.1427
@<TRIPOS>BOND
     1    1    6 ar
     2    1    2 ar
     3    1   32 1
     4    2    3 ar
     5    2   33 1
     6    3    4 ar
     7    3   34 1
     8    4    5 ar
     9    4    7 1
    10    5    6 ar
    11    5   35 1
    12    6   36 1
    13    7   12 1
    14    7    8 2
    15    8    9 1
    16    8   23 1
    17    9   10 2
    18    9   37 1
    19   10   11 1
    20   11   15 2
    21   11   12 1
    22   12   13 1
    23   13   14 2
    24   14   15 1
    25   14   16 1
    26   15   38 1
    27   16   21 ar
    28   16   17 ar
    29   17   18 ar
    30   17   39 1
    31   18   19 ar
    32   18   40 1
    33   19   20 ar
    34   19   22 1
    35   20   21 ar
    36   20   41 1
    37   21   42 1
    38   23   24 2
    39   23   25 2
    40   23   26 1
    41   26   31 ar
    42   26   27 ar
    43   27   28 ar
    44   27   43 1
    45   28   29 ar
    46   28   44 1
    47   29   30 ar
    48   29   45 1
    49   30   31 ar
    50   30   46 1
    51   31   47 1
@<TRIPOS>MOLECULE
ZINC00988000
   47    51     0     0     0
SMALL
USER_CHARGES
9-bromo-5,8-diphenyl-4-phenylsulfonyl-2,6,7-triazabicyclo[4.3.0]nona-2,4,7,9-tetraene
@<TRIPOS>ATOM
      1 C1          4.0227   10.5079   -7.8488 C.ar      1 <0>        -0.0970
      2 C2          4.5170   10.2433   -6.5843 C.ar      1 <0>        -0.1231
      3 C3          3.7629    9.5187   -5.6836 C.ar      1 <0>        -0.0774
      4 C4          2.5018    9.0536   -6.0500 C.ar      1 <0>        -0.0402
      5 C5          2.0110    9.3185   -7.3267 C.ar      1 <0>        -0.0816
      6 C6          2.7712   10.0485   -8.2178 C.ar      1 <0>        -0.1196
      7 C7          1.6866    8.2734   -5.0857 C.2       1 <0>         0.2056
      8 C8          0.2950    8.3218   -4.9693 C.2       1 <0>        -0.2284
      9 C9         -0.0717    7.4477   -3.9558 C.2       1 <0>         0.3103
     10 N1         -1.2626    7.1141   -3.4400 N.2       1 <0>        -0.4583
     11 C10        -1.3621    6.2434   -2.4622 C.2       1 <0>         0.2597
     12 C11        -0.2180    5.6395   -1.9326 C.2       1 <0>        -0.7705
     13 C12         1.0179    5.9736   -2.4458 C.2       1 <0>         0.3940
     14 N2          1.0832    6.8845   -3.4726 N.pl3     1 <0>        -0.3120
     15 N3          2.1567    7.4176   -4.1946 N.2       1 <0>        -0.2757
     16 C13         2.2480    5.3592   -1.9057 C.ar      1 <0>        -0.1586
     17 C14         2.6767    5.6676   -0.6131 C.ar      1 <0>        -0.0173
     18 C15         3.8229    5.0855   -0.1128 C.ar      1 <0>        -0.1261
     19 C16         4.5539    4.2073   -0.8931 C.ar      1 <0>        -0.0775
     20 C17         4.1379    3.9017   -2.1769 C.ar      1 <0>        -0.1347
     21 C18         2.9903    4.4718   -2.6875 C.ar      1 <0>        -0.0517
     22 S1         -0.3525    4.4711   -0.6205 S.o2      1 <0>         2.5989
     23 O1         -1.7356    4.3638   -0.3125 O.2       1 <0>        -0.9217
     24 O2          0.6180    4.8375    0.3506 O.2       1 <0>        -0.9180
     25 C19         0.1432    2.9071   -1.2628 C.ar      1 <0>        -0.6619
     26 C20         1.4689    2.5212   -1.1960 C.ar      1 <0>        -0.0185
     27 C21         1.8579    1.2942   -1.6999 C.ar      1 <0>        -0.1382
     28 C22         0.9211    0.4529   -2.2706 C.ar      1 <0>        -0.0569
     29 C23        -0.4037    0.8410   -2.3422 C.ar      1 <0>        -0.1393
     30 C24        -0.7936    2.0657   -1.8331 C.ar      1 <0>        -0.0182
     31 Br1        -0.8761    9.3854   -6.0051 Br        1 <0>         0.0217
     32 H1          4.6158   11.0756   -8.5504 H         1 <0>         0.1286
     33 H2          5.4949   10.6040   -6.3015 H         1 <0>         0.1301
     34 H3          4.1497    9.3129   -4.6964 H         1 <0>         0.1281
     35 H4          1.0358    8.9565   -7.6173 H         1 <0>         0.1335
     36 H5          2.3900   10.2580   -9.2063 H         1 <0>         0.1317
     37 H6         -2.3343    5.9925   -2.0643 H         1 <0>         0.2055
     38 H7          2.1096    6.3566   -0.0047 H         1 <0>         0.1465
     39 H8          4.1530    5.3195    0.8886 H         1 <0>         0.1399
     40 H9          5.4532    3.7581   -0.4982 H         1 <0>         0.1350
     41 H10         4.7132    3.2154   -2.7807 H         1 <0>         0.1357
     42 H11         2.6665    4.2321   -3.6896 H         1 <0>         0.1256
     43 H12         2.2009    3.1786   -0.7505 H         1 <0>         0.1428
     44 H13         2.8937    0.9928   -1.6481 H         1 <0>         0.1346
     45 H14         1.2250   -0.5056   -2.6646 H         1 <0>         0.1337
     46 H15        -1.1348    0.1857   -2.7920 H         1 <0>         0.1366
     47 H16        -1.8295    2.3670   -1.8849 H         1 <0>         0.1443
@<TRIPOS>BOND
     1    1    6 ar
     2    1    2 ar
     3    1   32 1
     4    2    3 ar
     5    2   33 1
     6    3    4 ar
     7    3   34 1
     8    4    5 ar
     9    4    7 1
    10    5    6 ar
    11    5   35 1
    12    6   36 1
    13    7   15 2
    14    7    8 1
    15    8    9 2
    16    8   31 1
    17    9   14 1
    18    9   10 1
    19   10   11 2
    20   11   12 1
    21   11   37 1
    22   12   13 2
    23   12   22 1
    24   13   14 1
    25   13   16 1
    26   14   15 1
    27   16   21 ar
    28   16   17 ar
    29   17   18 ar
    30   17   38 1
    31   18   19 ar
    32   18   39 1
    33   19   20 ar
    34   19   40 1
    35   20   21 ar
    36   20   41 1
    37   21   42 1
    38   22   23 2
    39   22   24 2
    40   22   25 1
    41   25   30 ar
    42   25   26 ar
    43   26   27 ar
    44   26   43 1
    45   27   28 ar
    46   27   44 1
    47   28   29 ar
    48   28   45 1
    49   29   30 ar
    50   29   46 1
    51   30   47 1
@<TRIPOS>MOLECULE
ZINC01803337
   42    45     0     0     0
SMALL
USER_CHARGES
2-[(8,9-diphenyl-7-oxa-3,5-diazabicyclo[4.3.0]nona-2,4,8,10-tetraen-2-yl)amino]ethanol
@<TRIPOS>ATOM
      1 C1          2.0251    1.9287   -0.2147 C.ar      1 <0>        -0.1133
      2 C2          0.7564    2.4607   -0.0679 C.ar      1 <0>        -0.1156
      3 C3         -0.3416    1.6274   -0.0086 C.ar      1 <0>        -0.0960
      4 C4         -0.1704    0.2455   -0.0964 C.ar      1 <0>        -0.0270
      5 C5          1.1117   -0.2848   -0.2439 C.ar      1 <0>        -0.1062
      6 C6          2.2016    0.5592   -0.3019 C.ar      1 <0>        -0.1114
      7 C7         -1.3440   -0.6543   -0.0330 C.2       1 <0>        -0.0839
      8 C8         -1.8760   -1.4957   -1.1126 C.ar      1 <0>        -0.2798
      9 C9         -1.5260   -1.7419   -2.4470 C.ar      1 <0>         0.4966
     10 N1         -2.2667   -2.5986   -3.1455 N.ar      1 <0>        -0.5881
     11 C10        -3.3047   -3.2016   -2.5960 C.ar      1 <0>         0.3754
     12 N2         -3.6669   -2.9984   -1.3472 N.ar      1 <0>        -0.5475
     13 C11        -2.9881   -2.1591   -0.5686 C.ar      1 <0>         0.3304
     14 O1         -3.1178   -1.7616    0.7087 O.3       1 <0>        -0.1653
     15 C12        -2.1553   -0.8796    1.0456 C.2       1 <0>         0.0778
     16 C13        -2.0028   -0.2512    2.3715 C.ar      1 <0>        -0.0282
     17 C14        -0.7505   -0.2123    2.9900 C.ar      1 <0>        -0.0798
     18 C15        -0.6144    0.3816    4.2273 C.ar      1 <0>        -0.1181
     19 C16        -1.7166    0.9278    4.8613 C.ar      1 <0>        -0.1022
     20 C17        -2.9609    0.8882    4.2572 C.ar      1 <0>        -0.1194
     21 C18        -3.1110    0.3027    3.0175 C.ar      1 <0>        -0.0897
     22 N3         -0.4389   -1.1103   -3.0233 N.pl3     1 <0>        -0.6915
     23 C19        -0.0898   -1.3815   -4.4200 C.3       1 <0>         0.1246
     24 C20         1.1425   -0.5611   -4.8063 C.3       1 <0>         0.0605
     25 O2          2.2670   -1.0024   -4.0429 O.3       1 <0>        -0.5692
     26 H1          2.8815    2.5852   -0.2606 H         1 <0>         0.1246
     27 H2          0.6252    3.5306   -0.0004 H         1 <0>         0.1259
     28 H3         -1.3319    2.0441    0.1012 H         1 <0>         0.1224
     29 H4          1.2507   -1.3536   -0.3121 H         1 <0>         0.1230
     30 H5          3.1945    0.1500   -0.4160 H         1 <0>         0.1270
     31 H6         -3.8805   -3.8904   -3.1963 H         1 <0>         0.2119
     32 H7          0.1096   -0.6424    2.4984 H         1 <0>         0.1271
     33 H8          0.3538    0.4164    4.7046 H         1 <0>         0.1301
     34 H9         -1.6050    1.3875    5.8322 H         1 <0>         0.1279
     35 H10        -3.8167    1.3164    4.7578 H         1 <0>         0.1301
     36 H11        -4.0827    0.2728    2.5470 H         1 <0>         0.1286
     37 H12         0.0923   -0.4877   -2.5027 H         1 <0>         0.4166
     38 H13         0.1279   -2.4428   -4.5406 H         1 <0>         0.0809
     39 H14        -0.9256   -1.1067   -5.0634 H         1 <0>         0.0866
     40 H15         1.3493   -0.6941   -5.8681 H         1 <0>         0.0685
     41 H16         0.9557    0.4932   -4.6018 H         1 <0>         0.0522
     42 H17         3.0854   -0.5249   -4.2362 H         1 <0>         0.3834
@<TRIPOS>BOND
     1    1    6 ar
     2    1    2 ar
     3    1   26 1
     4    2    3 ar
     5    2   27 1
     6    3    4 ar
     7    3   28 1
     8    4    5 ar
     9    4    7 1
    10    5    6 ar
    11    5   29 1
    12    6   30 1
    13    7   15 2
    14    7    8 1
    15    8   13 ar
    16    8    9 ar
    17    9   10 ar
    18    9   22 1
    19   10   11 ar
    20   11   12 ar
    21   11   31 1
    22   12   13 ar
    23   13   14 1
    24   14   15 1
    25   15   16 1
    26   16   21 ar
    27   16   17 ar
    28   17   18 ar
    29   17   32 1
    30   18   19 ar
    31   18   33 1
    32   19   20 ar
    33   19   34 1
    34   20   21 ar
    35   20   35 1
    36   21   36 1
    37   22   23 1
    38   22   37 1
    39   23   24 1
    40   23   38 1
    41   23   39 1
    42   24   25 1
    43   24   40 1
    44   24   41 1
    45   25   42 1
@<TRIPOS>MOLECULE
ZINC03938688
   39    41     0     0     0
SMALL
USER_CHARGES

@<TRIPOS>ATOM
      1 C1         -0.0095    1.3826    0.0704 C.ar      1 <0>        -0.0343
      2 C2          0.5587    1.0580   -1.1482 C.ar      1 <0>        -0.1609
      3 C3          1.7655    0.3862   -1.1955 C.ar      1 <0>         0.1753
      4 C4          2.4129    0.0342   -0.0053 C.ar      1 <0>        -0.1954
      5 C5          1.8304    0.3669    1.2233 C.ar      1 <0>         0.1741
      6 C6          0.6231    1.0388    1.2514 C.ar      1 <0>        -0.1610
      7 F1          2.4463    0.0317    2.3781 F         1 <0>        -0.1212
      8 C7          3.6999   -0.6827   -0.0456 C.2       1 <0>         0.6210
      9 O1          4.7383   -0.0615   -0.1600 O.2       1 <0>        -0.4669
     10 N1          3.7255   -2.0272    0.0446 N.am      1 <0>        -0.3962
     11 C8          4.8314   -2.8210    0.1249 C.2       1 <0>         0.5948
     12 N2          4.4249   -4.0694    0.1979 N.2       1 <0>        -0.5873
     13 C9          3.0869   -4.1118    0.1675 C.2       1 <0>         0.5191
     14 N3          2.6183   -2.8904    0.0808 N.2       1 <0>        -0.3480
     15 N4          2.3148   -5.2702    0.2247 N.pl3     1 <0>        -0.6226
     16 C10         2.9267   -6.5079    0.4407 C.ar      1 <0>         0.2365
     17 C11         4.1432   -6.5760    1.1080 C.ar      1 <0>        -0.1584
     18 C12         4.7450   -7.8008    1.3202 C.ar      1 <0>         0.0098
     19 C13         4.1379   -8.9586    0.8692 C.ar      1 <0>        -0.7033
     20 C14         2.9269   -8.8944    0.2046 C.ar      1 <0>         0.0112
     21 C15         2.3170   -7.6734   -0.0063 C.ar      1 <0>        -0.1777
     22 S1          4.9094  -10.5191    1.1415 S.o2      1 <0>         2.7034
     23 O2          4.4084  -11.3993    0.1448 O.2       1 <0>        -0.9656
     24 O3          6.2977  -10.2630    1.3036 O.2       1 <0>        -0.9650
     25 N5          4.3605  -11.0895    2.5960 N.pl3     1 <0>        -1.2510
     26 N6          6.1422   -2.3912    0.1281 N.pl3     1 <0>        -0.7911
     27 F2          2.3185    0.0697   -2.3868 F         1 <0>        -0.1201
     28 H1         -0.9506    1.9116    0.0998 H         1 <0>         0.1546
     29 H2          0.0576    1.3300   -2.0654 H         1 <0>         0.1549
     30 H3          0.1721    1.2963    2.1984 H         1 <0>         0.1546
     31 H4          1.3525   -5.2176    0.1147 H         1 <0>         0.4325
     32 H5          4.6180   -5.6722    1.4601 H         1 <0>         0.1556
     33 H6          5.6909   -7.8544    1.8385 H         1 <0>         0.1456
     34 H7          2.4556   -9.8005   -0.1466 H         1 <0>         0.1475
     35 H8          1.3691   -7.6243   -0.5215 H         1 <0>         0.1387
     36 H9          3.7284  -10.5673    3.1145 H         1 <0>         0.4165
     37 H10         4.6709  -11.9458    2.9296 H         1 <0>         0.4206
     38 H11         6.3422   -1.4439    0.0694 H         1 <0>         0.4292
     39 H12         6.8640   -3.0364    0.1890 H         1 <0>         0.4303
@<TRIPOS>BOND
     1    1    6 ar
     2    1    2 ar
     3    1   28 1
     4    2    3 ar
     5    2   29 1
     6    3    4 ar
     7    3   27 1
     8    4    5 ar
     9    4    8 1
    10    5    6 ar
    11    5    7 1
    12    6   30 1
    13    8    9 2
    14    8   10 am
    15   10   14 1
    16   10   11 1
    17   11   12 2
    18   11   26 1
    19   12   13 1
    20   13   14 2
    21   13   15 1
    22   15   16 1
    23   15   31 1
    24   16   21 ar
    25   16   17 ar
    26   17   18 ar
    27   17   32 1
    28   18   19 ar
    29   18   33 1
    30   19   20 ar
    31   19   22 1
    32   20   21 ar
    33   20   34 1
    34   21   35 1
    35   22   23 2
    36   22   24 2
    37   22   25 1
    38   25   36 1
    39   25   37 1
    40   26   38 1
    41   26   39 1
@<TRIPOS>MOLECULE
ZINC22067501
   69    73     0     0     0
SMALL
USER_CHARGES

@<TRIPOS>ATOM
      1 C1          0.0084    1.5224    0.1265 C.3       1 <0>         0.0217
      2 O1          0.0428    0.0939    0.1101 O.3       1 <0>        -0.3001
      3 C2         -1.1536   -0.5522    0.0904 C.ar      1 <0>         0.1089
      4 C3         -2.3121    0.1716    0.0815 C.ar      1 <0>        -0.1462
      5 C4         -3.5443   -0.4926    0.0612 C.ar      1 <0>        -0.1846
      6 C5         -3.5833   -1.9090    0.0500 C.ar      1 <0>         0.2024
      7 C6         -2.3836   -2.6308    0.0589 C.ar      1 <0>        -0.1852
      8 C7         -1.1842   -1.9535    0.0737 C.ar      1 <0>         0.1673
      9 O2         -0.0186   -2.6512    0.0769 O.3       1 <0>        -0.2936
     10 C8         -0.1158   -4.0768    0.0592 C.3       1 <0>         0.0553
     11 C9          1.2887   -4.6838    0.0658 C.3       1 <0>        -0.1154
     12 C10         1.1846   -6.2102    0.0468 C.3       1 <0>         0.0585
     13 N1          2.5331   -6.7930    0.0532 N.3       1 <0>        -0.5362
     14 C11         3.2472   -6.4822   -1.1937 C.3       1 <0>         0.0123
     15 C12         4.6647   -7.0559   -1.1202 C.3       1 <0>         0.0626
     16 O3          4.5921   -8.4628   -0.8741 O.3       1 <0>        -0.3853
     17 C13         3.9035   -8.8014    0.3327 C.3       1 <0>         0.0628
     18 C14         2.4782   -8.2454    0.2739 C.3       1 <0>         0.0172
     19 N2         -4.7778   -2.5210    0.0301 N.ar      1 <0>        -0.5455
     20 C15        -5.8852   -1.8180    0.0213 C.ar      1 <0>         0.3432
     21 N3         -5.8977   -0.4946    0.0307 N.ar      1 <0>        -0.5826
     22 C16        -4.7732    0.2093    0.0508 C.ar      1 <0>         0.4671
     23 N4         -4.8012    1.5891    0.0614 N.pl3     1 <0>        -0.6379
     24 C17        -6.0224    2.2651   -0.0406 C.ar      1 <0>         0.1335
     25 C18        -6.0954    3.4666   -0.7337 C.ar      1 <0>        -0.1257
     26 C19        -7.3000    4.1333   -0.8342 C.ar      1 <0>        -0.1003
     27 C20        -8.4388    3.6030   -0.2418 C.ar      1 <0>         0.1299
     28 C21        -8.3658    2.4016    0.4513 C.ar      1 <0>        -0.1248
     29 C22        -7.1626    1.7317    0.5466 C.ar      1 <0>        -0.0898
     30 N5         -9.6604    4.2797   -0.3430 N.am      1 <0>        -0.6685
     31 C23        -9.9643    4.9572   -1.4678 C.2       1 <0>         0.5603
     32 O4         -9.1470    5.0463   -2.3633 O.2       1 <0>        -0.5159
     33 C24       -11.2915    5.5917   -1.6126 C.ar      1 <0>        -0.1391
     34 C25       -12.2302    5.4961   -0.5839 C.ar      1 <0>        -0.0861
     35 C26       -13.4668    6.0910   -0.7253 C.ar      1 <0>        -0.1265
     36 C27       -13.7775    6.7812   -1.8835 C.ar      1 <0>        -0.0898
     37 C28       -12.8518    6.8793   -2.9072 C.ar      1 <0>        -0.1264
     38 C29       -11.6095    6.2940   -2.7763 C.ar      1 <0>        -0.0568
     39 H1          1.0269    1.9102    0.1414 H         1 <0>         0.1066
     40 H2         -0.5050    1.8837   -0.7645 H         1 <0>         0.0572
     41 H3         -0.5231    1.8629    1.0152 H         1 <0>         0.0572
     42 H4         -2.2776    1.2510    0.0905 H         1 <0>         0.1390
     43 H5         -2.3984   -3.7106    0.0509 H         1 <0>         0.1542
     44 H6         -0.6618   -4.4147    0.9400 H         1 <0>         0.0703
     45 H7         -0.6444   -4.3939   -0.8398 H         1 <0>         0.0678
     46 H8          1.8347   -4.3459   -0.8150 H         1 <0>         0.0764
     47 H9          1.8173   -4.3668    0.9647 H         1 <0>         0.0862
     48 H10         0.6386   -6.5481    0.9276 H         1 <0>         0.0816
     49 H11         0.6560   -6.5272   -0.8521 H         1 <0>         0.0405
     50 H12         2.7180   -6.9266   -2.0367 H         1 <0>         0.0446
     51 H13         3.2983   -5.4013   -1.3242 H         1 <0>         0.0905
     52 H14         5.1790   -6.8776   -2.0646 H         1 <0>         0.0993
     53 H15         5.2114   -6.5725   -0.3105 H         1 <0>         0.0611
     54 H16         3.8671   -9.8856    0.4391 H         1 <0>         0.0997
     55 H17         4.4280   -8.3688    1.1847 H         1 <0>         0.0611
     56 H18         1.9680   -8.4515    1.2148 H         1 <0>         0.0882
     57 H19         1.9367   -8.7180   -0.5456 H         1 <0>         0.0448
     58 H20        -6.8291   -2.3426    0.0052 H         1 <0>         0.1968
     59 H21        -3.9744    2.0904    0.1394 H         1 <0>         0.4184
     60 H22        -5.2098    3.8794   -1.1937 H         1 <0>         0.1278
     61 H23        -7.3568    5.0675   -1.3731 H         1 <0>         0.1429
     62 H24        -9.2513    1.9894    0.9121 H         1 <0>         0.1299
     63 H25        -7.1068    0.7952    1.0817 H         1 <0>         0.1501
     64 H26       -10.2879    4.2611    0.3964 H         1 <0>         0.4103
     65 H27       -11.9890    4.9573    0.3205 H         1 <0>         0.1259
     66 H28       -14.1941    6.0175    0.0697 H         1 <0>         0.1314
     67 H29       -14.7471    7.2451   -1.9892 H         1 <0>         0.1297
     68 H30       -13.1008    7.4192   -3.8088 H         1 <0>         0.1324
     69 H31       -10.8861    6.3754   -3.5741 H         1 <0>         0.1377
@<TRIPOS>BOND
     1    1    2 1
     2    1   39 1
     3    1   40 1
     4    1   41 1
     5    2    3 1
     6    3    8 ar
     7    3    4 ar
     8    4    5 ar
     9    4   42 1
    10    5   22 ar
    11    5    6 ar
    12    6    7 ar
    13    6   19 ar
    14    7    8 ar
    15    7   43 1
    16    8    9 1
    17    9   10 1
    18   10   11 1
    19   10   44 1
    20   10   45 1
    21   11   12 1
    22   11   46 1
    23   11   47 1
    24   12   13 1
    25   12   48 1
    26   12   49 1
    27   13   18 1
    28   13   14 1
    29   14   15 1
    30   14   50 1
    31   14   51 1
    32   15   16 1
    33   15   52 1
    34   15   53 1
    35   16   17 1
    36   17   18 1
    37   17   54 1
    38   17   55 1
    39   18   56 1
    40   18   57 1
    41   19   20 ar
    42   20   21 ar
    43   20   58 1
    44   21   22 ar
    45   22   23 1
    46   23   24 1
    47   23   59 1
    48   24   29 ar
    49   24   25 ar
    50   25   26 ar
    51   25   60 1
    52   26   27 ar
    53   26   61 1
    54   27   28 ar
    55   27   30 1
    56   28   29 ar
    57   28   62 1
    58   29   63 1
    59   30   31 am
    60   30   64 1
    61   31   32 2
    62   31   33 1
    63   33   38 ar
    64   33   34 ar
    65   34   35 ar
    66   34   65 1
    67   35   36 ar
    68   35   66 1
    69   36   37 ar
    70   36   67 1
    71   37   38 ar
    72   37   68 1
    73   38   69 1
@<TRIPOS>MOLECULE
ZINC16697102
   68    71     0     0     0
SMALL
USER_CHARGES

@<TRIPOS>ATOM
      1 C1          0.1414    1.0953    0.0252 C.3       1 <0>        -0.1879
      2 C2          0.0344   -0.4077    0.2904 C.3       1 <0>        -0.0179
      3 N1         -1.3805   -0.7845    0.4095 N.4       1 <0>        -0.3831
      4 C3         -1.4799   -2.1986    0.7946 C.3       1 <0>        -0.0114
      5 C4         -0.8914   -2.3887    2.1940 C.3       1 <0>        -0.1507
      6 C5         -0.9950   -3.8615    2.5951 C.3       1 <0>         0.0609
      7 O1         -0.4452   -4.0391    3.9021 O.3       1 <0>        -0.3065
      8 C6         -0.4595   -5.2979    4.4111 C.ar      1 <0>         0.1651
      9 C7         -0.9928   -6.3439    3.6526 C.ar      1 <0>        -0.2107
     10 C8         -1.0196   -7.6158    4.1389 C.ar      1 <0>        -0.0238
     11 C9         -0.5074   -7.8823    5.4144 C.ar      1 <0>        -0.2178
     12 C10         0.0354   -6.8287    6.1913 C.ar      1 <0>         0.2289
     13 C11         0.0571   -5.5307    5.6679 C.ar      1 <0>        -0.1455
     14 N2          0.5204   -7.1100    7.4103 N.ar      1 <0>        -0.5500
     15 C12         0.4909   -8.3384    7.8707 C.ar      1 <0>         0.3626
     16 N3         -0.0056   -9.3531    7.1820 N.ar      1 <0>        -0.5775
     17 C13        -0.5106   -9.1853    5.9662 C.ar      1 <0>         0.4884
     18 N4         -1.0254  -10.2523    5.2597 N.pl3     1 <0>        -0.5978
     19 C14        -1.0192  -11.5341    5.8239 C.2       1 <0>         0.2990
     20 C15        -0.5280  -11.8736    7.0950 C.2       1 <0>        -0.2355
     21 C16        -0.7031  -13.2037    7.2657 C.2       1 <0>         0.1068
     22 N5         -1.2824  -13.6919    6.1487 N.pl3     1 <0>        -0.4559
     23 H1         -1.5251  -14.6176    5.9907 H         1 <0>         0.4419
     24 N6         -1.4765  -12.6271    5.2595 N.2       1 <0>        -0.3116
     25 C17        -0.3191  -13.9996    8.4864 C.3       1 <0>        -0.0770
     26 C18        -1.4265  -13.9219    9.5056 C.2       1 <0>         0.5143
     27 O2         -2.4289  -13.2831    9.2644 O.2       1 <0>        -0.5002
     28 N7         -1.3030  -14.5622   10.6851 N.am      1 <0>        -0.6720
     29 C19        -2.2828  -14.4064   11.6717 C.ar      1 <0>         0.1711
     30 C20        -1.9219  -14.3818   13.0129 C.ar      1 <0>        -0.1532
     31 C21        -2.8902  -14.2274   13.9854 C.ar      1 <0>        -0.0700
     32 C22        -4.2191  -14.0976   13.6262 C.ar      1 <0>        -0.1667
     33 C23        -4.5833  -14.1215   12.2902 C.ar      1 <0>         0.1178
     34 C24        -3.6165  -14.2702   11.3118 C.ar      1 <0>        -0.1591
     35 F1         -5.8825  -13.9949   11.9421 F         1 <0>        -0.1354
     36 C25        -2.0519   -0.5800   -0.8810 C.3       1 <0>        -0.0098
     37 C26        -3.5535   -0.8247   -0.7191 C.3       1 <0>         0.0446
     38 O3         -4.1050    0.1610    0.1562 O.3       1 <0>        -0.5793
     39 H2          1.1903    1.3917    0.0323 H         1 <0>         0.1072
     40 H3         -0.2944    1.3246   -0.9472 H         1 <0>         0.0804
     41 H4         -0.3955    1.6404    0.8016 H         1 <0>         0.0817
     42 H5          0.4880   -0.9556   -0.5355 H         1 <0>         0.1307
     43 H6          0.5544   -0.6511    1.2170 H         1 <0>         0.1338
     44 H7         -2.5269   -2.5019    0.7965 H         1 <0>         0.1336
     45 H8         -0.9261   -2.8092    0.0814 H         1 <0>         0.1348
     46 H9          0.1556   -2.0854    2.1921 H         1 <0>         0.1011
     47 H10        -1.4452   -1.7781    2.9071 H         1 <0>         0.1012
     48 H11        -2.0419   -4.1648    2.5970 H         1 <0>         0.0752
     49 H12        -0.4411   -4.4721    1.8820 H         1 <0>         0.0757
     50 H13        -1.3888   -6.1408    2.6686 H         1 <0>         0.1349
     51 H14        -1.4346   -8.4154    3.5432 H         1 <0>         0.1334
     52 H15         0.4712   -4.7175    6.2456 H         1 <0>         0.1508
     53 H16         0.8901   -8.5298    8.8558 H         1 <0>         0.2027
     54 H17        -1.3916  -10.1149    4.3721 H         1 <0>         0.4252
     55 H18        -0.0885  -11.1933    7.8093 H         1 <0>         0.1852
     56 H19        -0.1563  -15.0401    8.2054 H         1 <0>         0.1142
     57 H20         0.5968  -13.5910    8.9133 H         1 <0>         0.1312
     58 H21        -0.5348  -15.1312   10.8499 H         1 <0>         0.4166
     59 H22        -0.8844  -14.4838   13.2950 H         1 <0>         0.1350
     60 H23        -2.6091  -14.2084   15.0280 H         1 <0>         0.1399
     61 H24        -4.9744  -13.9777   14.3888 H         1 <0>         0.1383
     62 H25        -3.8995  -14.2849   10.2696 H         1 <0>         0.1494
     63 H26        -1.8848    0.4425   -1.2196 H         1 <0>         0.1421
     64 H27        -1.6474   -1.2765   -1.6154 H         1 <0>         0.1431
     65 H28        -4.0394   -0.7588   -1.6926 H         1 <0>         0.0960
     66 H29        -3.7166   -1.8167   -0.2980 H         1 <0>         0.0707
     67 H30        -5.0389    0.0226    0.3657 H         1 <0>         0.4093
     68 H31        -1.8228   -0.2123    1.1131 H         1 <0>         0.4316
@<TRIPOS>BOND
     1    1    2 1
     2    1   39 1
     3    1   40 1
     4    1   41 1
     5    2    3 1
     6    2   42 1
     7    2   43 1
     8    3    4 1
     9    3   36 1
    10    3   68 1
    11    4    5 1
    12    4   44 1
    13    4   45 1
    14    5    6 1
    15    5   46 1
    16    5   47 1
    17    6    7 1
    18    6   48 1
    19    6   49 1
    20    7    8 1
    21    8   13 ar
    22    8    9 ar
    23    9   10 ar
    24    9   50 1
    25   10   11 ar
    26   10   51 1
    27   11   17 ar
    28   11   12 ar
    29   12   13 ar
    30   12   14 ar
    31   13   52 1
    32   14   15 ar
    33   15   16 ar
    34   15   53 1
    35   16   17 ar
    36   17   18 1
    37   18   19 1
    38   18   54 1
    39   19   24 2
    40   19   20 1
    41   20   21 2
    42   20   55 1
    43   21   22 1
    44   21   25 1
    45   22   23 1
    46   22   24 1
    47   25   26 1
    48   25   56 1
    49   25   57 1
    50   26   27 2
    51   26   28 am
    52   28   29 1
    53   28   58 1
    54   29   34 ar
    55   29   30 ar
    56   30   31 ar
    57   30   59 1
    58   31   32 ar
    59   31   60 1
    60   32   33 ar
    61   32   61 1
    62   33   34 ar
    63   33   35 1
    64   34   62 1
    65   36   37 1
    66   36   63 1
    67   36   64 1
    68   37   38 1
    69   37   65 1
    70   37   66 1
    71   38   67 1
@<TRIPOS>MOLECULE
ZINC16697102
   68    71     0     0     0
SMALL
USER_CHARGES

@<TRIPOS>ATOM
      1 C1          0.1009    1.0895    0.0671 C.3       1 <0>        -0.1880
      2 C2          0.0005   -0.4150    0.3267 C.3       1 <0>        -0.0178
      3 N1         -1.4127   -0.7982    0.4447 N.4       1 <0>        -0.3831
      4 C3         -1.5060   -2.2142    0.8244 C.3       1 <0>        -0.0114
      5 C4         -0.9163   -2.4070    2.2230 C.3       1 <0>        -0.1510
      6 C5         -1.0135   -3.8818    2.6185 C.3       1 <0>         0.0610
      7 O1         -0.4626   -4.0619    3.9247 O.3       1 <0>        -0.3058
      8 C6         -0.4714   -5.3227    4.4290 C.ar      1 <0>         0.1652
      9 C7         -1.0003   -6.3681    3.6667 C.ar      1 <0>        -0.2079
     10 C8         -1.0216   -7.6420    4.1481 C.ar      1 <0>        -0.0271
     11 C9         -0.5079   -7.9111    5.4225 C.ar      1 <0>        -0.2157
     12 C10         0.0306   -6.8581    6.2032 C.ar      1 <0>         0.2279
     13 C11         0.0466   -5.5580    5.6848 C.ar      1 <0>        -0.1434
     14 N2          0.5172   -7.1419    7.4211 N.ar      1 <0>        -0.5462
     15 C12         0.4930   -8.3722    7.8768 C.ar      1 <0>         0.3627
     16 N3          0.0007   -9.3864    7.1844 N.ar      1 <0>        -0.5729
     17 C13        -0.5054   -9.2161    5.9694 C.ar      1 <0>         0.4842
     18 N4         -1.0159  -10.2829    5.2588 N.pl3     1 <0>        -0.6133
     19 C14        -1.0041  -11.5601    5.8152 C.2       1 <0>         0.2975
     20 C15        -0.5278  -11.8985    7.0451 C.2       1 <0>        -0.2522
     21 C16        -0.7053  -13.2747    7.2096 C.2       1 <0>         0.0931
     22 N5         -1.2647  -13.7522    6.1276 N.2       1 <0>        -0.2441
     23 N6         -1.4709  -12.6946    5.2325 N.pl3     1 <0>        -0.4898
     24 H1         -1.8732  -12.7611    4.3523 H         1 <0>         0.4364
     25 C17        -0.3175  -14.0738    8.4270 C.3       1 <0>        -0.0571
     26 C18        -1.5188  -14.8275    8.9368 C.2       1 <0>         0.5153
     27 O2         -2.5849  -14.7257    8.3676 O.2       1 <0>        -0.4982
     28 N7         -1.4084  -15.6146   10.0253 N.am      1 <0>        -0.6749
     29 C19        -2.5443  -16.2321   10.5602 C.ar      1 <0>         0.1739
     30 C20        -2.6655  -16.3952   11.9344 C.ar      1 <0>        -0.1553
     31 C21        -3.7876  -17.0044   12.4607 C.ar      1 <0>        -0.0709
     32 C22        -4.7909  -17.4530   11.6216 C.ar      1 <0>        -0.1690
     33 C23        -4.6742  -17.2924   10.2511 C.ar      1 <0>         0.1173
     34 C24        -3.5547  -16.6775    9.7191 C.ar      1 <0>        -0.1594
     35 F1         -5.6558  -17.7320    9.4336 F         1 <0>        -0.1360
     36 C25        -2.0854   -0.5918   -0.8449 C.3       1 <0>        -0.0099
     37 C26        -3.5858   -0.8435   -0.6835 C.3       1 <0>         0.0446
     38 O3         -4.1414    0.1365    0.1957 O.3       1 <0>        -0.5792
     39 H2          1.1486    1.3904    0.0751 H         1 <0>         0.1074
     40 H3         -0.3361    1.3206   -0.9043 H         1 <0>         0.0805
     41 H4         -0.4380    1.6293    0.8457 H         1 <0>         0.0817
     42 H5          0.4562   -0.9578   -0.5014 H         1 <0>         0.1308
     43 H6          0.5217   -0.6596    1.2522 H         1 <0>         0.1337
     44 H7         -2.5517   -2.5220    0.8255 H         1 <0>         0.1335
     45 H8         -0.9498   -2.8197    0.1089 H         1 <0>         0.1347
     46 H9          0.1294   -2.0993    2.2220 H         1 <0>         0.1014
     47 H10        -1.4725   -1.8015    2.9385 H         1 <0>         0.1015
     48 H11        -2.0591   -4.1896    2.6196 H         1 <0>         0.0752
     49 H12        -0.4572   -4.4873    1.9030 H         1 <0>         0.0757
     50 H13        -1.3975   -6.1630    2.6836 H         1 <0>         0.1354
     51 H14        -1.4333   -8.4411    3.5496 H         1 <0>         0.1313
     52 H15         0.4574   -4.7453    6.2654 H         1 <0>         0.1520
     53 H16         0.8932   -8.5656    8.8611 H         1 <0>         0.2055
     54 H17        -1.3830  -10.1437    4.3718 H         1 <0>         0.4209
     55 H18        -0.0902  -11.2232    7.7655 H         1 <0>         0.1880
     56 H19         0.4693  -14.7803    8.1624 H         1 <0>         0.1181
     57 H20         0.0452  -13.4002    9.2034 H         1 <0>         0.1229
     58 H21        -0.5415  -15.7530   10.4378 H         1 <0>         0.4158
     59 H22        -1.8824  -16.0460   12.5909 H         1 <0>         0.1343
     60 H23        -3.8814  -17.1310   13.5291 H         1 <0>         0.1388
     61 H24        -5.6670  -17.9297   12.0358 H         1 <0>         0.1372
     62 H25        -3.4650  -16.5484    8.6506 H         1 <0>         0.1513
     63 H26        -1.9227    0.4328   -1.1796 H         1 <0>         0.1424
     64 H27        -1.6780   -1.2838   -1.5820 H         1 <0>         0.1432
     65 H28        -4.0723   -0.7760   -1.6566 H         1 <0>         0.0961
     66 H29        -3.7446   -1.8378   -0.2661 H         1 <0>         0.0704
     67 H30        -5.0746   -0.0067    0.4048 H         1 <0>         0.4093
     68 H31        -1.8573   -0.2307    1.1505 H         1 <0>         0.4316
@<TRIPOS>BOND
     1    1    2 1
     2    1   39 1
     3    1   40 1
     4    1   41 1
     5    2    3 1
     6    2   42 1
     7    2   43 1
     8    3    4 1
     9    3   36 1
    10    3   68 1
    11    4    5 1
    12    4   44 1
    13    4   45 1
    14    5    6 1
    15    5   46 1
    16    5   47 1
    17    6    7 1
    18    6   48 1
    19    6   49 1
    20    7    8 1
    21    8   13 ar
    22    8    9 ar
    23    9   10 ar
    24    9   50 1
    25   10   11 ar
    26   10   51 1
    27   11   17 ar
    28   11   12 ar
    29   12   13 ar
    30   12   14 ar
    31   13   52 1
    32   14   15 ar
    33   15   16 ar
    34   15   53 1
    35   16   17 ar
    36   17   18 1
    37   18   19 1
    38   18   54 1
    39   19   23 1
    40   19   20 2
    41   20   21 1
    42   20   55 1
    43   21   22 2
    44   21   25 1
    45   22   23 1
    46   23   24 1
    47   25   26 1
    48   25   56 1
    49   25   57 1
    50   26   27 2
    51   26   28 am
    52   28   29 1
    53   28   58 1
    54   29   34 ar
    55   29   30 ar
    56   30   31 ar
    57   30   59 1
    58   31   32 ar
    59   31   60 1
    60   32   33 ar
    61   32   61 1
    62   33   34 ar
    63   33   35 1
    64   34   62 1
    65   36   37 1
    66   36   63 1
    67   36   64 1
    68   37   38 1
    69   37   65 1
    70   37   66 1
    71   38   67 1
@<TRIPOS>MOLECULE
ZINC06718813
   46    49     0     0     0
SMALL
USER_CHARGES
3-[4-(3-amino-1H-indazol-4-yl)phenyl]-1-(2-fluoro-5-methyl-phenyl)urea
@<TRIPOS>ATOM
      1 C1          6.9492   -0.6708   -4.4566 C.3       1 <0>        -0.1151
      2 C2          7.3188   -0.0066   -3.1554 C.ar      1 <0>        -0.0747
      3 C3          8.6152   -0.0905   -2.6815 C.ar      1 <0>        -0.1060
      4 C4          8.9590    0.5169   -1.4879 C.ar      1 <0>        -0.1295
      5 C5          8.0061    1.2101   -0.7639 C.ar      1 <0>         0.0645
      6 C6          6.7020    1.2957   -1.2387 C.ar      1 <0>         0.1336
      7 C7          6.3607    0.6802   -2.4351 C.ar      1 <0>        -0.0953
      8 N1          5.7336    1.9963   -0.5085 N.am      1 <0>        -0.6783
      9 C8          4.4547    1.5712   -0.5040 C.2       1 <0>         0.7069
     10 O1          4.1265    0.6239   -1.1921 O.2       1 <0>        -0.5500
     11 N2          3.5395    2.1961    0.2631 N.am      1 <0>        -0.6801
     12 C9          2.2409    1.6865    0.3572 C.ar      1 <0>         0.1677
     13 C10         1.1632    2.5541    0.4899 C.ar      1 <0>        -0.1430
     14 C11        -0.1180    2.0545    0.5834 C.ar      1 <0>        -0.0892
     15 C12        -0.3326    0.6766    0.5442 C.ar      1 <0>        -0.0682
     16 C13         0.7509   -0.1919    0.4104 C.ar      1 <0>        -0.0779
     17 C14         2.0300    0.3132    0.3174 C.ar      1 <0>        -0.1142
     18 C15        -1.7083    0.1367    0.6449 C.ar      1 <0>         0.0376
     19 C16        -2.0347   -0.7648    1.6483 C.ar      1 <0>        -0.1557
     20 C17        -3.3230   -1.2675    1.7456 C.ar      1 <0>        -0.0592
     21 C18        -4.2968   -0.8911    0.8473 C.ar      1 <0>        -0.1529
     22 C19        -3.9969    0.0086   -0.1734 C.ar      1 <0>         0.1547
     23 C20        -2.6946    0.5292   -0.2801 C.ar      1 <0>        -0.1858
     24 C21        -2.7034    1.4283   -1.4324 C.2       1 <0>         0.3642
     25 N3         -3.9099    1.4169   -1.9352 N.2       1 <0>        -0.3205
     26 N4         -4.7292    0.5606   -1.1926 N.pl3     1 <0>        -0.5119
     27 H1         -5.6955    0.3797   -1.3759 H         1 <0>         0.4473
     28 N5         -1.6172    2.1667   -1.9108 N.pl3     1 <0>        -0.8360
     29 F1          8.3418    1.8036    0.4023 F         1 <0>        -0.1384
     30 H2          6.6188   -1.6912   -4.2627 H         1 <0>         0.0755
     31 H3          6.1436   -0.1125   -4.9335 H         1 <0>         0.0695
     32 H4          7.8178   -0.6890   -5.1149 H         1 <0>         0.0704
     33 H5          9.3607   -0.6319   -3.2448 H         1 <0>         0.1352
     34 H6          9.9724    0.4496   -1.1204 H         1 <0>         0.1410
     35 H7          5.3477    0.7413   -2.8045 H         1 <0>         0.1523
     36 H8          5.9835    2.7876   -0.0061 H         1 <0>         0.4118
     37 H9          3.7818    2.9993    0.7499 H         1 <0>         0.4106
     38 H10         1.3298    3.6208    0.5203 H         1 <0>         0.1310
     39 H11        -0.9554    2.7293    0.6824 H         1 <0>         0.1315
     40 H12         0.5876   -1.2590    0.3794 H         1 <0>         0.1314
     41 H13         2.8692   -0.3587    0.2138 H         1 <0>         0.1391
     42 H14        -1.2822   -1.0738    2.3586 H         1 <0>         0.1292
     43 H15        -3.5651   -1.9655    2.5334 H         1 <0>         0.1325
     44 H16        -5.2951   -1.2940    0.9345 H         1 <0>         0.1278
     45 H17        -0.7342    2.0309   -1.5329 H         1 <0>         0.4118
     46 H18        -1.7465    2.8151   -2.6206 H         1 <0>         0.4050
@<TRIPOS>BOND
     1    1    2 1
     2    1   30 1
     3    1   31 1
     4    1   32 1
     5    2    7 ar
     6    2    3 ar
     7    3    4 ar
     8    3   33 1
     9    4    5 ar
    10    4   34 1
    11    5    6 ar
    12    5   29 1
    13    6    7 ar
    14    6    8 1
    15    7   35 1
    16    8    9 am
    17    8   36 1
    18    9   10 2
    19    9   11 am
    20   11   12 1
    21   11   37 1
    22   12   17 ar
    23   12   13 ar
    24   13   14 ar
    25   13   38 1
    26   14   15 ar
    27   14   39 1
    28   15   16 ar
    29   15   18 1
    30   16   17 ar
    31   16   40 1
    32   17   41 1
    33   18   23 ar
    34   18   19 ar
    35   19   20 ar
    36   19   42 1
    37   20   21 ar
    38   20   43 1
    39   21   22 ar
    40   21   44 1
    41   22   26 1
    42   22   23 ar
    43   23   24 1
    44   24   25 2
    45   24   28 1
    46   25   26 1
    47   26   27 1
    48   28   45 1
    49   28   46 1
@<TRIPOS>MOLECULE
ZINC28824586
   32    34     0     0     0
SMALL
USER_CHARGES
4-(3H-imidazo[4,5-b]pyridin-2-yl)-N,N-dimethyl-aniline
@<TRIPOS>ATOM
      1 C1         -2.4738    5.2775    0.1953 C.3       1 <0>         0.0802
      2 N1         -2.4505    3.8182    0.0692 N.pl3     1 <0>        -0.6295
      3 C2         -3.7068    3.0716   -0.0333 C.3       1 <0>         0.0811
      4 C3         -1.2334    3.1401    0.0466 C.ar      1 <0>         0.2400
      5 C4         -1.2136    1.7490    0.0413 C.ar      1 <0>        -0.2035
      6 C5         -0.0120    1.0762    0.0248 C.ar      1 <0>        -0.0435
      7 C6          1.1872    1.7917    0.0023 C.ar      1 <0>        -0.1076
      8 C7          1.1641    3.1882    0.0020 C.ar      1 <0>        -0.0084
      9 C8         -0.0405    3.8556    0.0238 C.ar      1 <0>        -0.2046
     10 C9          2.4777    1.0728   -0.0206 C.2       1 <0>         0.3565
     11 N2          3.7112    1.6683   -0.0494 N.2       1 <0>        -0.4842
     12 H1          1.8583   -1.0294   -0.0009 H         1 <0>         0.4509
     13 C10         4.6538    0.6615   -0.0535 C.ar      1 <0>         0.2556
     14 C11         3.9319   -0.5468   -0.0363 C.ar      1 <0>        -0.0345
     15 N3          2.6150   -0.2312   -0.0167 N.pl3     1 <0>        -0.5579
     16 C12         4.6356   -1.7561   -0.0419 C.ar      1 <0>        -0.0456
     17 C13         6.0168   -1.7070   -0.0539 C.ar      1 <0>        -0.1679
     18 C14         6.6571   -0.4784   -0.0702 C.ar      1 <0>         0.1392
     19 N4          5.9767    0.6498   -0.0692 N.ar      1 <0>        -0.4511
     20 H2         -1.4431    5.6565    0.2591 H         1 <0>         0.0832
     21 H3         -3.0246    5.5581    1.1052 H         1 <0>         0.0596
     22 H4         -2.9711    5.7136   -0.6835 H         1 <0>         0.0594
     23 H5         -3.4887    1.9970   -0.1202 H         1 <0>         0.0811
     24 H6         -4.2608    3.4064   -0.9227 H         1 <0>         0.0595
     25 H7         -4.3143    3.2509    0.8660 H         1 <0>         0.0591
     26 H8         -2.1413    1.1964    0.0542 H         1 <0>         0.1324
     27 H9          0.0028   -0.0037    0.0247 H         1 <0>         0.1199
     28 H10         2.0898    3.7441   -0.0157 H         1 <0>         0.1410
     29 H11        -0.0590    4.9354    0.0237 H         1 <0>         0.1342
     30 H12         4.1667   -2.6393   -0.0301 H         1 <0>         0.1234
     31 H13         6.5473   -2.5548   -0.0546 H         1 <0>         0.1317
     32 H14         7.6569   -0.4594   -0.0830 H         1 <0>         0.1499
@<TRIPOS>BOND
     1    1    2 1
     2    1   20 1
     3    1   21 1
     4    1   22 1
     5    2    3 1
     6    2    4 1
     7    3   23 1
     8    3   24 1
     9    3   25 1
    10    4    9 ar
    11    4    5 ar
    12    5    6 ar
    13    5   26 1
    14    6    7 ar
    15    6   27 1
    16    7    8 ar
    17    7   10 1
    18    8    9 ar
    19    8   28 1
    20    9   29 1
    21   10   15 1
    22   10   11 2
    23   11   13 1
    24   12   15 1
    25   13   14 ar
    26   13   19 ar
    27   14   16 ar
    28   14   15 1
    29   16   17 ar
    30   16   30 1
    31   17   18 ar
    32   17   31 1
    33   18   32 1
    34   18   19 ar
@<TRIPOS>MOLECULE
ZINC28824588
   32    34     0     0     0
SMALL
USER_CHARGES
3-(3H-imidazo[4,5-b]pyridin-2-yl)-N,N-dimethyl-aniline
@<TRIPOS>ATOM
      1 C1          2.4185   -0.3640   -0.0086 C.3       1 <0>         0.0847
      2 N1          2.4011    1.1008   -0.0057 N.pl3     1 <0>        -0.6371
      3 C2          3.6611    1.8483   -0.0199 C.3       1 <0>         0.0859
      4 C3          1.1832    1.7850    0.0106 C.ar      1 <0>         0.2172
      5 C4         -0.0125    1.0757    0.0241 C.ar      1 <0>        -0.1789
      6 C5         -1.2198    1.7481    0.0340 C.ar      1 <0>        -0.0692
      7 C6         -1.2464    3.1283    0.0423 C.ar      1 <0>        -0.1207
      8 C7         -0.0518    3.8494    0.0288 C.ar      1 <0>         0.0100
      9 C8          1.1667    3.1713    0.0130 C.ar      1 <0>        -0.1850
     10 C9         -0.0778    5.3283    0.0318 C.2       1 <0>         0.3403
     11 N2         -1.2118    6.0961    0.0414 N.2       1 <0>        -0.4697
     12 H1          2.0508    5.8464    0.0144 H         1 <0>         0.4514
     13 C10        -0.8144    7.4161    0.0497 C.ar      1 <0>         0.2526
     14 C11         0.5932    7.3980    0.0363 C.ar      1 <0>        -0.0320
     15 N3          0.9807    6.1007    0.0259 N.pl3     1 <0>        -0.5521
     16 C12         1.2861    8.6138    0.0361 C.ar      1 <0>        -0.0452
     17 C13         0.5507    9.7836    0.0577 C.ar      1 <0>        -0.1638
     18 C14        -0.8336    9.7209    0.0701 C.ar      1 <0>         0.1412
     19 N4         -1.4681    8.5665    0.0663 N.ar      1 <0>        -0.4480
     20 H2          1.3858   -0.7429    0.0034 H         1 <0>         0.0813
     21 H3          2.9524   -0.7261    0.8824 H         1 <0>         0.0572
     22 H4          2.9302   -0.7228   -0.9138 H         1 <0>         0.0572
     23 H5          3.4473    2.9273   -0.0153 H         1 <0>         0.0742
     24 H6          4.2298    1.5911   -0.9256 H         1 <0>         0.0577
     25 H7          4.2520    1.5878    0.8706 H         1 <0>         0.0577
     26 H8          0.0022   -0.0042    0.0223 H         1 <0>         0.1309
     27 H9         -2.1456    1.1919    0.0397 H         1 <0>         0.1331
     28 H10        -2.1919    3.6500    0.0549 H         1 <0>         0.1388
     29 H11         2.0944    3.7243    0.0021 H         1 <0>         0.1219
     30 H12         2.2853    8.6515    0.0270 H         1 <0>         0.1244
     31 H13         1.0177   10.6679    0.0611 H         1 <0>         0.1329
     32 H14        -1.3517   10.5762    0.0822 H         1 <0>         0.1512
@<TRIPOS>BOND
     1    1    2 1
     2    1   20 1
     3    1   21 1
     4    1   22 1
     5    2    3 1
     6    2    4 1
     7    3   23 1
     8    3   24 1
     9    3   25 1
    10    4    9 ar
    11    4    5 ar
    12    5    6 ar
    13    5   26 1
    14    6    7 ar
    15    6   27 1
    16    7    8 ar
    17    7   28 1
    18    8    9 ar
    19    8   10 1
    20    9   29 1
    21   10   15 1
    22   10   11 2
    23   11   13 1
    24   12   15 1
    25   13   14 ar
    26   13   19 ar
    27   14   16 ar
    28   14   15 1
    29   16   17 ar
    30   16   30 1
    31   17   18 ar
    32   17   31 1
    33   18   32 1
    34   18   19 ar
@<TRIPOS>MOLECULE
ZINC01513007
   28    30     0     0     0
SMALL
USER_CHARGES
2-(4-methoxyphenyl)-1H-imidazo[4,5-b]pyridine
@<TRIPOS>ATOM
      1 C1          2.2301    5.2893    0.0095 C.3       1 <0>         0.0236
      2 O1          2.3211    3.8632    0.0011 O.3       1 <0>        -0.3114
      3 C2          1.1529    3.1709    0.0081 C.ar      1 <0>         0.1517
      4 C3          1.1707    1.7818    0.0005 C.ar      1 <0>        -0.1517
      5 C4         -0.0126    1.0758    0.0080 C.ar      1 <0>        -0.0220
      6 C5         -1.2307    1.7584    0.0174 C.ar      1 <0>        -0.0794
      7 C6         -1.2444    3.1548    0.0295 C.ar      1 <0>        -0.0542
      8 C7         -0.0570    3.8536    0.0223 C.ar      1 <0>        -0.2094
      9 C8         -2.5019    1.0052    0.0198 C.2       1 <0>         0.3623
     10 N1         -3.7495    1.5663    0.0288 N.pl3     1 <0>        -0.5952
     11 H1         -3.9622    2.5434    0.0353 H         1 <0>         0.4310
     12 C9         -4.6595    0.5277    0.0272 C.ar      1 <0>        -0.0056
     13 C10        -6.0461    0.4559    0.0336 C.ar      1 <0>        -0.0607
     14 C11        -6.6371   -0.7965    0.0296 C.ar      1 <0>        -0.1622
     15 C12        -5.8369   -1.9280    0.0195 C.ar      1 <0>         0.1230
     16 N2         -4.5246   -1.8399    0.0135 N.ar      1 <0>        -0.4466
     17 C13        -3.9052   -0.6602    0.0169 C.ar      1 <0>         0.2560
     18 N3         -2.6045   -0.3028    0.0080 N.2       1 <0>        -0.4762
     19 H2          1.6861    5.6239   -0.8737 H         1 <0>         0.0588
     20 H3          1.7024    5.6144    0.9062 H         1 <0>         0.0588
     21 H4          3.2326    5.7173    0.0027 H         1 <0>         0.1044
     22 H5          2.1132    1.2546   -0.0110 H         1 <0>         0.1428
     23 H6          0.0021   -0.0041    0.0020 H         1 <0>         0.1498
     24 H7         -2.1846    3.6862    0.0402 H         1 <0>         0.1245
     25 H8         -0.0668    4.9336    0.0282 H         1 <0>         0.1371
     26 H9         -6.6477    1.3528    0.0419 H         1 <0>         0.1360
     27 H10        -7.7130   -0.8907    0.0341 H         1 <0>         0.1469
     28 H11        -6.3009   -2.9033    0.0167 H         1 <0>         0.1679
@<TRIPOS>BOND
     1    1    2 1
     2    1   19 1
     3    1   20 1
     4    1   21 1
     5    2    3 1
     6    3    8 ar
     7    3    4 ar
     8    4    5 ar
     9    4   22 1
    10    5    6 ar
    11    5   23 1
    12    6    7 ar
    13    6    9 1
    14    7    8 ar
    15    7   24 1
    16    8   25 1
    17    9   18 2
    18    9   10 1
    19   10   11 1
    20   10   12 1
    21   12   17 ar
    22   12   13 ar
    23   13   14 ar
    24   13   26 1
    25   14   15 ar
    26   14   27 1
    27   15   16 ar
    28   15   28 1
    29   16   17 ar
    30   17   18 1
@<TRIPOS>MOLECULE
ZINC01513007
   29    31     0     0     0
SMALL
USER_CHARGES
2-(4-methoxyphenyl)-1H-imidazo[4,5-b]pyridine
@<TRIPOS>ATOM
      1 C1          2.2301    5.2893    0.0095 C.3       1 <0>         0.0160
      2 O1          2.3211    3.8632    0.0011 O.3       1 <0>        -0.2967
      3 C2          1.1529    3.1709    0.0081 C.ar      1 <0>         0.2000
      4 C3          1.1707    1.7818    0.0005 C.ar      1 <0>        -0.1453
      5 C4         -0.0126    1.0758    0.0080 C.ar      1 <0>        -0.0206
      6 C5         -1.2307    1.7584    0.0174 C.ar      1 <0>        -0.1579
      7 C6         -1.2444    3.1548    0.0295 C.ar      1 <0>        -0.0133
      8 C7         -0.0570    3.8536    0.0223 C.ar      1 <0>        -0.2074
      9 C8         -2.5019    1.0052    0.0198 C.cat     1 <0>         0.4927
     10 N1         -3.7495    1.5663    0.0288 N.pl3     1 <0>        -0.5390
     11 H1         -3.9622    2.5434    0.0353 H         1 <0>         0.4695
     12 C9         -4.6595    0.5277    0.0272 C.ar      1 <0>         0.0294
     13 C10        -6.0461    0.4559    0.0336 C.ar      1 <0>        -0.0350
     14 C11        -6.6371   -0.7965    0.0296 C.ar      1 <0>        -0.1259
     15 C12        -5.8369   -1.9280    0.0195 C.ar      1 <0>         0.1685
     16 N2         -4.5246   -1.8399    0.0135 N.ar      1 <0>        -0.4518
     17 C13        -3.9052   -0.6602    0.0169 C.ar      1 <0>         0.2613
     18 H2          1.6861    5.6239   -0.8737 H         1 <0>         0.0676
     19 H3          1.7024    5.6144    0.9062 H         1 <0>         0.0676
     20 H4          3.2326    5.7173    0.0027 H         1 <0>         0.1164
     21 H5          2.1132    1.2546   -0.0110 H         1 <0>         0.1583
     22 H6          0.0021   -0.0041    0.0020 H         1 <0>         0.1430
     23 H7         -2.1846    3.6862    0.0402 H         1 <0>         0.1383
     24 H8         -0.0668    4.9336    0.0282 H         1 <0>         0.1540
     25 H9         -6.6477    1.3528    0.0419 H         1 <0>         0.1662
     26 H10        -7.7130   -0.8907    0.0341 H         1 <0>         0.1737
     27 H11        -6.3009   -2.9033    0.0167 H         1 <0>         0.1943
     28 N3         -2.6027   -0.3043    0.0080 N.pl3     1 <0>        -0.5026
     29 H12        -1.8111   -0.9581   -0.0060 H         1 <0>         0.4789
@<TRIPOS>BOND
     1    1    2 1
     2    1   18 1
     3    1   19 1
     4    1   20 1
     5    2    3 1
     6    3    8 ar
     7    3    4 ar
     8    4    5 ar
     9    4   21 1
    10    5    6 ar
    11    5   22 1
    12    6    7 ar
    13    6    9 1
    14    7    8 ar
    15    7   23 1
    16    8   24 1
    17    9   10 1
    18    9   28 2
    19   10   11 1
    20   10   12 1
    21   12   17 ar
    22   12   13 ar
    23   13   14 ar
    24   13   25 1
    25   14   15 ar
    26   14   26 1
    27   15   16 ar
    28   15   27 1
    29   16   17 ar
    30   17   28 1
    31   28   29 1
@<TRIPOS>MOLECULE
ZINC16186508
   32    34     0     0     0
SMALL
USER_CHARGES

@<TRIPOS>ATOM
      1 C1         -0.0178    1.4608    0.0101 C.3       1 <0>         0.0869
      2 N1          0.0021   -0.0041    0.0020 N.pl3     1 <0>        -0.6293
      3 C2          0.0241   -0.7433    1.2666 C.3       1 <0>         0.0862
      4 C3          0.0000   -0.6941   -1.2083 C.ar      1 <0>         0.2412
      5 C4          0.0131   -2.0853   -1.2142 C.ar      1 <0>        -0.2022
      6 C5          0.0116   -2.7702   -2.4090 C.ar      1 <0>        -0.0070
      7 C6         -0.0037   -2.0667   -3.6157 C.ar      1 <0>        -0.1115
      8 C7         -0.0173   -0.6699   -3.6064 C.ar      1 <0>        -0.0409
      9 C8         -0.0209    0.0093   -2.4084 C.ar      1 <0>        -0.2009
     10 C9         -0.0049   -2.7983   -4.8989 C.2       1 <0>         0.3819
     11 N2         -0.0136   -2.2162   -6.1373 N.pl3     1 <0>        -0.5923
     12 H1         -0.0203   -1.2651   -6.3278 H         1 <0>         0.4273
     13 C10        -0.0108   -3.2397   -7.0646 C.ar      1 <0>         0.0019
     14 C11        -0.0156   -3.2879   -8.4521 C.ar      1 <0>        -0.0495
     15 C12        -0.0097   -4.5309   -9.0646 C.ar      1 <0>        -0.0858
     16 C13         0.0008   -5.6763   -8.2824 C.ar      1 <0>         0.1396
     17 N3          0.0053   -5.6093   -6.9688 N.ar      1 <0>        -0.4304
     18 C14        -0.0000   -4.4400   -6.3303 C.ar      1 <0>         0.2645
     19 N4          0.0080   -4.1044   -5.0235 N.2       1 <0>        -0.4808
     20 Cl1        -0.0159   -4.6536  -10.7962 Cl        1 <0>        -0.0431
     21 H2          1.0048    1.8381    0.0023 H         1 <0>         0.0535
     22 H3         -0.5450    1.8219   -0.8730 H         1 <0>         0.0716
     23 H4         -0.5280    1.8123    0.9069 H         1 <0>         0.0710
     24 H5         -0.9979   -0.9406    1.5900 H         1 <0>         0.0542
     25 H6          0.5496   -1.6879    1.1262 H         1 <0>         0.0735
     26 H7          0.5371   -0.1514    2.0246 H         1 <0>         0.0708
     27 H8          0.0249   -2.6287   -0.2810 H         1 <0>         0.1334
     28 H9          0.0225   -3.8501   -2.4130 H         1 <0>         0.1417
     29 H10        -0.0288   -0.1233   -4.5378 H         1 <0>         0.1206
     30 H11        -0.0359    1.0892   -2.4006 H         1 <0>         0.1313
     31 H12        -0.0242   -2.3809   -9.0384 H         1 <0>         0.1465
     32 H13         0.0051   -6.6439   -8.7622 H         1 <0>         0.1762
@<TRIPOS>BOND
     1    1    2 1
     2    1   21 1
     3    1   22 1
     4    1   23 1
     5    2    3 1
     6    2    4 1
     7    3   24 1
     8    3   25 1
     9    3   26 1
    10    4    9 ar
    11    4    5 ar
    12    5    6 ar
    13    5   27 1
    14    6    7 ar
    15    6   28 1
    16    7    8 ar
    17    7   10 1
    18    8    9 ar
    19    8   29 1
    20    9   30 1
    21   10   19 2
    22   10   11 1
    23   11   12 1
    24   11   13 1
    25   13   18 ar
    26   13   14 ar
    27   14   15 ar
    28   14   31 1
    29   15   16 ar
    30   15   20 1
    31   16   17 ar
    32   16   32 1
    33   17   18 ar
    34   18   19 1
@<TRIPOS>MOLECULE
ZINC28824596
   35    37     0     0     0
SMALL
USER_CHARGES
N,N-dimethyl-4-(6-methyl-3H-imidazo[4,5-b]pyridin-2-yl)aniline
@<TRIPOS>ATOM
      1 C1         -6.7328   -3.1670    0.0055 C.3       1 <0>        -0.1088
      2 C2         -5.9637   -1.8710    0.0133 C.ar      1 <0>        -0.1412
      3 C3         -4.5816   -1.8823    0.0157 C.ar      1 <0>        -0.0509
      4 C4         -3.9112   -0.6542    0.0181 C.ar      1 <0>        -0.0280
      5 C5         -4.6660    0.5340    0.0281 C.ar      1 <0>         0.2483
      6 N1         -3.7513    1.5661    0.0338 N.2       1 <0>        -0.4827
      7 H1         -1.8249   -1.0799    0.0047 H         1 <0>         0.4504
      8 C6         -2.5017    1.0045    0.0185 C.2       1 <0>         0.3535
      9 N2         -2.6033   -0.3027    0.0127 N.pl3     1 <0>        -0.5579
     10 C7         -1.2312    1.7584    0.0103 C.ar      1 <0>        -0.1044
     11 C8         -0.0126    1.0759    0.0012 C.ar      1 <0>        -0.0467
     12 C9          1.1702    1.7814   -0.0122 C.ar      1 <0>        -0.1965
     13 C10         1.1520    3.1724   -0.0114 C.ar      1 <0>         0.2362
     14 C11        -0.0601    3.8550    0.0026 C.ar      1 <0>        -0.1976
     15 C12        -1.2461    3.1550    0.0161 C.ar      1 <0>        -0.0115
     16 N3          2.3504    3.8834   -0.0249 N.pl3     1 <0>        -0.6298
     17 C13         3.6276    3.1661   -0.0401 C.3       1 <0>         0.0876
     18 C14         2.3330    5.3483   -0.0240 C.3       1 <0>         0.0866
     19 N4         -5.9881    0.4860    0.0303 N.ar      1 <0>        -0.4468
     20 C15        -6.6375   -0.6603    0.0232 C.ar      1 <0>         0.1406
     21 H2         -6.0280   -4.0115   -0.0019 H         1 <0>         0.0669
     22 H3         -7.3675   -3.2113   -0.8918 H         1 <0>         0.0761
     23 H4         -7.3641   -3.2241    0.9045 H         1 <0>         0.0761
     24 H5         -4.0887   -2.7523    0.0087 H         1 <0>         0.1228
     25 H6          0.0021   -0.0040    0.0000 H         1 <0>         0.1194
     26 H7          2.1127    1.2542   -0.0231 H         1 <0>         0.1288
     27 H8         -0.0710    4.9350    0.0032 H         1 <0>         0.1307
     28 H9         -2.1868    3.6855    0.0269 H         1 <0>         0.1405
     29 H10         4.4550    3.8909   -0.0493 H         1 <0>         0.0775
     30 H11         3.6829    2.5349   -0.9392 H         1 <0>         0.0579
     31 H12         3.7038    2.5340    0.8569 H         1 <0>         0.0580
     32 H13         3.3656    5.7273   -0.0358 H         1 <0>         0.0773
     33 H14         1.8206    5.7084    0.8803 H         1 <0>         0.0594
     34 H15         1.7998    5.7092   -0.9159 H         1 <0>         0.0594
     35 H16        -7.6375   -0.6685    0.0250 H         1 <0>         0.1489
@<TRIPOS>BOND
     1    1   21 1
     2    1   22 1
     3    1   23 1
     4    1    2 1
     5    2   20 ar
     6    2    3 ar
     7    3   24 1
     8    3    4 ar
     9    4    9 1
    10    4    5 ar
    11    5    6 1
    12    5   19 ar
    13    6    8 2
    14    7    9 1
    15    8    9 1
    16    8   10 1
    17   10   15 ar
    18   10   11 ar
    19   11   12 ar
    20   11   25 1
    21   12   13 ar
    22   12   26 1
    23   13   14 ar
    24   13   16 1
    25   14   15 ar
    26   14   27 1
    27   15   28 1
    28   16   17 1
    29   16   18 1
    30   17   29 1
    31   17   30 1
    32   17   31 1
    33   18   32 1
    34   18   33 1
    35   18   34 1
    36   19   20 ar
    37   20   35 1
@<TRIPOS>MOLECULE
ZINC18128389
   33    36     0     0     0
SMALL
USER_CHARGES

@<TRIPOS>ATOM
      1 C1          0.0638    1.4312    0.1574 C.ar      1 <0>        -0.1643
      2 C2          1.2626    2.1328    0.1117 C.ar      1 <0>         0.0268
      3 C3          2.4743    1.4857    0.0311 C.ar      1 <0>        -0.1620
      4 C4          2.5128    0.0855   -0.0060 C.ar      1 <0>         0.2322
      5 N1          3.5164   -0.8009   -0.0816 N.pl3     1 <0>        -0.5650
      6 C5          3.0564   -2.0538   -0.0886 C.2       1 <0>         0.1804
      7 C6          3.8386   -3.2099   -0.1592 C.2       1 <0>        -0.0647
      8 C7          3.4475   -4.5234   -0.6931 C.ar      1 <0>        -0.1318
      9 C8          2.2679   -5.0133   -1.2583 C.ar      1 <0>        -0.0804
     10 C9          2.2043   -6.3255   -1.6753 C.ar      1 <0>        -0.0984
     11 C10         3.3069   -7.1553   -1.5336 C.ar      1 <0>        -0.0276
     12 C11         4.4799   -6.6813   -0.9754 C.ar      1 <0>        -0.0979
     13 C12         4.5665   -5.3626   -0.5489 C.ar      1 <0>         0.1950
     14 N2          5.6049   -4.6464    0.0348 N.am      1 <0>        -0.6418
     15 C13         5.2427   -3.3758    0.2816 C.2       1 <0>         0.5642
     16 O1          5.9425   -2.5161    0.7813 O.2       1 <0>        -0.4560
     17 Br1         3.2046   -8.9537   -2.1090 Br        1 <0>         0.0046
     18 C14         1.5769   -2.0135   -0.0090 C.2       1 <0>         0.3786
     19 C15         1.2429   -0.6467    0.0431 C.ar      1 <0>        -0.2244
     20 C16         0.0391    0.0671    0.1244 C.ar      1 <0>         0.0336
     21 N3          0.7218   -3.0736    0.0095 N.pl3     1 <0>        -0.4672
     22 O2         -0.6764   -2.8566   -0.0469 O.3       1 <0>        -0.2764
     23 H1         -0.8662    1.9760    0.2247 H         1 <0>         0.1536
     24 H2          1.2426    3.2122    0.1399 H         1 <0>         0.1580
     25 H3          3.3917    2.0546   -0.0037 H         1 <0>         0.1576
     26 H4          1.4096   -4.3670   -1.3678 H         1 <0>         0.1367
     27 H5          1.2942   -6.7085   -2.1129 H         1 <0>         0.1581
     28 H6          5.3307   -7.3383   -0.8707 H         1 <0>         0.1586
     29 H7          6.4796   -5.0150    0.2346 H         1 <0>         0.4391
     30 H8         -0.9030   -0.4598    0.1606 H         1 <0>         0.1529
     31 H9          1.0706   -3.9773    0.0613 H         1 <0>         0.4449
     32 H10        -1.2015   -3.6684   -0.0284 H         1 <0>         0.4295
     33 H11         4.4555   -0.5622   -0.1258 H         1 <0>         0.4535
@<TRIPOS>BOND
     1    1   20 ar
     2    1    2 ar
     3    1   23 1
     4    2    3 ar
     5    2   24 1
     6    3    4 ar
     7    3   25 1
     8    4   19 ar
     9    4    5 2
    10    5    6 1
    11    5   33 1
    12    6    7 2
    13    6   18 1
    14    7   15 1
    15    7    8 1
    16    8   13 ar
    17    8    9 ar
    18    9   10 ar
    19    9   26 1
    20   10   11 ar
    21   10   27 1
    22   11   12 ar
    23   11   17 1
    24   12   13 ar
    25   12   28 1
    26   13   14 1
    27   14   15 am
    28   14   29 1
    29   15   16 2
    30   18   19 2
    31   18   21 1
    32   19   20 ar
    33   20   30 1
    34   21   22 1
    35   21   31 1
    36   22   32 1
@<TRIPOS>MOLECULE
ZINC18128389
   32    35     0     0     0
SMALL
USER_CHARGES

@<TRIPOS>ATOM
      1 C1         -0.0167    1.3786    0.0096 C.ar      1 <0>        -0.1132
      2 C2          1.1711    2.0915    0.0021 C.ar      1 <0>        -0.0970
      3 C3          2.3854    1.4389   -0.0134 C.ar      1 <0>        -0.0688
      4 C4          2.4288    0.0402   -0.0213 C.ar      1 <0>         0.0644
      5 C5          1.2145   -0.6754   -0.0131 C.ar      1 <0>        -0.1490
      6 C6          0.0021   -0.0041    0.0020 C.ar      1 <0>        -0.0563
      7 C7          1.5943   -2.1087   -0.0249 C.2       1 <0>         0.1336
      8 N1          0.8072   -3.1466   -0.0228 N.2       1 <0>        -0.2349
      9 O1         -0.5976   -2.9698   -0.0072 O.3       1 <0>        -0.3836
     10 C8          3.0817   -2.0878   -0.0398 C.2       1 <0>         0.2951
     11 N2          3.4696   -0.8320   -0.0367 N.2       1 <0>        -0.4080
     12 C9          3.9602   -3.2612   -0.0548 C.2       1 <0>        -0.1488
     13 C10         4.4831   -3.9595   -1.2437 C.ar      1 <0>        -0.0458
     14 C11         4.3382   -3.7657   -2.6157 C.ar      1 <0>        -0.0655
     15 C12         4.9738   -4.6145   -3.4959 C.ar      1 <0>        -0.1051
     16 C13         5.7549   -5.6581   -3.0202 C.ar      1 <0>        -0.0712
     17 C14         5.9059   -5.8608   -1.6640 C.ar      1 <0>        -0.0873
     18 C15         5.2730   -5.0147   -0.7605 C.ar      1 <0>         0.1064
     19 N3          5.2397   -4.9705    0.6219 N.pl3     1 <0>        -0.5830
     20 H1          5.7038   -5.5899    1.2066 H         1 <0>         0.4230
     21 C16         4.4700   -3.9323    1.0457 C.2       1 <0>         0.3208
     22 O2          4.2364   -3.6077    2.3374 O.3       1 <0>        -0.4557
     23 Br1         6.6199   -6.8133   -4.2422 Br        1 <0>        -0.0411
     24 H2         -0.9600    1.9042    0.0260 H         1 <0>         0.1361
     25 H3          1.1455    3.1712    0.0081 H         1 <0>         0.1381
     26 H4          3.3037    2.0075   -0.0198 H         1 <0>         0.1377
     27 H5         -0.9246   -0.5587    0.0082 H         1 <0>         0.1338
     28 H6         -1.0982   -3.7972   -0.0068 H         1 <0>         0.4133
     29 H7          3.7304   -2.9542   -2.9877 H         1 <0>         0.1324
     30 H8          4.8631   -4.4671   -4.5601 H         1 <0>         0.1385
     31 H9          6.5159   -6.6763   -1.3042 H         1 <0>         0.1366
     32 H10         3.4610   -4.0424    2.7182 H         1 <0>         0.4043
@<TRIPOS>BOND
     1    1    6 ar
     2    1    2 ar
     3    1   24 1
     4    2    3 ar
     5    2   25 1
     6    3    4 ar
     7    3   26 1
     8    4   11 1
     9    4    5 ar
    10    5    6 ar
    11    5    7 1
    12    6   27 1
    13    7    8 2
    14    7   10 1
    15    8    9 1
    16    9   28 1
    17   10   11 2
    18   10   12 1
    19   12   21 2
    20   12   13 1
    21   13   18 ar
    22   13   14 ar
    23   14   15 ar
    24   14   29 1
    25   15   16 ar
    26   15   30 1
    27   16   17 ar
    28   16   23 1
    29   17   18 ar
    30   17   31 1
    31   18   19 1
    32   19   20 1
    33   19   21 1
    34   21   22 1
    35   22   32 1
@<TRIPOS>MOLECULE
ZINC18128389
   32    35     0     0     0
SMALL
USER_CHARGES

@<TRIPOS>ATOM
      1 C1         -0.0167    1.3786    0.0096 C.ar      1 <0>        -0.1119
      2 C2          1.1711    2.0915    0.0021 C.ar      1 <0>        -0.0954
      3 C3          2.3854    1.4389   -0.0134 C.ar      1 <0>        -0.0689
      4 C4          2.4288    0.0402   -0.0213 C.ar      1 <0>         0.0710
      5 C5          1.2145   -0.6754   -0.0131 C.ar      1 <0>        -0.1054
      6 C6          0.0021   -0.0041    0.0020 C.ar      1 <0>        -0.0585
      7 C7          1.5943   -2.1087   -0.0249 C.2       1 <0>         0.1354
      8 N1          0.8072   -3.1466   -0.0228 N.2       1 <0>        -0.2396
      9 O1          1.3564   -4.4517   -0.0362 O.3       1 <0>        -0.3718
     10 C8          3.0817   -2.0878   -0.0398 C.2       1 <0>         0.2486
     11 N2          3.4696   -0.8320   -0.0367 N.2       1 <0>        -0.4172
     12 C9          3.9602   -3.2612   -0.0548 C.2       1 <0>        -0.1389
     13 C10         4.4831   -3.9595   -1.2437 C.ar      1 <0>        -0.0428
     14 C11         4.3382   -3.7657   -2.6157 C.ar      1 <0>        -0.0658
     15 C12         4.9738   -4.6145   -3.4959 C.ar      1 <0>        -0.1062
     16 C13         5.7549   -5.6581   -3.0202 C.ar      1 <0>        -0.0717
     17 C14         5.9059   -5.8608   -1.6640 C.ar      1 <0>        -0.0880
     18 C15         5.2730   -5.0147   -0.7605 C.ar      1 <0>         0.1073
     19 N3          5.2397   -4.9705    0.6219 N.pl3     1 <0>        -0.5835
     20 H1          5.7038   -5.5899    1.2066 H         1 <0>         0.4217
     21 C16         4.4700   -3.9323    1.0457 C.2       1 <0>         0.3167
     22 O2          4.2364   -3.6077    2.3374 O.3       1 <0>        -0.4566
     23 Br1         6.6199   -6.8133   -4.2422 Br        1 <0>        -0.0421
     24 H2         -0.9600    1.9042    0.0260 H         1 <0>         0.1378
     25 H3          1.1455    3.1712    0.0081 H         1 <0>         0.1389
     26 H4          3.3037    2.0075   -0.0198 H         1 <0>         0.1387
     27 H5         -0.9246   -0.5587    0.0082 H         1 <0>         0.1332
     28 H6          0.6948   -5.1569   -0.0335 H         1 <0>         0.4103
     29 H7          3.7304   -2.9542   -2.9877 H         1 <0>         0.1299
     30 H8          4.8631   -4.4671   -4.5601 H         1 <0>         0.1375
     31 H9          6.5159   -6.6763   -1.3042 H         1 <0>         0.1356
     32 H10         3.4610   -4.0424    2.7182 H         1 <0>         0.4021
@<TRIPOS>BOND
     1    1    6 ar
     2    1    2 ar
     3    1   24 1
     4    2    3 ar
     5    2   25 1
     6    3    4 ar
     7    3   26 1
     8    4   11 1
     9    4    5 ar
    10    5    6 ar
    11    5    7 1
    12    6   27 1
    13    7    8 2
    14    7   10 1
    15    8    9 1
    16    9   28 1
    17   10   11 2
    18   10   12 1
    19   12   21 2
    20   12   13 1
    21   13   18 ar
    22   13   14 ar
    23   14   15 ar
    24   14   29 1
    25   15   16 ar
    26   15   30 1
    27   16   17 ar
    28   16   23 1
    29   17   18 ar
    30   17   31 1
    31   18   19 1
    32   19   20 1
    33   19   21 1
    34   21   22 1
    35   22   32 1
@<TRIPOS>MOLECULE
ZINC18825334
   48    52     0     0     0
SMALL
USER_CHARGES
4-[[9-chloro-7-(2,6-difluorophenyl)-5H-pyrimido[5,4-d][2]benzazepin-2-yl]amino]benzoic acid
@<TRIPOS>ATOM
      1 C1          2.2776    0.3903   -0.5698 C.ar      1 <0>        -0.0509
      2 C2          1.1421    1.1799   -0.5633 C.ar      1 <0>        -0.1622
      3 C3         -0.1043    0.6031   -0.4066 C.ar      1 <0>         0.1578
      4 C4         -0.2153   -0.7818   -0.2549 C.ar      1 <0>        -0.1229
      5 C5          0.9369   -1.5728   -0.2630 C.ar      1 <0>         0.1499
      6 C6          2.1761   -0.9809   -0.4208 C.ar      1 <0>        -0.1633
      7 F1          0.8397   -2.9124   -0.1175 F         1 <0>        -0.1231
      8 C7         -1.5453   -1.4071   -0.0861 C.2       1 <0>         0.2536
      9 N1         -2.1650   -1.7678   -1.1512 N.2       1 <0>        -0.4634
     10 C8         -3.4819   -2.3942   -1.1195 C.3       1 <0>         0.0964
     11 C9         -4.4898   -1.4068   -0.6038 C.ar      1 <0>        -0.2574
     12 C10        -5.5098   -0.9746   -1.4374 C.ar      1 <0>         0.2162
     13 N2         -6.3794   -0.0861   -0.9844 N.ar      1 <0>        -0.5366
     14 C11        -6.2835    0.3896    0.2490 C.ar      1 <0>         0.5701
     15 N3         -5.3286   -0.0031    1.0745 N.ar      1 <0>        -0.5552
     16 C12        -4.4183   -0.9022    0.6848 C.ar      1 <0>         0.2552
     17 C13        -3.3769   -1.3202    1.6484 C.ar      1 <0>        -0.0142
     18 C14        -2.0497   -1.5581    1.2881 C.ar      1 <0>        -0.0587
     19 C15        -1.1358   -1.9616    2.2712 C.ar      1 <0>        -0.0846
     20 C16        -1.5377   -2.1181    3.5805 C.ar      1 <0>        -0.0213
     21 C17        -2.8549   -1.8776    3.9370 C.ar      1 <0>        -0.0981
     22 C18        -3.7670   -1.4826    2.9833 C.ar      1 <0>        -0.0636
     23 Cl1        -0.3917   -2.6181    4.7848 Cl        1 <0>        -0.0577
     24 N4         -7.2095    1.3241    0.6851 N.pl3     1 <0>        -0.6261
     25 C19        -8.1519    1.8366   -0.2021 C.ar      1 <0>         0.1418
     26 C20        -9.4292    2.1564    0.2498 C.ar      1 <0>        -0.1598
     27 C21       -10.3616    2.6678   -0.6235 C.ar      1 <0>        -0.0590
     28 C22       -10.0281    2.8564   -1.9684 C.ar      1 <0>        -0.1232
     29 C23        -8.7457    2.5290   -2.4200 C.ar      1 <0>        -0.0681
     30 C24        -7.8166    2.0227   -1.5403 C.ar      1 <0>        -0.1261
     31 C25       -11.0259    3.3995   -2.9077 C.2       1 <0>         0.4893
     32 O1        -10.7345    3.5633   -4.0760 O.co2     1 <0>        -0.6323
     33 F2         -1.2128    1.3755   -0.4056 F         1 <0>        -0.1209
     34 H1          3.2486    0.8468   -0.6927 H         1 <0>         0.1483
     35 H2          1.2295    2.2500   -0.6806 H         1 <0>         0.1486
     36 H3          3.0673   -1.5909   -0.4273 H         1 <0>         0.1485
     37 H4         -3.4574   -3.2644   -0.4636 H         1 <0>         0.0791
     38 H5         -3.7607   -2.7058   -2.1261 H         1 <0>         0.1121
     39 H6         -5.5938   -1.3585   -2.4434 H         1 <0>         0.1778
     40 H7         -0.1076   -2.1514    2.0006 H         1 <0>         0.1393
     41 H8         -3.1667   -1.9996    4.9638 H         1 <0>         0.1452
     42 H9         -4.7921   -1.2962    3.2678 H         1 <0>         0.1468
     43 H10        -7.2009    1.6210    1.6085 H         1 <0>         0.4210
     44 H11        -9.6873    2.0066    1.2877 H         1 <0>         0.1185
     45 H12       -11.3510    2.9199   -0.2713 H         1 <0>         0.1349
     46 H13        -8.4848    2.6738   -3.4580 H         1 <0>         0.1294
     47 H14        -6.8261    1.7696   -1.8885 H         1 <0>         0.1253
     48 O2        -12.2611    3.7145   -2.4709 O.co2     1 <0>        -0.7564
@<TRIPOS>BOND
     1    1    6 ar
     2    1    2 ar
     3    1   34 1
     4    2    3 ar
     5    2   35 1
     6    3    4 ar
     7    3   33 1
     8    4    5 ar
     9    4    8 1
    10    5    6 ar
    11    5    7 1
    12    6   36 1
    13    8   18 1
    14    8    9 2
    15    9   10 1
    16   10   11 1
    17   10   37 1
    18   10   38 1
    19   11   16 ar
    20   11   12 ar
    21   12   13 ar
    22   12   39 1
    23   13   14 ar
    24   14   15 ar
    25   14   24 1
    26   15   16 ar
    27   16   17 1
    28   17   22 ar
    29   17   18 ar
    30   18   19 ar
    31   19   20 ar
    32   19   40 1
    33   20   21 ar
    34   20   23 1
    35   21   22 ar
    36   21   41 1
    37   22   42 1
    38   24   25 1
    39   24   43 1
    40   25   30 ar
    41   25   26 ar
    42   26   27 ar
    43   26   44 1
    44   27   28 ar
    45   27   45 1
    46   28   29 ar
    47   28   31 1
    48   29   30 ar
    49   29   46 1
    50   30   47 1
    51   31   32 2
    52   31   48 1
@<TRIPOS>MOLECULE
ZINC16052729
   53    57     0     0     0
SMALL
USER_CHARGES
N-cyclopropyl-6-[(6,7-dimethoxy-4-quinolyl)oxy]naphthalene-1-carboxamide
@<TRIPOS>ATOM
      1 C1          2.2883    1.8769    4.8172 C.3       1 <0>         0.0223
      2 O1          3.4330    2.7289    4.7408 O.3       1 <0>        -0.2991
      3 C2          3.9092    3.0131    3.4993 C.ar      1 <0>         0.1297
      4 C3          3.2913    2.4869    2.4018 C.ar      1 <0>        -0.1686
      5 C4          3.7825    2.7806    1.1209 C.ar      1 <0>        -0.1023
      6 C5          3.1691    2.2541   -0.0380 C.ar      1 <0>         0.1425
      7 C6          3.7065    2.5927   -1.2673 C.ar      1 <0>        -0.1794
      8 C7          4.8192    3.4222   -1.3277 C.ar      1 <0>         0.1404
      9 N1          5.3847    3.9013   -0.2447 N.ar      1 <0>        -0.4674
     10 C8          4.9176    3.6150    0.9764 C.ar      1 <0>         0.1527
     11 C9          5.5352    4.1366    2.1252 C.ar      1 <0>        -0.1720
     12 C10         5.0299    3.8441    3.3592 C.ar      1 <0>         0.1455
     13 O2          5.6277    4.3559    4.4670 O.3       1 <0>        -0.2993
     14 C11         6.7653    5.1958    4.2608 C.3       1 <0>         0.0207
     15 O3          2.0836    1.4464    0.0515 O.3       1 <0>        -0.2519
     16 C12         0.8582    2.0297    0.1184 C.ar      1 <0>         0.1267
     17 C13         0.7599    3.4219    0.1999 C.ar      1 <0>        -0.1744
     18 C14        -0.4544    4.0338    0.2677 C.ar      1 <0>        -0.0731
     19 C15        -1.6245    3.2617    0.2558 C.ar      1 <0>        -0.0357
     20 C16        -1.5301    1.8512    0.1678 C.ar      1 <0>        -0.0235
     21 C17        -0.2626    1.2484    0.1046 C.ar      1 <0>        -0.1455
     22 C18        -2.7037    1.0771    0.1612 C.ar      1 <0>        -0.0776
     23 C19        -3.9228    1.6826    0.2282 C.ar      1 <0>        -0.1191
     24 C20        -4.0357    3.0647    0.3092 C.ar      1 <0>        -0.0790
     25 C21        -2.9042    3.8671    0.3244 C.ar      1 <0>        -0.1160
     26 C22        -3.0315    5.3337    0.4106 C.2       1 <0>         0.5673
     27 O4         -2.0437    6.0364    0.3145 O.2       1 <0>        -0.5279
     28 N2         -4.2426    5.8954    0.5958 N.am      1 <0>        -0.6961
     29 C23        -4.3690    7.3524    0.6814 C.3       1 <0>         0.0761
     30 C24        -5.2766    7.9197    1.7747 C.3       1 <0>        -0.1912
     31 C25        -5.7199    7.9673    0.3103 C.3       1 <0>        -0.1871
     32 H1          1.4569    2.3364    4.2827 H         1 <0>         0.0578
     33 H2          2.5222    0.9128    4.3655 H         1 <0>         0.0590
     34 H3          2.0127    1.7314    5.8618 H         1 <0>         0.1066
     35 H4          2.4284    1.8480    2.5189 H         1 <0>         0.1457
     36 H5          3.2630    2.2133   -2.1761 H         1 <0>         0.1478
     37 H6          5.2305    3.6795   -2.2926 H         1 <0>         0.1693
     38 H7          6.3990    4.7781    2.0318 H         1 <0>         0.1550
     39 H8          6.4764    6.0576    3.6593 H         1 <0>         0.0610
     40 H9          7.1451    5.5359    5.2242 H         1 <0>         0.1064
     41 H10         7.5421    4.6344    3.7417 H         1 <0>         0.0610
     42 H11         1.6592    4.0199    0.2090 H         1 <0>         0.1285
     43 H12        -0.5160    5.1102    0.3300 H         1 <0>         0.1749
     44 H13        -0.1748    0.1739    0.0409 H         1 <0>         0.1412
     45 H14        -2.6391    0.0009    0.0984 H         1 <0>         0.1357
     46 H15        -4.8170    1.0771    0.2178 H         1 <0>         0.1341
     47 H16        -5.0141    3.5190    0.3612 H         1 <0>         0.1276
     48 H17        -5.0305    5.3348    0.6725 H         1 <0>         0.4021
     49 H18        -3.4721    7.9178    0.4283 H         1 <0>         0.1409
     50 H19        -5.7797    7.2089    2.4302 H         1 <0>         0.0980
     51 H20        -4.9771    8.8585    2.2405 H         1 <0>         0.1050
     52 H21        -5.7118    8.9374   -0.1866 H         1 <0>         0.1063
     53 H22        -6.5145    7.2878    0.0021 H         1 <0>         0.0984
@<TRIPOS>BOND
     1    1    2 1
     2    1   32 1
     3    1   33 1
     4    1   34 1
     5    2    3 1
     6    3   12 ar
     7    3    4 ar
     8    4    5 ar
     9    4   35 1
    10    5   10 ar
    11    5    6 ar
    12    6    7 ar
    13    6   15 1
    14    7    8 ar
    15    7   36 1
    16    8    9 ar
    17    8   37 1
    18    9   10 ar
    19   10   11 ar
    20   11   12 ar
    21   11   38 1
    22   12   13 1
    23   13   14 1
    24   14   39 1
    25   14   40 1
    26   14   41 1
    27   15   16 1
    28   16   21 ar
    29   16   17 ar
    30   17   18 ar
    31   17   42 1
    32   18   19 ar
    33   18   43 1
    34   19   25 ar
    35   19   20 ar
    36   20   21 ar
    37   20   22 ar
    38   21   44 1
    39   22   23 ar
    40   22   45 1
    41   23   24 ar
    42   23   46 1
    43   24   25 ar
    44   24   47 1
    45   25   26 1
    46   26   27 2
    47   26   28 am
    48   28   29 1
    49   28   48 1
    50   29   31 1
    51   29   30 1
    52   29   49 1
    53   30   31 1
    54   30   50 1
    55   30   51 1
    56   31   52 1
    57   31   53 1
@<TRIPOS>MOLECULE
ZINC03816409
   50    52     0     0     0
SMALL
USER_CHARGES
N-[5-[(5-tert-butyloxazol-2-yl)methylsulfanyl]thiazol-2-yl]piperidine-4-carboxamide
@<TRIPOS>ATOM
      1 C1         -0.0127    1.0858    0.0080 C.3       1 <0>        -0.1425
      2 C2         -0.7288    1.5792    1.2668 C.3       1 <0>         0.0153
      3 C3          0.0111    1.0724    2.5063 C.3       1 <0>        -0.1429
      4 C4         -0.7496    3.1091    1.2752 C.3       1 <0>        -0.1470
      5 C5         -2.1426    1.0576    1.2775 C.2       1 <0>        -0.0059
      6 C6         -2.5173   -0.2324    1.2742 C.2       1 <0>        -0.0384
      7 N1         -3.8616   -0.2670    1.2868 N.2       1 <0>        -0.4461
      8 C7         -4.3108    0.9556    1.2976 C.2       1 <0>         0.1754
      9 O1         -3.2687    1.7975    1.2981 O.3       1 <0>        -0.1872
     10 C8         -5.7633    1.3568    1.3132 C.3       1 <0>        -0.0274
     11 S1         -6.3302    1.5091    3.0296 S.3       1 <0>         0.0531
     12 C9         -8.0223    1.9770    2.8797 C.2       1 <0>        -0.2079
     13 C10        -8.9445    2.2293    3.8504 C.2       1 <0>         0.0730
     14 N2        -10.1733    2.5704    3.5096 N.2       1 <0>        -0.4781
     15 C11       -10.5307    2.6731    2.2430 C.2       1 <0>         0.3098
     16 S2         -9.0031    2.2599    1.4114 S.3       1 <0>         0.0397
     17 N3        -11.7659    3.0158    1.7000 N.am      1 <0>        -0.6146
     18 C12       -12.8034    3.3002    2.5119 C.2       1 <0>         0.5107
     19 O2        -12.6609    3.2576    3.7157 O.2       1 <0>        -0.4551
     20 C13       -14.1405    3.6713    1.9241 C.3       1 <0>        -0.1149
     21 C14       -13.9915    4.9332    1.0698 C.3       1 <0>        -0.1461
     22 C15       -15.3628    5.3397    0.5255 C.3       1 <0>         0.0009
     23 C16       -16.4761    4.3789    2.4515 C.3       1 <0>        -0.0009
     24 C17       -15.1380    3.9438    3.0534 C.3       1 <0>        -0.1323
     25 H1          0.0021   -0.0041    0.0020 H         1 <0>         0.0648
     26 H2          1.0099    1.4631    0.0003 H         1 <0>         0.0750
     27 H3         -0.5399    1.4469   -0.8751 H         1 <0>         0.0608
     28 H4          1.0337    1.4497    2.4986 H         1 <0>         0.0751
     29 H5         -0.4990    1.4239    3.4031 H         1 <0>         0.0616
     30 H6          0.0259   -0.0175    2.5003 H         1 <0>         0.0649
     31 H7         -1.2768    3.4701    0.3922 H         1 <0>         0.0605
     32 H8         -1.2598    3.4606    2.1720 H         1 <0>         0.0616
     33 H9          0.2730    3.4864    1.2675 H         1 <0>         0.0706
     34 H10        -1.8578   -1.0876    1.2633 H         1 <0>         0.1891
     35 H11        -5.8813    2.3140    0.8053 H         1 <0>         0.1204
     36 H12        -6.3553    0.5983    0.8010 H         1 <0>         0.1329
     37 H13        -8.6718    2.1504    4.8925 H         1 <0>         0.1794
     38 H14       -11.8799    3.0499    0.7373 H         1 <0>         0.4267
     39 H15       -14.5061    2.8521    1.3049 H         1 <0>         0.1234
     40 H16       -13.5885    5.7409    1.6809 H         1 <0>         0.0995
     41 H17       -13.3151    4.7324    0.2390 H         1 <0>         0.1172
     42 H18       -15.7590    4.5372   -0.0967 H         1 <0>         0.1349
     43 H19       -15.2623    6.2461   -0.0715 H         1 <0>         0.1387
     44 H20       -16.8671    3.5809    1.8204 H         1 <0>         0.1334
     45 H21       -17.1842    4.5877    3.2534 H         1 <0>         0.1392
     46 H22       -15.2808    3.0361    3.6398 H         1 <0>         0.1229
     47 H23       -14.7528    4.7354    3.6961 H         1 <0>         0.1008
     48 N4        -16.2857    5.6006    1.6466 N.4       1 <0>        -0.5187
     49 H24       -17.1928    5.9050    1.2741 H         1 <0>         0.4395
     50 H25       -15.8944    6.3401    2.2417 H         1 <0>         0.4347
@<TRIPOS>BOND
     1    1    2 1
     2    1   25 1
     3    1   26 1
     4    1   27 1
     5    2    3 1
     6    2    4 1
     7    2    5 1
     8    3   28 1
     9    3   29 1
    10    3   30 1
    11    4   31 1
    12    4   32 1
    13    4   33 1
    14    5    9 1
    15    5    6 2
    16    6    7 1
    17    6   34 1
    18    7    8 2
    19    8    9 1
    20    8   10 1
    21   10   11 1
    22   10   35 1
    23   10   36 1
    24   11   12 1
    25   12   16 1
    26   12   13 2
    27   13   14 1
    28   13   37 1
    29   14   15 2
    30   15   16 1
    31   15   17 1
    32   17   18 am
    33   17   38 1
    34   18   19 2
    35   18   20 1
    36   20   24 1
    37   20   21 1
    38   20   39 1
    39   21   22 1
    40   21   40 1
    41   21   41 1
    42   22   42 1
    43   22   43 1
    44   22   48 1
    45   23   24 1
    46   23   44 1
    47   23   45 1
    48   23   48 1
    49   24   46 1
    50   24   47 1
    51   48   49 1
    52   48   50 1
@<TRIPOS>MOLECULE
ZINC02047389
   35    37     0     0     0
SMALL
USER_CHARGES
4-(2-amino-4-methyl-thiazol-5-yl)-N-(3-nitrophenyl)-pyrimidin-2-amine
@<TRIPOS>ATOM
      1 C1         -0.3352    9.7451    0.3855 C.3       1 <0>        -0.0905
      2 C2          1.0683   10.2863    0.4765 C.2       1 <0>         0.1892
      3 C3          2.1516    9.4456    0.4437 C.2       1 <0>        -0.2443
      4 S1          3.4879   10.6229    0.5913 S.3       1 <0>         0.0803
      5 C4          2.5163   12.0599    0.6693 C.2       1 <0>         0.3677
      6 N1          1.2883   11.5754    0.5891 N.2       1 <0>        -0.5897
      7 N2          2.9227   13.3752    0.7905 N.pl3     1 <0>        -0.7863
      8 C5          2.1999    7.9776    0.3258 C.ar      1 <0>         0.3332
      9 C6          3.4297    7.3038    0.3117 C.ar      1 <0>        -0.2707
     10 C7          3.4239    5.9278    0.2000 C.ar      1 <0>         0.2012
     11 N3          2.2663    5.2881    0.1154 N.ar      1 <0>        -0.5701
     12 C8          1.1176    5.9489    0.1256 C.ar      1 <0>         0.5646
     13 N4          1.0742    7.2675    0.2311 N.ar      1 <0>        -0.5547
     14 N5         -0.0691    5.2405    0.0290 N.pl3     1 <0>        -0.6363
     15 C9         -0.0510    3.8425    0.0333 C.ar      1 <0>         0.1760
     16 C10        -0.9835    3.1319   -0.7120 C.ar      1 <0>        -0.1004
     17 C11        -0.9631    1.7513   -0.7052 C.ar      1 <0>        -0.0922
     18 C12        -0.0158    1.0757    0.0425 C.ar      1 <0>        -0.0777
     19 C13         0.9104    1.7799    0.7896 C.ar      1 <0>        -0.0222
     20 C14         0.8989    3.1611    0.7830 C.ar      1 <0>        -0.0570
     21 N6          1.9186    1.0527    1.5932 N.pl3     1 <0>         0.0280
     22 O1          1.9320   -0.1652    1.5961 O.2       1 <0>        -0.1580
     23 O2          2.7348    1.6723    2.2515 O.3       1 <0>        -0.1552
     24 H1         -0.7077    9.5307    1.3872 H         1 <0>         0.0791
     25 H2         -0.9794   10.4840   -0.0912 H         1 <0>         0.0712
     26 H3         -0.3338    8.8291   -0.2054 H         1 <0>         0.0997
     27 H4          2.2629   14.0853    0.8267 H         1 <0>         0.4203
     28 H5          3.8677   13.5883    0.8394 H         1 <0>         0.4243
     29 H6          4.3593    7.8485    0.3862 H         1 <0>         0.1461
     30 H7          4.3533    5.3778    0.1861 H         1 <0>         0.1761
     31 H8         -0.9125    5.7144   -0.0416 H         1 <0>         0.4300
     32 H9         -1.7237    3.6588   -1.2958 H         1 <0>         0.1460
     33 H10        -1.6880    1.1983   -1.2841 H         1 <0>         0.1526
     34 H11        -0.0023   -0.0042    0.0464 H         1 <0>         0.1544
     35 H12         1.6253    3.7105    1.3635 H         1 <0>         0.1650
@<TRIPOS>BOND
     1    1    2 1
     2    1   24 1
     3    1   25 1
     4    1   26 1
     5    2    6 1
     6    2    3 2
     7    3    4 1
     8    3    8 1
     9    4    5 1
    10    5    6 2
    11    5    7 1
    12    7   27 1
    13    7   28 1
    14    8   13 ar
    15    8    9 ar
    16    9   10 ar
    17    9   29 1
    18   10   11 ar
    19   10   30 1
    20   11   12 ar
    21   12   13 ar
    22   12   14 1
    23   14   15 1
    24   14   31 1
    25   15   20 ar
    26   15   16 ar
    27   16   17 ar
    28   16   32 1
    29   17   18 ar
    30   17   33 1
    31   18   19 ar
    32   18   34 1
    33   19   20 ar
    34   19   21 1
    35   20   35 1
    36   21   22 2
    37   21   23 1
@<TRIPOS>MOLECULE
ZINC00016978
   36    38     0     0     0
SMALL
USER_CHARGES
N-(3-chloro-4-fluoro-phenyl)-6,7-dimethoxy-quinazolin-4-amine
@<TRIPOS>ATOM
      1 C1         -0.1077    7.8043   -0.3043 C.3       1 <0>         0.0213
      2 O1          1.1553    7.1532   -0.1529 O.3       1 <0>        -0.2997
      3 C2          1.1387    5.8027    0.0050 C.ar      1 <0>         0.1127
      4 C3         -0.0547    5.1381    0.0126 C.ar      1 <0>        -0.1498
      5 C4         -0.0730    3.7479    0.1756 C.ar      1 <0>        -0.1807
      6 C5          1.1438    3.0387    0.3316 C.ar      1 <0>         0.2015
      7 C6          2.3555    3.7401    0.3208 C.ar      1 <0>        -0.1836
      8 C7          2.3465    5.1079    0.1588 C.ar      1 <0>         0.1645
      9 O2          3.5207    5.7910    0.1475 O.3       1 <0>        -0.2967
     10 C8          4.7173    5.0267    0.3088 C.3       1 <0>         0.0198
     11 N1          1.0981    1.7061    0.4867 N.ar      1 <0>        -0.5395
     12 C9         -0.0526    1.0764    0.4931 C.ar      1 <0>         0.3425
     13 N2         -1.2130    1.6959    0.3460 N.ar      1 <0>        -0.5817
     14 C10        -1.2816    3.0117    0.1912 C.ar      1 <0>         0.4638
     15 N3         -2.4991    3.6452    0.0437 N.pl3     1 <0>        -0.6386
     16 C11        -3.6729    2.8905   -0.0548 C.ar      1 <0>         0.1586
     17 C12        -3.6501    1.6464   -0.6722 C.ar      1 <0>        -0.0781
     18 C13        -4.8088    0.9005   -0.7643 C.ar      1 <0>        -0.1189
     19 C14        -5.9954    1.3962   -0.2511 C.ar      1 <0>         0.0951
     20 C15        -6.0222    2.6392    0.3606 C.ar      1 <0>        -0.0539
     21 C16        -4.8635    3.3866    0.4595 C.ar      1 <0>        -0.1144
     22 Cl1        -7.5113    3.2580    1.0036 Cl        1 <0>        -0.0424
     23 F1         -7.1286    0.6668   -0.3466 F         1 <0>        -0.1253
     24 H1          0.0480    8.8767   -0.4213 H         1 <0>         0.1075
     25 H2         -0.6150    7.4125   -1.1859 H         1 <0>         0.0578
     26 H3         -0.7195    7.6202    0.5788 H         1 <0>         0.0576
     27 H4         -0.9797    5.6826   -0.1070 H         1 <0>         0.1396
     28 H5          3.2905    3.2125    0.4383 H         1 <0>         0.1568
     29 H6          4.6901    4.5069    1.2665 H         1 <0>         0.0625
     30 H7          4.7946    4.2980   -0.4981 H         1 <0>         0.0626
     31 H8          5.5801    5.6924    0.2811 H         1 <0>         0.1078
     32 H9         -0.0529    0.0039    0.6197 H         1 <0>         0.1993
     33 H10        -2.5408    4.6137    0.0082 H         1 <0>         0.4219
     34 H11        -2.7259    1.2610   -1.0767 H         1 <0>         0.1541
     35 H12        -4.7901   -0.0685   -1.2408 H         1 <0>         0.1508
     36 H13        -4.8843    4.3556    0.9360 H         1 <0>         0.1453
@<TRIPOS>BOND
     1    1    2 1
     2    1   24 1
     3    1   25 1
     4    1   26 1
     5    2    3 1
     6    3    8 ar
     7    3    4 ar
     8    4    5 ar
     9    4   27 1
    10    5   14 ar
    11    5    6 ar
    12    6    7 ar
    13    6   11 ar
    14    7    8 ar
    15    7   28 1
    16    8    9 1
    17    9   10 1
    18   10   29 1
    19   10   30 1
    20   10   31 1
    21   11   12 ar
    22   12   13 ar
    23   12   32 1
    24   13   14 ar
    25   14   15 1
    26   15   16 1
    27   15   33 1
    28   16   21 ar
    29   16   17 ar
    30   17   18 ar
    31   17   34 1
    32   18   19 ar
    33   18   35 1
    34   19   20 ar
    35   19   23 1
    36   20   21 ar
    37   20   22 1
    38   21   36 1
@<TRIPOS>MOLECULE
ZINC16052235
   38    41     0     0     0
SMALL
USER_CHARGES

@<TRIPOS>ATOM
      1 C1          1.7433    1.3647   -0.2912 C.3       1 <0>        -0.0949
      2 C2          1.4007   -0.1015   -0.2295 C.2       1 <0>         0.0949
      3 C3          1.0377   -0.8790   -1.2747 C.2       1 <0>        -0.2668
      4 C4          0.8073   -2.1758   -0.7875 C.2       1 <0>         0.3069
      5 N1          1.0265   -2.1689    0.5064 N.2       1 <0>        -0.3236
      6 N2          1.4071   -0.8731    0.8779 N.pl3     1 <0>        -0.4666
      7 H1          1.6335   -0.5808    1.7747 H         1 <0>         0.4409
      8 N3          0.4123   -3.2827   -1.5491 N.pl3     1 <0>        -0.6012
      9 C5          0.1142   -3.1284   -2.8870 C.ar      1 <0>         0.4811
     10 C6         -0.1731   -4.2522   -3.7021 C.ar      1 <0>        -0.1905
     11 C7         -0.1691   -5.5560   -3.1957 C.ar      1 <0>        -0.0724
     12 C8         -0.4535   -6.6007   -4.0258 C.ar      1 <0>        -0.1280
     13 C9         -0.7471   -6.3868   -5.3696 C.ar      1 <0>        -0.0715
     14 C10        -0.7589   -5.1287   -5.8943 C.ar      1 <0>        -0.1072
     15 C11        -0.4722   -4.0318   -5.0693 C.ar      1 <0>         0.1944
     16 N4         -0.4717   -2.7757   -5.5360 N.ar      1 <0>        -0.5341
     17 C12        -0.1971   -1.7645   -4.7334 C.ar      1 <0>         0.4082
     18 N5          0.0838   -1.9259   -3.4418 N.ar      1 <0>        -0.5658
     19 C13        -0.2073   -0.3910   -5.2921 C.ar      1 <0>        -0.0493
     20 C14         0.0045    0.7053   -4.4576 C.ar      1 <0>        -0.0741
     21 C15        -0.0056    1.9813   -4.9831 C.ar      1 <0>        -0.1317
     22 C16        -0.2260    2.1736   -6.3352 C.ar      1 <0>        -0.0978
     23 C17        -0.4368    1.0894   -7.1681 C.ar      1 <0>        -0.1313
     24 C18        -0.4232   -0.1915   -6.6547 C.ar      1 <0>        -0.0669
     25 H2          2.8111    1.4808   -0.4769 H         1 <0>         0.0832
     26 H3          1.1811    1.8356   -1.0976 H         1 <0>         0.0889
     27 H4          1.4857    1.8383    0.6561 H         1 <0>         0.0730
     28 H5          0.9420   -0.5594   -2.3019 H         1 <0>         0.1821
     29 H6          0.3483   -4.1579   -1.1358 H         1 <0>         0.4268
     30 H7          0.0579   -5.7344   -2.1551 H         1 <0>         0.1273
     31 H8         -0.4504   -7.6075   -3.6350 H         1 <0>         0.1330
     32 H9         -0.9685   -7.2306   -6.0063 H         1 <0>         0.1358
     33 H10        -0.9878   -4.9778   -6.9389 H         1 <0>         0.1425
     34 H11         0.1760    0.5564   -3.4017 H         1 <0>         0.1369
     35 H12         0.1584    2.8314   -4.3375 H         1 <0>         0.1276
     36 H13        -0.2338    3.1740   -6.7420 H         1 <0>         0.1251
     37 H14        -0.6087    1.2455   -8.2228 H         1 <0>         0.1278
     38 H15        -0.5835   -1.0375   -7.3066 H         1 <0>         0.1374
@<TRIPOS>BOND
     1    1    2 1
     2    1   25 1
     3    1   26 1
     4    1   27 1
     5    2    6 1
     6    2    3 2
     7    3    4 1
     8    3   28 1
     9    4    5 2
    10    4    8 1
    11    5    6 1
    12    6    7 1
    13    8    9 1
    14    8   29 1
    15    9   18 ar
    16    9   10 ar
    17   10   15 ar
    18   10   11 ar
    19   11   12 ar
    20   11   30 1
    21   12   13 ar
    22   12   31 1
    23   13   14 ar
    24   13   32 1
    25   14   15 ar
    26   14   33 1
    27   15   16 ar
    28   16   17 ar
    29   17   18 ar
    30   17   19 1
    31   19   24 ar
    32   19   20 ar
    33   20   21 ar
    34   20   34 1
    35   21   22 ar
    36   21   35 1
    37   22   23 ar
    38   22   36 1
    39   23   24 ar
    40   23   37 1
    41   24   38 1
@<TRIPOS>MOLECULE
ZINC06718665
   73    77     0     0     0
SMALL
USER_CHARGES
N-(2,6-diethylphenyl)-2-[4-(4-methylpiperazin-1-yl)benzoyl]amino-3,4,7-triazabicyclo[3.3.0]octa-2,9-diene-7-carboxamide
@<TRIPOS>ATOM
      1 C1         -5.3630    0.4217  -17.6839 C.3       1 <0>        -0.1472
      2 C2         -6.2129    1.2204  -16.6937 C.3       1 <0>        -0.0850
      3 C3         -6.6394    0.3236  -15.5602 C.ar      1 <0>        -0.0874
      4 C4         -7.9145   -0.2068  -15.5405 C.ar      1 <0>        -0.1129
      5 C5         -8.3084   -1.0252  -14.4978 C.ar      1 <0>        -0.1138
      6 C6         -7.4261   -1.3194  -13.4746 C.ar      1 <0>        -0.1169
      7 C7         -6.1479   -0.7964  -13.4911 C.ar      1 <0>        -0.0609
      8 C8         -5.7492    0.0258  -14.5368 C.ar      1 <0>         0.1492
      9 N1         -4.4550    0.5577  -14.5563 N.am      1 <0>        -0.6806
     10 C9         -3.9934    1.2465  -13.4938 C.2       1 <0>         0.7340
     11 O1         -4.7170    1.4451  -12.5371 O.2       1 <0>        -0.5470
     12 N2         -2.7297    1.7151  -13.4917 N.am      1 <0>        -0.6287
     13 C10        -2.0760    2.4783  -12.4224 C.3       1 <0>         0.2127
     14 C11        -0.6691    2.7783  -12.8746 C.2       1 <0>        -0.2831
     15 C12        -0.4724    2.2529  -14.1017 C.2       1 <0>         0.0787
     16 N3          0.7948    2.5386  -14.4774 N.pl3     1 <0>        -0.4408
     17 H1          1.2257    2.2737  -15.3400 H         1 <0>         0.4549
     18 N4          1.3979    3.2702  -13.4471 N.2       1 <0>        -0.2467
     19 C13         0.5233    3.4119  -12.4800 C.2       1 <0>         0.3343
     20 N5          0.7372    4.0822  -11.2686 N.am      1 <0>        -0.6346
     21 C14         1.9333    4.6487  -11.0140 C.2       1 <0>         0.5511
     22 O2          2.8269    4.5782  -11.8359 O.2       1 <0>        -0.4789
     23 C15         2.1586    5.3544   -9.7385 C.ar      1 <0>        -0.1395
     24 C16         3.3987    5.9427   -9.4730 C.ar      1 <0>        -0.0271
     25 C17         3.6056    6.6007   -8.2823 C.ar      1 <0>        -0.1357
     26 C18         2.5815    6.6810   -7.3426 C.ar      1 <0>         0.1171
     27 C19         1.3471    6.0917   -7.6018 C.ar      1 <0>        -0.1702
     28 C20         1.1322    5.4368   -8.7928 C.ar      1 <0>        -0.0556
     29 N6          2.7939    7.3463   -6.1401 N.pl3     1 <0>        -0.4879
     30 C21         1.5892    7.3117   -5.2992 C.3       1 <0>         0.0172
     31 C22         1.8880    7.9831   -3.9567 C.3       1 <0>         0.0017
     32 C23         3.5288    9.4015   -5.0312 C.3       1 <0>         0.0014
     33 C24         3.2300    8.7301   -6.3737 C.3       1 <0>         0.0240
     34 C25         2.5489   10.0693   -2.9193 C.3       1 <0>        -0.0410
     35 C26        -1.7333    1.5637  -14.5584 C.3       1 <0>         0.1762
     36 C27        -5.1871   -1.1172  -12.3754 C.3       1 <0>        -0.1129
     37 C28        -5.9728   -1.4415  -11.1032 C.3       1 <0>        -0.1457
     38 H2         -4.5276   -0.0390  -17.1567 H         1 <0>         0.0477
     39 H3         -5.9745   -0.3543  -18.1443 H         1 <0>         0.0614
     40 H4         -4.9812    1.0895  -18.4563 H         1 <0>         0.0614
     41 H5         -7.0957    1.6078  -17.2025 H         1 <0>         0.0766
     42 H6         -5.6272    2.0508  -16.2994 H         1 <0>         0.0694
     43 H7         -8.6059    0.0211  -16.3382 H         1 <0>         0.1262
     44 H8         -9.3075   -1.4351  -14.4824 H         1 <0>         0.1252
     45 H9         -7.7368   -1.9586  -12.6614 H         1 <0>         0.1300
     46 H10        -3.8901    0.4307  -15.3346 H         1 <0>         0.4040
     47 H11        -2.0522    1.8869  -11.5070 H         1 <0>         0.0786
     48 H12        -2.6149    3.4094  -12.2474 H         1 <0>         0.0783
     49 H13         0.0245    4.1384  -10.6130 H         1 <0>         0.4201
     50 H14         4.1934    5.8810  -10.2017 H         1 <0>         0.1475
     51 H15         4.5632    7.0557   -8.0766 H         1 <0>         0.1377
     52 H16         0.5561    6.1519   -6.8689 H         1 <0>         0.1361
     53 H17         0.1731    4.9834   -8.9951 H         1 <0>         0.1341
     54 H18         1.2933    6.2763   -5.1301 H         1 <0>         0.1318
     55 H19         0.7806    7.8441   -5.8001 H         1 <0>         0.0745
     56 H20         0.9876    7.9844   -3.3423 H         1 <0>         0.1394
     57 H21         2.6776    7.4344   -3.4434 H         1 <0>         0.1411
     58 H22         4.3373    8.8691   -4.5303 H         1 <0>         0.1414
     59 H23         3.8250   10.4368   -5.2003 H         1 <0>         0.1395
     60 H24         4.1304    8.7288   -6.9880 H         1 <0>         0.1307
     61 H25         2.4402    9.2785   -6.8872 H         1 <0>         0.0728
     62 H26         3.3198    9.5511   -2.3490 H         1 <0>         0.1249
     63 H27         2.8710   11.0909   -3.1209 H         1 <0>         0.1237
     64 H28         1.6224   10.0870   -2.3453 H         1 <0>         0.1236
     65 H29        -1.5349    0.5061  -14.7321 H         1 <0>         0.0936
     66 H30        -2.0990    2.0269  -15.4748 H         1 <0>         0.0932
     67 H31        -4.5787   -1.9770  -12.6557 H         1 <0>         0.0646
     68 H32        -4.5408   -0.2583  -12.1942 H         1 <0>         0.1060
     69 H33        -6.4699   -0.5405  -10.7436 H         1 <0>         0.0576
     70 H34        -6.7189   -2.2054  -11.3218 H         1 <0>         0.0549
     71 H35        -5.2894   -1.8094  -10.3379 H         1 <0>         0.0527
     72 N7          2.3038    9.3796   -4.2040 N.4       1 <0>        -0.4004
     73 H36         1.5530    9.8674   -4.7066 H         1 <0>         0.4277
@<TRIPOS>BOND
     1    1    2 1
     2    1   38 1
     3    1   39 1
     4    1   40 1
     5    2    3 1
     6    2   41 1
     7    2   42 1
     8    3    8 ar
     9    3    4 ar
    10    4    5 ar
    11    4   43 1
    12    5    6 ar
    13    5   44 1
    14    6    7 ar
    15    6   45 1
    16    7    8 ar
    17    7   36 1
    18    8    9 1
    19    9   10 am
    20    9   46 1
    21   10   11 2
    22   10   12 am
    23   12   35 1
    24   12   13 1
    25   13   14 1
    26   13   47 1
    27   13   48 1
    28   14   19 1
    29   14   15 2
    30   15   16 1
    31   15   35 1
    32   16   17 1
    33   16   18 1
    34   18   19 2
    35   19   20 1
    36   20   21 am
    37   20   49 1
    38   21   22 2
    39   21   23 1
    40   23   28 ar
    41   23   24 ar
    42   24   25 ar
    43   24   50 1
    44   25   26 ar
    45   25   51 1
    46   26   27 ar
    47   26   29 1
    48   27   28 ar
    49   27   52 1
    50   28   53 1
    51   29   33 1
    52   29   30 1
    53   30   31 1
    54   30   54 1
    55   30   55 1
    56   31   56 1
    57   31   57 1
    58   31   72 1
    59   32   33 1
    60   32   58 1
    61   32   59 1
    62   32   72 1
    63   33   60 1
    64   33   61 1
    65   34   62 1
    66   34   63 1
    67   34   64 1
    68   34   72 1
    69   35   65 1
    70   35   66 1
    71   36   37 1
    72   36   67 1
    73   36   68 1
    74   37   69 1
    75   37   70 1
    76   37   71 1
    77   72   73 1
@<TRIPOS>MOLECULE
ZINC00590935
   50    53     0     0     0
SMALL
USER_CHARGES
N-[4-(6,7-dimethoxyquinazolin-4-yl)aminophenyl]benzamide
@<TRIPOS>ATOM
      1 C1          5.4407    3.3000    1.3439 C.3       1 <0>         0.0219
      2 O1          4.4707    4.0604    0.6209 O.3       1 <0>        -0.3007
      3 C2          3.5212    3.3633   -0.0586 C.ar      1 <0>         0.1085
      4 C3          3.5316    1.9977   -0.0240 C.ar      1 <0>        -0.1468
      5 C4          2.5549    1.2791   -0.7235 C.ar      1 <0>        -0.1844
      6 C5          1.5625    1.9703   -1.4620 C.ar      1 <0>         0.2015
      7 C6          1.5706    3.3702   -1.4832 C.ar      1 <0>        -0.1839
      8 C7          2.5427    4.0539   -0.7870 C.ar      1 <0>         0.1628
      9 O2          2.5531    5.4123   -0.8062 O.3       1 <0>        -0.2977
     10 C8          1.5300    6.0582   -1.5664 C.3       1 <0>         0.0203
     11 N1          0.6373    1.2571   -2.1233 N.ar      1 <0>        -0.5445
     12 C9          0.6550   -0.0540   -2.0841 C.ar      1 <0>         0.3438
     13 N2          1.5616   -0.7418   -1.4083 N.ar      1 <0>        -0.5789
     14 C10         2.5205   -0.1358   -0.7203 C.ar      1 <0>         0.4648
     15 N3          3.4598   -0.8656   -0.0204 N.pl3     1 <0>        -0.6386
     16 C11         3.3450   -2.2580    0.0615 C.ar      1 <0>         0.1390
     17 C12         2.0893   -2.8514    0.0833 C.ar      1 <0>        -0.0909
     18 C13         1.9763   -4.2252    0.1573 C.ar      1 <0>        -0.0971
     19 C14         3.1180   -5.0133    0.2228 C.ar      1 <0>         0.1281
     20 C15         4.3735   -4.4198    0.2072 C.ar      1 <0>        -0.1221
     21 C16         4.4868   -3.0464    0.1266 C.ar      1 <0>        -0.1284
     22 N4          3.0032   -6.4065    0.3042 N.am      1 <0>        -0.6695
     23 C17         2.0140   -7.0408   -0.3558 C.2       1 <0>         0.5594
     24 O3          1.1707   -6.3983   -0.9507 O.2       1 <0>        -0.5126
     25 C18         1.9545   -8.5178   -0.3564 C.ar      1 <0>        -0.1386
     26 C19         2.9246   -9.2587    0.3208 C.ar      1 <0>        -0.0866
     27 C20         2.8605  -10.6367    0.3203 C.ar      1 <0>        -0.1268
     28 C21         1.8436  -11.2848   -0.3583 C.ar      1 <0>        -0.0902
     29 C22         0.8820  -10.5565   -1.0359 C.ar      1 <0>        -0.1263
     30 C23         0.9314   -9.1779   -1.0390 C.ar      1 <0>        -0.0566
     31 H1          6.1372    3.9765    1.8391 H         1 <0>         0.1065
     32 H2          4.9377    2.6858    2.0909 H         1 <0>         0.0572
     33 H3          5.9870    2.6575    0.6534 H         1 <0>         0.0569
     34 H4          4.2896    1.4750    0.5405 H         1 <0>         0.1388
     35 H5          0.8204    3.9100   -2.0419 H         1 <0>         0.1556
     36 H6          1.6029    5.7500   -2.6094 H         1 <0>         0.0620
     37 H7          0.5530    5.7783   -1.1723 H         1 <0>         0.0620
     38 H8          1.6536    7.1390   -1.4975 H         1 <0>         0.1070
     39 H9         -0.1041   -0.5965   -2.6279 H         1 <0>         0.1976
     40 H10         4.1995   -0.4136    0.4148 H         1 <0>         0.4181
     41 H11         1.2014   -2.2382    0.0372 H         1 <0>         0.1420
     42 H12         1.0000   -4.6868    0.1687 H         1 <0>         0.1424
     43 H13         5.2613   -5.0328    0.2578 H         1 <0>         0.1299
     44 H14         5.4632   -2.5849    0.1137 H         1 <0>         0.1286
     45 H15         3.6356   -6.9150    0.8356 H         1 <0>         0.4097
     46 H16         3.7211   -8.7541    0.8474 H         1 <0>         0.1255
     47 H17         3.6082  -11.2111    0.8470 H         1 <0>         0.1310
     48 H18         1.8002  -12.3639   -0.3587 H         1 <0>         0.1296
     49 H19         0.0907  -11.0685   -1.5633 H         1 <0>         0.1325
     50 H20         0.1803   -8.6106   -1.5686 H         1 <0>         0.1382
@<TRIPOS>BOND
     1    1    2 1
     2    1   31 1
     3    1   32 1
     4    1   33 1
     5    2    3 1
     6    3    8 ar
     7    3    4 ar
     8    4    5 ar
     9    4   34 1
    10    5   14 ar
    11    5    6 ar
    12    6    7 ar
    13    6   11 ar
    14    7    8 ar
    15    7   35 1
    16    8    9 1
    17    9   10 1
    18   10   36 1
    19   10   37 1
    20   10   38 1
    21   11   12 ar
    22   12   13 ar
    23   12   39 1
    24   13   14 ar
    25   14   15 1
    26   15   16 1
    27   15   40 1
    28   16   21 ar
    29   16   17 ar
    30   17   18 ar
    31   17   41 1
    32   18   19 ar
    33   18   42 1
    34   19   20 ar
    35   19   22 1
    36   20   21 ar
    37   20   43 1
    38   21   44 1
    39   22   23 am
    40   22   45 1
    41   23   24 2
    42   23   25 1
    43   25   30 ar
    44   25   26 ar
    45   26   27 ar
    46   26   46 1
    47   27   28 ar
    48   27   47 1
    49   28   29 ar
    50   28   48 1
    51   29   30 ar
    52   29   49 1
    53   30   50 1
@<TRIPOS>MOLECULE
ZINC13831338
   48    51     0     0     0
SMALL
USER_CHARGES

@<TRIPOS>ATOM
      1 C1          3.6884   -4.5470    0.7630 C.ar      1 <0>        -0.1011
      2 C2          4.7553   -3.8912    0.1758 C.ar      1 <0>        -0.0894
      3 C3          4.5952   -2.6108   -0.3208 C.ar      1 <0>        -0.1622
      4 C4          3.3684   -1.9823   -0.2319 C.ar      1 <0>        -0.1014
      5 C5          2.2951   -2.6379    0.3571 C.ar      1 <0>         0.1580
      6 C6          2.4594   -3.9244    0.8551 C.ar      1 <0>        -0.0836
      7 N1          1.0523   -2.0045    0.4492 N.pl3     1 <0>        -0.6496
      8 C7         -0.1136   -2.7447    0.3274 C.ar      1 <0>         0.4659
      9 C8         -1.3605   -2.1179    0.3881 C.ar      1 <0>        -0.3243
     10 C9         -2.4952   -2.8950    0.2615 C.ar      1 <0>         0.2163
     11 N2         -2.3694   -4.2025    0.0875 N.ar      1 <0>        -0.5803
     12 C10        -1.1738   -4.7705    0.0338 C.ar      1 <0>         0.5960
     13 N3         -0.0613   -4.0602    0.1458 N.ar      1 <0>        -0.6075
     14 N4         -1.0847   -6.1407   -0.1494 N.pl3     1 <0>        -0.6357
     15 C11        -2.2410   -6.8917   -0.3809 C.ar      1 <0>         0.1846
     16 C12        -3.2942   -6.3427   -1.1026 C.ar      1 <0>        -0.1235
     17 C13        -4.4369   -7.0841   -1.3317 C.ar      1 <0>        -0.0802
     18 C14        -4.5371   -8.3732   -0.8441 C.ar      1 <0>        -0.1359
     19 C15        -3.4882   -8.9276   -0.1216 C.ar      1 <0>         0.1654
     20 C16        -2.3362   -8.1880    0.1047 C.ar      1 <0>        -0.1759
     21 N5         -3.5910  -10.2326    0.3726 N.am      1 <0>        -0.6704
     22 C17        -4.2799  -11.1625   -0.3182 C.2       1 <0>         0.5439
     23 O1         -4.7267  -10.8964   -1.4139 O.2       1 <0>        -0.5155
     24 C18        -4.4949  -12.5329    0.2707 C.3       1 <0>        -0.1994
     25 C19        -3.7732  -13.7079   -0.3922 C.3       1 <0>        -0.1512
     26 C20        -5.2848  -13.5440   -0.5626 C.3       1 <0>        -0.1443
     27 C21         5.7605   -1.9000   -0.9594 C.3       1 <0>         0.5094
     28 F1          6.8854   -2.7313   -0.9323 F         1 <0>        -0.1753
     29 F2          5.4450   -1.5853   -2.2855 F         1 <0>        -0.1758
     30 F3          6.0330   -0.7235   -0.2531 F         1 <0>        -0.1762
     31 H1          3.8157   -5.5487    1.1459 H         1 <0>         0.1381
     32 H2          5.7156   -4.3803    0.1054 H         1 <0>         0.1395
     33 H3          3.2441   -0.9820   -0.6197 H         1 <0>         0.1355
     34 H4          1.6266   -4.4371    1.3134 H         1 <0>         0.1478
     35 H5          1.0057   -1.0472    0.5982 H         1 <0>         0.4256
     36 H6         -1.4355   -1.0501    0.5311 H         1 <0>         0.1455
     37 H7         -3.4746   -2.4418    0.3042 H         1 <0>         0.1731
     38 H8         -0.2200   -6.5791   -0.1170 H         1 <0>         0.4224
     39 H9         -3.2192   -5.3352   -1.4845 H         1 <0>         0.1365
     40 H10        -5.2540   -6.6552   -1.8928 H         1 <0>         0.1295
     41 H11        -5.4321   -8.9501   -1.0246 H         1 <0>         0.1340
     42 H12        -1.5173   -8.6186    0.6618 H         1 <0>         0.1271
     43 H13        -3.1665  -10.4681    1.2124 H         1 <0>         0.4121
     44 H14        -4.6207  -12.5650    1.3530 H         1 <0>         0.1280
     45 H15        -3.1429  -13.4897   -1.2543 H         1 <0>         0.1008
     46 H16        -3.4240  -14.5133    0.2539 H         1 <0>         0.1075
     47 H17        -5.9301  -14.2416   -0.0287 H         1 <0>         0.1064
     48 H18        -5.6490  -13.2180   -1.5369 H         1 <0>         0.1097
@<TRIPOS>BOND
     1    1    6 ar
     2    1    2 ar
     3    1   31 1
     4    2    3 ar
     5    2   32 1
     6    3    4 ar
     7    3   27 1
     8    4    5 ar
     9    4   33 1
    10    5    6 ar
    11    5    7 1
    12    6   34 1
    13    7    8 1
    14    7   35 1
    15    8   13 ar
    16    8    9 ar
    17    9   10 ar
    18    9   36 1
    19   10   11 ar
    20   10   37 1
    21   11   12 ar
    22   12   13 ar
    23   12   14 1
    24   14   15 1
    25   14   38 1
    26   15   20 ar
    27   15   16 ar
    28   16   17 ar
    29   16   39 1
    30   17   18 ar
    31   17   40 1
    32   18   19 ar
    33   18   41 1
    34   19   20 ar
    35   19   21 1
    36   20   42 1
    37   21   22 am
    38   21   43 1
    39   22   23 2
    40   22   24 1
    41   24   26 1
    42   24   25 1
    43   24   44 1
    44   25   26 1
    45   25   45 1
    46   25   46 1
    47   26   47 1
    48   26   48 1
    49   27   28 1
    50   27   29 1
    51   27   30 1
@<TRIPOS>MOLECULE
ZINC14951647
   66    70     0     0     0
SMALL
USER_CHARGES

@<TRIPOS>ATOM
      1 C1         -0.0389    1.4645   -0.0020 C.3       1 <0>        -0.0472
      2 N1         -0.0082   -0.0042   -0.0039 N.4       1 <0>        -0.3844
      3 C2         -1.3826   -0.5207   -0.0148 C.3       1 <0>        -0.0233
      4 C3         -1.3523   -2.0482   -0.1323 C.3       1 <0>         0.0948
      5 N2         -0.5114   -2.5826    0.9500 N.pl3     1 <0>        -0.6396
      6 C4          0.8282   -2.0042    1.1370 C.3       1 <0>         0.0958
      7 C5          0.6949   -0.4788    1.1947 C.3       1 <0>        -0.0229
      8 C6         -0.9699   -3.6051    1.7732 C.ar      1 <0>         0.2274
      9 C7         -2.2804   -4.0593    1.6524 C.ar      1 <0>        -0.1950
     10 C8         -2.7374   -5.0708    2.4658 C.ar      1 <0>        -0.0040
     11 C9         -1.8839   -5.6427    3.4140 C.ar      1 <0>        -0.1717
     12 C10        -0.5684   -5.1847    3.5326 C.ar      1 <0>        -0.0339
     13 C11        -0.1159   -4.1765    2.7125 C.ar      1 <0>        -0.1936
     14 C12        -2.3706   -6.7267    4.2879 C.2       1 <0>         0.5543
     15 O1         -3.5154   -7.1239    4.1840 O.2       1 <0>        -0.4844
     16 N3         -1.5467   -7.2771    5.2015 N.am      1 <0>        -0.6362
     17 C13        -2.0090   -8.3066    6.0315 C.2       1 <0>         0.3360
     18 C14        -1.2629   -8.9639    7.0266 C.2       1 <0>        -0.2836
     19 C15        -2.0615   -9.8877    7.6006 C.2       1 <0>         0.0772
     20 N4         -3.2700   -9.8243    6.9971 N.pl3     1 <0>        -0.4390
     21 H1         -4.0412  -10.3741    7.2066 H         1 <0>         0.4475
     22 N5         -3.2148   -8.8225    6.0205 N.2       1 <0>        -0.2478
     23 C16        -1.2931  -10.6143    8.6754 C.3       1 <0>         0.1668
     24 N6          0.0602  -10.0480    8.7093 N.am      1 <0>        -0.6085
     25 C17         0.0971   -9.0062    7.6765 C.3       1 <0>         0.1922
     26 C18         1.0683  -10.4119    9.5265 C.2       1 <0>         0.5249
     27 O2          2.1435   -9.8564    9.4477 O.2       1 <0>        -0.5058
     28 C19         0.8595  -11.5091   10.5383 C.3       1 <0>         0.1234
     29 H2          0.5057  -12.4074   10.0323 H         1 <0>         0.0972
     30 C20        -0.1637  -11.0684   11.5532 C.ar      1 <0>        -0.0973
     31 C21         0.2052  -10.2264   12.5857 C.ar      1 <0>        -0.0814
     32 C22        -0.7333   -9.8222   13.5167 C.ar      1 <0>        -0.1178
     33 C23        -2.0407  -10.2595   13.4149 C.ar      1 <0>        -0.1072
     34 C24        -2.4097  -11.1007   12.3819 C.ar      1 <0>        -0.1200
     35 C25        -1.4722  -11.5015   11.4485 C.ar      1 <0>        -0.1143
     36 O3          2.0953  -11.7897   11.1986 O.3       1 <0>        -0.3486
     37 C26         2.8813  -12.7964   10.5577 C.3       1 <0>         0.0261
     38 H3          0.9809    1.8492   -0.0020 H         1 <0>         0.1258
     39 H4         -0.5606    1.8181   -0.8913 H         1 <0>         0.1258
     40 H5         -0.5598    1.8158    0.8886 H         1 <0>         0.1221
     41 H6         -1.8847   -0.2373    0.9103 H         1 <0>         0.1336
     42 H7         -1.9217   -0.1015   -0.8643 H         1 <0>         0.1430
     43 H8         -2.3640   -2.4429   -0.0390 H         1 <0>         0.1299
     44 H9         -0.9324   -2.3330   -1.0971 H         1 <0>         0.0921
     45 H10         1.2581   -2.3698    2.0695 H         1 <0>         0.1290
     46 H11         1.4683   -2.2845    0.3005 H         1 <0>         0.0916
     47 H12         1.6868   -0.0286    1.2363 H         1 <0>         0.1429
     48 H13         0.1300   -0.1967    2.0831 H         1 <0>         0.1334
     49 H14        -2.9392   -3.6171    0.9197 H         1 <0>         0.1325
     50 H15        -3.7543   -5.4222    2.3721 H         1 <0>         0.1443
     51 H16         0.0933   -5.6245    4.2641 H         1 <0>         0.1325
     52 H17         0.9015   -3.8250    2.8008 H         1 <0>         0.1323
     53 H18        -0.6337   -6.9603    5.2844 H         1 <0>         0.4195
     54 H19        -1.7793  -10.4692    9.6401 H         1 <0>         0.1069
     55 H20        -1.2437  -11.6775    8.4405 H         1 <0>         0.0944
     56 H21         0.8554   -9.2496    6.9323 H         1 <0>         0.0785
     57 H22         0.3198   -8.0413    8.1319 H         1 <0>         0.0782
     58 H23         1.2266   -9.8848   12.6652 H         1 <0>         0.1309
     59 H24        -0.4450   -9.1650   14.3237 H         1 <0>         0.1275
     60 H25        -2.7738   -9.9442   14.1427 H         1 <0>         0.1263
     61 H26        -3.4311  -11.4426   12.3026 H         1 <0>         0.1284
     62 H27        -1.7613  -12.1558   10.6393 H         1 <0>         0.1262
     63 H28         3.1234  -12.4776    9.5439 H         1 <0>         0.0469
     64 H29         3.8023  -12.9509   11.1198 H         1 <0>         0.0969
     65 H30         2.3176  -13.7286   10.5206 H         1 <0>         0.0473
     66 H31         0.4768   -0.3282   -0.8272 H         1 <0>         0.4252
@<TRIPOS>BOND
     1    1    2 1
     2    1   38 1
     3    1   39 1
     4    1   40 1
     5    2    7 1
     6    2    3 1
     7    2   66 1
     8    3    4 1
     9    3   41 1
    10    3   42 1
    11    4    5 1
    12    4   43 1
    13    4   44 1
    14    5    6 1
    15    5    8 1
    16    6    7 1
    17    6   45 1
    18    6   46 1
    19    7   47 1
    20    7   48 1
    21    8   13 ar
    22    8    9 ar
    23    9   10 ar
    24    9   49 1
    25   10   11 ar
    26   10   50 1
    27   11   12 ar
    28   11   14 1
    29   12   13 ar
    30   12   51 1
    31   13   52 1
    32   14   15 2
    33   14   16 am
    34   16   17 1
    35   16   53 1
    36   17   22 2
    37   17   18 1
    38   18   25 1
    39   18   19 2
    40   19   20 1
    41   19   23 1
    42   20   21 1
    43   20   22 1
    44   23   24 1
    45   23   54 1
    46   23   55 1
    47   24   25 1
    48   24   26 am
    49   25   56 1
    50   25   57 1
    51   26   27 2
    52   26   28 1
    53   28   29 1
    54   28   30 1
    55   28   36 1
    56   30   35 ar
    57   30   31 ar
    58   31   32 ar
    59   31   58 1
    60   32   33 ar
    61   32   59 1
    62   33   34 ar
    63   33   60 1
    64   34   35 ar
    65   34   61 1
    66   35   62 1
    67   36   37 1
    68   37   63 1
    69   37   64 1
    70   37   65 1
@<TRIPOS>MOLECULE
ZINC14779318
   32    35     0     0     0
SMALL
USER_CHARGES
dihydroxy-methoxy-BLAHone
@<TRIPOS>ATOM
      1 C1          4.1070    2.5394   -1.2965 C.3       1 <0>         0.0299
      2 O1          3.5705    2.1853   -0.0203 O.3       1 <0>        -0.3219
      3 C2          2.4248    1.4585   -0.0138 C.ar      1 <0>         0.1293
      4 C3          1.1809    2.0920    0.0020 C.ar      1 <0>         0.0853
      5 C4         -0.0168    1.3864    0.0097 C.ar      1 <0>        -0.0292
      6 C5          0.0021   -0.0041    0.0020 C.ar      1 <0>        -0.1465
      7 C6          1.2569   -0.6254   -0.0134 C.ar      1 <0>        -0.0770
      8 C7          2.4679    0.0596   -0.0214 C.ar      1 <0>        -0.0292
      9 C8          3.6802   -0.7599   -0.0377 C.ar      1 <0>        -0.0230
     10 C9          4.9538   -0.1962   -0.0473 C.ar      1 <0>        -0.1334
     11 C10         6.0641   -1.0174   -0.0628 C.ar      1 <0>         0.1139
     12 C11         5.9141   -2.4048   -0.0697 C.ar      1 <0>        -0.1331
     13 C12         4.6789   -2.9760   -0.0607 C.ar      1 <0>        -0.0856
     14 C13         3.5265   -2.1711   -0.0443 C.ar      1 <0>        -0.0376
     15 C14         2.2461   -2.7753   -0.0351 C.ar      1 <0>        -0.0942
     16 C15         1.1129   -2.0186   -0.0198 C.ar      1 <0>         0.1426
     17 N1         -0.2561   -2.2769   -0.0080 N.am      1 <0>        -0.6534
     18 C16        -0.9550   -1.1133    0.0053 C.2       1 <0>         0.5790
     19 O2         -2.1679   -1.0094    0.0177 O.2       1 <0>        -0.4860
     20 O3          7.3085   -0.4719   -0.0717 O.3       1 <0>        -0.4949
     21 O4          1.1391    3.4516    0.0092 O.3       1 <0>        -0.4850
     22 H1          4.3315    1.6339   -1.8602 H         1 <0>         0.0515
     23 H2          3.3781    3.1369   -1.8440 H         1 <0>         0.0587
     24 H3          5.0208    3.1175   -1.1588 H         1 <0>         0.1041
     25 H4         -0.9581    1.9158    0.0170 H         1 <0>         0.1529
     26 H5          5.0724    0.8773   -0.0426 H         1 <0>         0.1531
     27 H6          6.7913   -3.0346   -0.0827 H         1 <0>         0.1348
     28 H7          4.5836   -4.0518   -0.0666 H         1 <0>         0.1373
     29 H8          2.1663   -3.8523   -0.0407 H         1 <0>         0.1390
     30 H9         -0.6531   -3.1620   -0.0091 H         1 <0>         0.4265
     31 H10         7.6600   -0.3086   -0.9577 H         1 <0>         0.3932
     32 H11         1.1353    3.8403    0.8946 H         1 <0>         0.3986
@<TRIPOS>BOND
     1    1    2 1
     2    1   22 1
     3    1   23 1
     4    1   24 1
     5    2    3 1
     6    3    8 ar
     7    3    4 ar
     8    4    5 ar
     9    4   21 1
    10    5    6 ar
    11    5   25 1
    12    6   18 1
    13    6    7 ar
    14    7   16 ar
    15    7    8 ar
    16    8    9 ar
    17    9   14 ar
    18    9   10 ar
    19   10   11 ar
    20   10   26 1
    21   11   12 ar
    22   11   20 1
    23   12   13 ar
    24   12   27 1
    25   13   14 ar
    26   13   28 1
    27   14   15 ar
    28   15   16 ar
    29   15   29 1
    30   16   17 1
    31   17   18 am
    32   17   30 1
    33   18   19 2
    34   20   31 1
    35   21   32 1
@<TRIPOS>MOLECULE
ZINC28824604
   35    37     0     0     0
SMALL
USER_CHARGES
N,N-dimethyl-4-(7-methyl-3H-imidazo[4,5-b]pyridin-2-yl)aniline
@<TRIPOS>ATOM
      1 C1         -3.8178   -3.1814    0.0060 C.3       1 <0>        -0.1185
      2 C2         -4.5816   -1.8823    0.0168 C.ar      1 <0>        -0.0207
      3 C3         -5.9636   -1.8711    0.0156 C.ar      1 <0>        -0.1742
      4 C4         -6.6374   -0.6605    0.0248 C.ar      1 <0>         0.1438
      5 N1         -5.9881    0.4860    0.0301 N.ar      1 <0>        -0.4569
      6 C5         -4.6660    0.5340    0.0277 C.ar      1 <0>         0.2594
      7 C6         -3.9112   -0.6542    0.0188 C.ar      1 <0>        -0.0333
      8 N2         -2.6033   -0.3027    0.0138 N.pl3     1 <0>        -0.5561
      9 C7         -2.5017    1.0045    0.0191 C.2       1 <0>         0.3553
     10 N3         -3.7513    1.5661    0.0323 N.2       1 <0>        -0.4843
     11 H1         -1.8249   -1.0799    0.0064 H         1 <0>         0.4478
     12 C8         -1.2311    1.7584    0.0114 C.ar      1 <0>        -0.1048
     13 C9         -0.0126    1.0759    0.0033 C.ar      1 <0>        -0.0467
     14 C10         1.1702    1.7814   -0.0092 C.ar      1 <0>        -0.1965
     15 C11         1.1521    3.1724   -0.0084 C.ar      1 <0>         0.2364
     16 C12        -0.0601    3.8550    0.0051 C.ar      1 <0>        -0.1976
     17 C13        -1.2461    3.1550    0.0176 C.ar      1 <0>        -0.0111
     18 N4          2.3504    3.8834   -0.0215 N.pl3     1 <0>        -0.6297
     19 C14         3.6276    3.1661   -0.0362 C.3       1 <0>         0.0875
     20 C15         2.3330    5.3483   -0.0206 C.3       1 <0>         0.0866
     21 H2         -2.7379   -2.9719    0.0088 H         1 <0>         0.0583
     22 H3         -4.0782   -3.7523   -0.8975 H         1 <0>         0.0830
     23 H4         -4.0798   -3.7682    0.8988 H         1 <0>         0.0830
     24 H5         -6.4707   -2.7330    0.0116 H         1 <0>         0.1308
     25 H6         -7.6374   -0.6688    0.0275 H         1 <0>         0.1497
     26 H7          0.0021   -0.0041    0.0022 H         1 <0>         0.1189
     27 H8          2.1127    1.2542   -0.0193 H         1 <0>         0.1288
     28 H9         -0.0710    4.9350    0.0061 H         1 <0>         0.1308
     29 H10        -2.1867    3.6855    0.0280 H         1 <0>         0.1407
     30 H11         4.4551    3.8908   -0.0451 H         1 <0>         0.0776
     31 H12         3.6833    2.5348   -0.9353 H         1 <0>         0.0580
     32 H13         3.7035    2.5340    0.8609 H         1 <0>         0.0580
     33 H14         3.3657    5.7272   -0.0321 H         1 <0>         0.0773
     34 H15         1.8203    5.7084    0.8835 H         1 <0>         0.0595
     35 H16         1.8001    5.7092   -0.9127 H         1 <0>         0.0595
@<TRIPOS>BOND
     1    1   21 1
     2    1   22 1
     3    1   23 1
     4    1    2 1
     5    2    3 ar
     6    2    7 ar
     7    3    4 ar
     8    3   24 1
     9    4   25 1
    10    4    5 ar
    11    5    6 ar
    12    6   10 1
    13    6    7 ar
    14    7    8 1
    15    8   11 1
    16    8    9 1
    17    9   12 1
    18    9   10 2
    19   12   17 ar
    20   12   13 ar
    21   13   14 ar
    22   13   26 1
    23   14   15 ar
    24   14   27 1
    25   15   16 ar
    26   15   18 1
    27   16   17 ar
    28   16   28 1
    29   17   29 1
    30   18   19 1
    31   18   20 1
    32   19   30 1
    33   19   31 1
    34   19   32 1
    35   20   33 1
    36   20   34 1
    37   20   35 1
@<TRIPOS>MOLECULE
ZINC28824607
   59    63     0     0     0
SMALL
USER_CHARGES

@<TRIPOS>ATOM
      1 C1         -0.0178    1.4608    0.0101 C.3       1 <0>         0.0872
      2 N1          0.0021   -0.0041    0.0020 N.pl3     1 <0>        -0.6297
      3 C2          0.0241   -0.7433    1.2666 C.3       1 <0>         0.0893
      4 C3          0.0000   -0.6942   -1.2084 C.ar      1 <0>         0.2395
      5 C4          0.0131   -2.0853   -1.2144 C.ar      1 <0>        -0.1982
      6 C5          0.0111   -2.7702   -2.4092 C.ar      1 <0>        -0.0082
      7 C6         -0.0046   -2.0667   -3.6157 C.ar      1 <0>        -0.1073
      8 C7         -0.0182   -0.6701   -3.6065 C.ar      1 <0>        -0.0429
      9 C8         -0.0209    0.0092   -2.4085 C.ar      1 <0>        -0.1998
     10 C9         -0.0063   -2.7985   -4.8991 C.2       1 <0>         0.3759
     11 N2          0.0055   -4.1047   -5.0243 N.2       1 <0>        -0.4796
     12 H1         -0.0418   -1.2665   -6.3280 H         1 <0>         0.4221
     13 C10        -0.0002   -4.4401   -6.3311 C.ar      1 <0>         0.2679
     14 C11        -0.0168   -3.2427   -7.0640 C.ar      1 <0>        -0.0021
     15 N3         -0.0264   -2.2174   -6.1369 N.pl3     1 <0>        -0.5852
     16 C12        -0.0263   -3.2927   -8.4584 C.ar      1 <0>         0.2431
     17 C13        -0.0188   -4.5449   -9.0702 C.ar      1 <0>        -0.0973
     18 C14        -0.0023   -5.6835   -8.2843 C.ar      1 <0>         0.1428
     19 N4          0.0064   -5.6116   -6.9696 N.ar      1 <0>        -0.4351
     20 Cl1        -0.0305   -4.6749  -10.8013 Cl        1 <0>        -0.0354
     21 N5         -0.0434   -2.1240   -9.2176 N.pl3     1 <0>        -0.6751
     22 C15        -1.3148   -1.5002   -9.6146 C.3       1 <0>         0.1499
     23 C16        -1.2715   -0.0181   -9.2277 C.3       1 <0>         0.0440
     24 N6         -0.0698    0.6001   -9.8036 N.3       1 <0>        -0.5156
     25 C17         1.1535   -0.0005   -9.2550 C.3       1 <0>         0.0379
     26 C18         1.2096   -1.4785   -9.6378 C.3       1 <0>         0.1527
     27 C19        -0.0781    2.0552   -9.6018 C.3       1 <0>         0.0427
     28 C20         1.0303    2.6806  -10.4089 C.2       1 <0>         0.5053
     29 O1          1.7557    1.9829  -11.0856 O.2       1 <0>        -0.4448
     30 N7          1.2154    4.0152  -10.3787 N.am      1 <0>        -0.6258
     31 C21         2.2378    4.5921  -11.1231 C.2       1 <0>         0.2723
     32 N8          3.1096    4.0004  -11.9107 N.2       1 <0>        -0.5214
     33 C22         4.0286    4.6953  -12.5551 C.2       1 <0>         0.0629
     34 C23         4.0303    6.0379  -12.3671 C.2       1 <0>        -0.2429
     35 S1          2.6562    6.2180  -11.2414 S.3       1 <0>         0.1046
     36 H2          1.0048    1.8381    0.0023 H         1 <0>         0.0528
     37 H3         -0.5450    1.8219   -0.8730 H         1 <0>         0.0706
     38 H4         -0.5280    1.8123    0.9069 H         1 <0>         0.0710
     39 H5          0.0224   -0.0395    2.0990 H         1 <0>         0.0766
     40 H6         -0.8567   -1.3823    1.3294 H         1 <0>         0.0594
     41 H7          0.9230   -1.3581    1.3125 H         1 <0>         0.0595
     42 H8          0.0252   -2.6287   -0.2811 H         1 <0>         0.1319
     43 H9          0.0219   -3.8501   -2.4132 H         1 <0>         0.1419
     44 H10        -0.0303   -0.1235   -4.5379 H         1 <0>         0.1160
     45 H11        -0.0356    1.0891   -2.4007 H         1 <0>         0.1299
     46 H12         0.0032   -6.6531   -8.7599 H         1 <0>         0.1753
     47 H13        -1.4476   -1.5935  -10.6924 H         1 <0>         0.0708
     48 H14        -2.1400   -1.9897   -9.0974 H         1 <0>         0.0745
     49 H15        -2.1590    0.4844   -9.6125 H         1 <0>         0.0885
     50 H16        -1.2430    0.0737   -8.1420 H         1 <0>         0.0327
     51 H17         2.0247    0.5148   -9.6596 H         1 <0>         0.1017
     52 H18         1.1481    0.0911   -8.1689 H         1 <0>         0.0258
     53 H19         2.0525   -1.9536   -9.1360 H         1 <0>         0.0719
     54 H20         1.3241   -1.5697  -10.7180 H         1 <0>         0.0719
     55 H21        -1.0366    2.4614   -9.9249 H         1 <0>         0.1130
     56 H22         0.0726    2.2763   -8.5451 H         1 <0>         0.0690
     57 H23         0.6352    4.5733   -9.8375 H         1 <0>         0.4250
     58 H24         4.7474    4.2155  -13.2029 H         1 <0>         0.1766
     59 H25         4.6811    6.7913  -12.7858 H         1 <0>         0.1999
@<TRIPOS>BOND
     1    1    2 1
     2    1   36 1
     3    1   37 1
     4    1   38 1
     5    2    3 1
     6    2    4 1
     7    3   39 1
     8    3   40 1
     9    3   41 1
    10    4    9 ar
    11    4    5 ar
    12    5    6 ar
    13    5   42 1
    14    6    7 ar
    15    6   43 1
    16    7    8 ar
    17    7   10 1
    18    8    9 ar
    19    8   44 1
    20    9   45 1
    21   10   11 2
    22   10   15 1
    23   11   13 1
    24   12   15 1
    25   13   19 ar
    26   13   14 ar
    27   14   16 ar
    28   14   15 1
    29   16   17 ar
    30   16   21 1
    31   17   18 ar
    32   17   20 1
    33   18   19 ar
    34   18   46 1
    35   21   26 1
    36   21   22 1
    37   22   23 1
    38   22   47 1
    39   22   48 1
    40   23   24 1
    41   23   49 1
    42   23   50 1
    43   24   25 1
    44   24   27 1
    45   25   26 1
    46   25   51 1
    47   25   52 1
    48   26   53 1
    49   26   54 1
    50   27   28 1
    51   27   55 1
    52   27   56 1
    53   28   29 2
    54   28   30 am
    55   30   31 1
    56   30   57 1
    57   31   35 1
    58   31   32 2
    59   32   33 1
    60   33   34 2
    61   33   58 1
    62   34   35 1
    63   34   59 1
@<TRIPOS>MOLECULE
ZINC28824607
   60    64     0     0     0
SMALL
USER_CHARGES
2-[4-[6-chloro-2-(4-dimethylaminophenyl)-3H-imidazo[4,5-b]pyridin-7-yl]piperazin-1-yl]-N-thiazol-2-yl-acetamide
@<TRIPOS>ATOM
      1 C1          3.6076    2.9686   -2.1424 C.3       1 <0>         0.0779
      2 N1          2.3612    3.7157   -1.9566 N.pl3     1 <0>        -0.6248
      3 C2          2.3579    5.1759   -2.0752 C.3       1 <0>         0.0772
      4 C3          1.1786    3.0374   -1.6672 C.ar      1 <0>         0.2486
      5 C4          1.1834    1.6508   -1.5550 C.ar      1 <0>        -0.2084
      6 C5          0.0163    0.9777   -1.2685 C.ar      1 <0>        -0.0049
      7 C6         -1.1738    1.6880   -1.0970 C.ar      1 <0>        -0.1198
      8 C7         -1.1743    3.0805   -1.2049 C.ar      1 <0>        -0.0376
      9 C8         -0.0041    3.7481   -1.4916 C.ar      1 <0>        -0.2028
     10 C9         -2.4287    0.9683   -0.7956 C.2       1 <0>         0.3752
     11 N2         -3.6507    1.5589   -0.6035 N.pl3     1 <0>        -0.5977
     12 H1         -3.7483    2.6529   -0.6632 H         1 <0>         0.4640
     13 C10        -4.5596    0.5512   -0.3571 C.ar      1 <0>         0.2668
     14 C11        -3.8308   -0.6486   -0.4019 C.ar      1 <0>         0.0572
     15 N3         -2.5423   -0.3316   -0.6725 N.2       1 <0>        -0.4763
     16 C12        -4.5053   -1.8621   -0.1780 C.ar      1 <0>         0.1754
     17 C13        -5.8740   -1.8137    0.0672 C.ar      1 <0>        -0.1331
     18 C14        -6.5190   -0.5899    0.0832 C.ar      1 <0>         0.1704
     19 N4         -5.8617    0.5364   -0.1127 N.ar      1 <0>        -0.4520
     20 Cl1        -6.7647   -3.2765    0.3511 Cl        1 <0>        -0.0385
     21 N5         -3.8240   -3.0756   -0.2014 N.pl3     1 <0>        -0.4819
     22 C15        -4.3132   -3.9334   -1.2897 C.3       1 <0>         0.0145
     23 C16        -3.4874   -5.2212   -1.3313 C.3       1 <0>         0.0063
     24 N6         -3.5904   -5.9082   -0.0362 N.4       1 <0>        -0.3932
     25 C17        -3.1012   -5.0505    1.0522 C.3       1 <0>        -0.0005
     26 C18        -3.9271   -3.7626    1.0937 C.3       1 <0>         0.0149
     27 C19        -2.8714   -7.1890   -0.0609 C.3       1 <0>        -0.0220
     28 C20        -3.2019   -7.9747    1.1818 C.2       1 <0>         0.5002
     29 O1         -4.0467   -7.5666    1.9505 O.2       1 <0>        -0.4672
     30 N7         -2.5590   -9.1309    1.4390 N.am      1 <0>        -0.6147
     31 C21        -2.8638   -9.8556    2.5852 C.2       1 <0>         0.2705
     32 N8         -3.7367   -9.5772    3.5339 N.2       1 <0>        -0.5047
     33 C22        -3.9075  -10.3836    4.5633 C.2       1 <0>         0.0468
     34 C23        -3.1538  -11.5081    4.6350 C.2       1 <0>        -0.2050
     35 S1         -2.1878  -11.3561    3.1395 S.3       1 <0>         0.0921
     36 H2          3.4128    1.8934   -2.0160 H         1 <0>         0.0826
     37 H3          4.3467    3.2974   -1.3971 H         1 <0>         0.0626
     38 H4          3.9990    3.1540   -3.1535 H         1 <0>         0.0626
     39 H5          1.3396    5.5553   -1.9046 H         1 <0>         0.0827
     40 H6          2.6919    5.4627   -3.0833 H         1 <0>         0.0630
     41 H7          3.0397    5.6061   -1.3268 H         1 <0>         0.0630
     42 H8          2.1032    1.1017   -1.6922 H         1 <0>         0.1349
     43 H9          0.0207   -0.0988   -1.1810 H         1 <0>         0.1376
     44 H10        -2.0923    3.6328   -1.0687 H         1 <0>         0.1218
     45 H11        -0.0048    4.8245   -1.5796 H         1 <0>         0.1357
     46 H12        -7.5052   -0.5712    0.2478 H         1 <0>         0.1612
     47 H13        -5.3708   -4.1803   -1.1148 H         1 <0>         0.0785
     48 H14        -4.2144   -3.4022   -2.2479 H         1 <0>         0.1288
     49 H15        -3.8707   -5.8771   -2.1268 H         1 <0>         0.1428
     50 H16        -2.4346   -4.9754   -1.5342 H         1 <0>         0.1432
     51 H17        -3.2000   -5.5817    2.0103 H         1 <0>         0.1465
     52 H18        -2.0436   -4.8035    0.8772 H         1 <0>         0.1380
     53 H19        -3.5443   -3.1058    1.8887 H         1 <0>         0.1259
     54 H20        -4.9802   -4.0076    1.2960 H         1 <0>         0.0832
     55 H21        -3.1749   -7.7627   -0.9490 H         1 <0>         0.1692
     56 H22        -1.7883   -7.0008   -0.0985 H         1 <0>         0.1643
     57 H23        -1.7929   -9.5012    0.7418 H         1 <0>         0.4650
     58 H24        -4.6277  -10.1511    5.3336 H         1 <0>         0.1794
     59 H25        -3.1407  -12.2819    5.3882 H         1 <0>         0.2070
     60 H26        -4.6530   -6.1221    0.1514 H         1 <0>         0.4477
@<TRIPOS>BOND
     1    1    2 1
     2    1   36 1
     3    1   37 1
     4    1   38 1
     5    2    3 1
     6    2    4 1
     7    3   39 1
     8    3   40 1
     9    3   41 1
    10    4    9 ar
    11    4    5 ar
    12    5    6 ar
    13    5   42 1
    14    6    7 ar
    15    6   43 1
    16    7    8 ar
    17    7   10 1
    18    8    9 ar
    19    8   44 1
    20    9   45 1
    21   10   15 2
    22   10   11 1
    23   11   12 1
    24   11   13 1
    25   13   14 ar
    26   13   19 ar
    27   14   16 ar
    28   14   15 1
    29   16   17 ar
    30   16   21 1
    31   17   18 ar
    32   17   20 1
    33   18   46 1
    34   18   19 ar
    35   21   26 1
    36   21   22 1
    37   22   23 1
    38   22   47 1
    39   22   48 1
    40   23   24 1
    41   23   49 1
    42   23   50 1
    43   24   25 1
    44   24   27 1
    45   24   60 1
    46   25   26 1
    47   25   51 1
    48   25   52 1
    49   26   53 1
    50   26   54 1
    51   27   28 1
    52   27   55 1
    53   27   56 1
    54   28   29 2
    55   28   30 am
    56   30   31 1
    57   30   57 1
    58   31   35 1
    59   31   32 2
    60   32   33 1
    61   33   34 2
    62   33   58 1
    63   34   35 1
    64   34   59 1
@<TRIPOS>MOLECULE
ZINC28824607
   59    63     0     0     0
SMALL
USER_CHARGES
2-[4-[6-chloro-2-(4-dimethylaminophenyl)-3H-imidazo[4,5-b]pyridin-7-yl]piperazin-1-yl]-N-thiazol-2-yl-acetamide
@<TRIPOS>ATOM
      1 C1          3.6076    2.9686   -2.1424 C.3       1 <0>         0.0789
      2 N1          2.3612    3.7157   -1.9566 N.pl3     1 <0>        -0.6272
      3 C2          2.3579    5.1759   -2.0752 C.3       1 <0>         0.0792
      4 C3          1.1786    3.0374   -1.6672 C.ar      1 <0>         0.2443
      5 C4          1.1834    1.6508   -1.5550 C.ar      1 <0>        -0.2062
      6 C5          0.0163    0.9777   -1.2685 C.ar      1 <0>        -0.0061
      7 C6         -1.1738    1.6880   -1.0970 C.ar      1 <0>        -0.1119
      8 C7         -1.1743    3.0805   -1.2049 C.ar      1 <0>        -0.0405
      9 C8         -0.0041    3.7481   -1.4916 C.ar      1 <0>        -0.2034
     10 C9         -2.4287    0.9683   -0.7956 C.2       1 <0>         0.3648
     11 N2         -3.6507    1.5589   -0.6035 N.pl3     1 <0>        -0.5982
     12 H1         -3.7483    2.6529   -0.6632 H         1 <0>         0.4605
     13 C10        -4.5596    0.5512   -0.3571 C.ar      1 <0>         0.2650
     14 C11        -3.8308   -0.6486   -0.4019 C.ar      1 <0>         0.0537
     15 N3         -2.5423   -0.3316   -0.6725 N.2       1 <0>        -0.4692
     16 C12        -4.5053   -1.8621   -0.1780 C.ar      1 <0>         0.1869
     17 C13        -5.8740   -1.8137    0.0672 C.ar      1 <0>        -0.1373
     18 C14        -6.5190   -0.5899    0.0832 C.ar      1 <0>         0.1713
     19 N4         -5.8617    0.5364   -0.1127 N.ar      1 <0>        -0.4585
     20 Cl1        -6.7647   -3.2765    0.3511 Cl        1 <0>        -0.0328
     21 N5         -3.8240   -3.0756   -0.2014 N.pl3     1 <0>        -0.4860
     22 C15        -4.3132   -3.9334   -1.2897 C.3       1 <0>         0.0183
     23 C16        -3.4874   -5.2212   -1.3313 C.3       1 <0>         0.0064
     24 N6         -3.5904   -5.9082   -0.0362 N.4       1 <0>        -0.3878
     25 C17        -3.1012   -5.0505    1.0522 C.3       1 <0>         0.0063
     26 C18        -3.9271   -3.7626    1.0937 C.3       1 <0>         0.0179
     27 C19        -2.8714   -7.1890   -0.0609 C.3       1 <0>         0.0013
     28 C20        -3.2019   -7.9747    1.1818 C.2       1 <0>         0.4389
     29 O1         -4.0467   -7.5666    1.9505 O.3       1 <0>        -0.5883
     30 N7         -2.5590   -9.1309    1.4390 N.2       1 <0>        -0.6499
     31 C21        -2.8638   -9.8556    2.5852 C.2       1 <0>         0.3643
     32 N8         -3.7367   -9.5772    3.5339 N.2       1 <0>        -0.5847
     33 C22        -3.9075  -10.3836    4.5633 C.2       1 <0>         0.0678
     34 C23        -3.1538  -11.5081    4.6350 C.2       1 <0>        -0.2987
     35 S1         -2.1878  -11.3561    3.1395 S.3       1 <0>        -0.0284
     36 H2          3.4128    1.8934   -2.0160 H         1 <0>         0.0834
     37 H3          4.3467    3.2974   -1.3971 H         1 <0>         0.0609
     38 H4          3.9990    3.1540   -3.1535 H         1 <0>         0.0608
     39 H5          1.3396    5.5553   -1.9046 H         1 <0>         0.0820
     40 H6          2.6919    5.4627   -3.0833 H         1 <0>         0.0607
     41 H7          3.0397    5.6061   -1.3268 H         1 <0>         0.0608
     42 H8          2.1032    1.1017   -1.6922 H         1 <0>         0.1348
     43 H9          0.0207   -0.0988   -1.1810 H         1 <0>         0.1397
     44 H10        -2.0923    3.6328   -1.0687 H         1 <0>         0.1211
     45 H11        -0.0048    4.8245   -1.5796 H         1 <0>         0.1339
     46 H12        -7.5052   -0.5712    0.2478 H         1 <0>         0.1602
     47 H13        -5.3708   -4.1803   -1.1148 H         1 <0>         0.0752
     48 H14        -4.2144   -3.4022   -2.2479 H         1 <0>         0.1206
     49 H15        -3.8707   -5.8771   -2.1268 H         1 <0>         0.1360
     50 H16        -2.4346   -4.9754   -1.5342 H         1 <0>         0.1354
     51 H17        -3.2000   -5.5817    2.0103 H         1 <0>         0.1532
     52 H18        -2.0436   -4.8035    0.8772 H         1 <0>         0.1273
     53 H19        -3.5443   -3.1058    1.8887 H         1 <0>         0.1187
     54 H20        -4.9802   -4.0076    1.2960 H         1 <0>         0.0809
     55 H21        -3.1749   -7.7627   -0.9490 H         1 <0>         0.1409
     56 H22        -1.7883   -7.0008   -0.0985 H         1 <0>         0.1392
     57 H23        -4.6277  -10.1511    5.3336 H         1 <0>         0.1455
     58 H24        -3.1407  -12.2819    5.3882 H         1 <0>         0.1776
     59 H25        -4.6530   -6.1221    0.1514 H         1 <0>         0.4404
@<TRIPOS>BOND
     1    1    2 1
     2    1   36 1
     3    1   37 1
     4    1   38 1
     5    2    3 1
     6    2    4 1
     7    3   39 1
     8    3   40 1
     9    3   41 1
    10    4    9 ar
    11    4    5 ar
    12    5    6 ar
    13    5   42 1
    14    6    7 ar
    15    6   43 1
    16    7    8 ar
    17    7   10 1
    18    8    9 ar
    19    8   44 1
    20    9   45 1
    21   10   15 2
    22   10   11 1
    23   11   12 1
    24   11   13 1
    25   13   14 ar
    26   13   19 ar
    27   14   16 ar
    28   14   15 1
    29   16   17 ar
    30   16   21 1
    31   17   18 ar
    32   17   20 1
    33   18   46 1
    34   18   19 ar
    35   21   26 1
    36   21   22 1
    37   22   23 1
    38   22   47 1
    39   22   48 1
    40   23   24 1
    41   23   49 1
    42   23   50 1
    43   24   25 1
    44   24   27 1
    45   24   59 1
    46   25   26 1
    47   25   51 1
    48   25   52 1
    49   26   53 1
    50   26   54 1
    51   27   28 1
    52   27   55 1
    53   27   56 1
    54   28   29 1
    55   28   30 2
    56   30   31 1
    57   31   35 1
    58   31   32 2
    59   32   33 1
    60   33   34 2
    61   33   57 1
    62   34   35 1
    63   34   58 1
@<TRIPOS>MOLECULE
ZINC28824594
   32    34     0     0     0
SMALL
USER_CHARGES
4-(6-bromo-3H-imidazo[4,5-b]pyridin-2-yl)-N,N-dimethyl-aniline
@<TRIPOS>ATOM
      1 C1         -9.6497    1.1342   -0.0056 C.3       1 <0>         0.0801
      2 N1         -8.9297    2.4101   -0.0010 N.pl3     1 <0>        -0.6280
      3 C2         -9.6746    3.6716   -0.0034 C.3       1 <0>         0.0792
      4 C3         -7.5363    2.4237    0.0056 C.ar      1 <0>         0.2433
      5 C4         -6.8303    1.2251    0.0079 C.ar      1 <0>        -0.2046
      6 C5         -5.4531    1.2354    0.0140 C.ar      1 <0>        -0.0405
      7 C6         -4.7653    2.4511    0.0184 C.ar      1 <0>        -0.1132
      8 C7         -5.4769    3.6529    0.0224 C.ar      1 <0>        -0.0053
      9 C8         -6.8540    3.6361    0.0104 C.ar      1 <0>        -0.2060
     10 C9         -3.2880    2.4655    0.0249 C.2       1 <0>         0.3686
     11 N2         -2.5109    3.5938    0.0424 N.2       1 <0>        -0.4820
     12 H1         -2.7854    0.3323    0.0131 H         1 <0>         0.4544
     13 C10        -1.1933    3.1857    0.0291 C.ar      1 <0>         0.2680
     14 C11        -1.2225    1.7784    0.0174 C.ar      1 <0>        -0.0297
     15 N3         -2.5230    1.4005    0.0180 N.pl3     1 <0>        -0.5559
     16 C12        -0.0126    1.0758    0.0080 C.ar      1 <0>        -0.0104
     17 C13         1.1640    1.8024    0.0097 C.ar      1 <0>        -0.1557
     18 C14         1.1119    3.1878    0.0169 C.ar      1 <0>         0.1730
     19 N4         -0.0383    3.8308    0.0259 N.ar      1 <0>        -0.4385
     20 Br1         2.8325    0.9126   -0.0041 Br        1 <0>        -0.0223
     21 H2         -8.9267    0.3052   -0.0029 H         1 <0>         0.0816
     22 H3        -10.2772    1.0706   -0.9067 H         1 <0>         0.0600
     23 H4        -10.2857    1.0690    0.8895 H         1 <0>         0.0601
     24 H5         -8.9680    4.5146    0.0007 H         1 <0>         0.0838
     25 H6        -10.3118    3.7228    0.8918 H         1 <0>         0.0603
     26 H7        -10.3033    3.7244   -0.9045 H         1 <0>         0.0603
     27 H8         -7.3628    0.2854    0.0045 H         1 <0>         0.1334
     28 H9         -4.9056    0.3046    0.0158 H         1 <0>         0.1206
     29 H10        -4.9478    4.5943    0.0306 H         1 <0>         0.1416
     30 H11        -7.4049    4.5652    0.0086 H         1 <0>         0.1352
     31 H12         0.0170    0.0762    0.0067 H         1 <0>         0.1319
     32 H13         1.9709    3.6998    0.0150 H         1 <0>         0.1566
@<TRIPOS>BOND
     1    1    2 1
     2    1   21 1
     3    1   22 1
     4    1   23 1
     5    2    3 1
     6    2    4 1
     7    3   24 1
     8    3   25 1
     9    3   26 1
    10    4    9 ar
    11    4    5 ar
    12    5    6 ar
    13    5   27 1
    14    6    7 ar
    15    6   28 1
    16    7    8 ar
    17    7   10 1
    18    8    9 ar
    19    8   29 1
    20    9   30 1
    21   10   15 1
    22   10   11 2
    23   11   13 1
    24   12   15 1
    25   13   14 ar
    26   13   19 ar
    27   14   16 ar
    28   14   15 1
    29   16   17 ar
    30   16   31 1
    31   17   18 ar
    32   17   20 1
    33   18   32 1
    34   18   19 ar
@<TRIPOS>MOLECULE
ZINC18230030
   32    35     0     0     0
SMALL
USER_CHARGES

@<TRIPOS>ATOM
      1 C1         -0.0024    1.3636   -0.3852 C.ar      1 <0>        -0.1425
      2 C2          1.1843    2.0764   -0.3355 C.ar      1 <0>        -0.0866
      3 C3          2.3918    1.4233   -0.1939 C.ar      1 <0>        -0.1380
      4 C4          2.4281    0.0365   -0.0988 C.ar      1 <0>         0.1367
      5 C5          1.2250   -0.6816   -0.1490 C.ar      1 <0>        -0.0800
      6 C6          0.0127   -0.0131   -0.2925 C.ar      1 <0>        -0.0826
      7 C7          1.5867   -2.1097   -0.0238 C.2       1 <0>        -0.2056
      8 C8          0.7284   -3.2007   -0.0213 C.2       1 <0>         0.2986
      9 C9         -0.7457   -3.1540    0.0907 C.2       1 <0>         0.1829
     10 N1         -1.5003   -2.0946    0.2062 N.2       1 <0>        -0.2631
     11 O1         -2.9062   -2.2339    0.3026 O.3       1 <0>        -0.3834
     12 C10        -1.1809   -4.5701    0.0427 C.ar      1 <0>        -0.1642
     13 C11        -2.4307   -5.1782    0.1013 C.ar      1 <0>        -0.0259
     14 C12        -2.5280   -6.5532    0.0311 C.ar      1 <0>        -0.1512
     15 C13        -1.3849   -7.3243   -0.0969 C.ar      1 <0>        -0.0586
     16 C14        -0.1407   -6.7311   -0.1555 C.ar      1 <0>        -0.1447
     17 C15        -0.0228   -5.3458   -0.0871 C.ar      1 <0>         0.1647
     18 N2          1.0909   -4.5168   -0.1279 N.pl3     1 <0>        -0.6175
     19 C16         3.0493   -2.1247    0.0967 C.2       1 <0>         0.5684
     20 O2          3.7472   -3.1157    0.2192 O.2       1 <0>        -0.5230
     21 N3          3.4842   -0.8541    0.0471 N.am      1 <0>        -0.6490
     22 H1         -0.9413    1.8865   -0.4922 H         1 <0>         0.1273
     23 H2          1.1645    3.1537   -0.4088 H         1 <0>         0.1294
     24 H3          3.3103    1.9903   -0.1572 H         1 <0>         0.1266
     25 H4         -0.9122   -0.5695   -0.3311 H         1 <0>         0.1639
     26 H5         -3.3798   -1.3948    0.3850 H         1 <0>         0.4132
     27 H6         -3.3218   -4.5764    0.2018 H         1 <0>         0.1385
     28 H7         -3.4969   -7.0283    0.0763 H         1 <0>         0.1358
     29 H8         -1.4681   -8.3998   -0.1510 H         1 <0>         0.1377
     30 H9          0.7438   -7.3428   -0.2549 H         1 <0>         0.1344
     31 H10         2.0048   -4.8291   -0.2181 H         1 <0>         0.4389
     32 H11         4.4164   -0.5923    0.1057 H         1 <0>         0.4189
@<TRIPOS>BOND
     1    1    6 ar
     2    1    2 ar
     3    1   22 1
     4    2    3 ar
     5    2   23 1
     6    3    4 ar
     7    3   24 1
     8    4   21 1
     9    4    5 ar
    10    5    6 ar
    11    5    7 1
    12    6   25 1
    13    7    8 2
    14    7   19 1
    15    8   18 1
    16    8    9 1
    17    9   10 2
    18    9   12 1
    19   10   11 1
    20   11   26 1
    21   12   17 ar
    22   12   13 ar
    23   13   14 ar
    24   13   27 1
    25   14   15 ar
    26   14   28 1
    27   15   16 ar
    28   15   29 1
    29   16   17 ar
    30   16   30 1
    31   17   18 1
    32   18   31 1
    33   19   20 2
    34   19   21 am
    35   21   32 1
@<TRIPOS>MOLECULE
ZINC18230030
   32    35     0     0     0
SMALL
USER_CHARGES

@<TRIPOS>ATOM
      1 C1         -0.0166    1.3748    0.0096 C.ar      1 <0>        -0.1225
      2 C2          1.1716    2.0888    0.0021 C.ar      1 <0>        -0.0962
      3 C3          2.3849    1.4332   -0.0130 C.ar      1 <0>        -0.1155
      4 C4          2.4239    0.0437   -0.0209 C.ar      1 <0>         0.0981
      5 C5          1.2204   -0.6769   -0.0133 C.ar      1 <0>        -0.0528
      6 C6          0.0021   -0.0041    0.0020 C.ar      1 <0>        -0.0805
      7 C7          1.5974   -2.1049   -0.0246 C.2       1 <0>        -0.2093
      8 C8          2.9936   -2.1364   -0.0381 C.2       1 <0>         0.3333
      9 N1          3.4675   -0.8669   -0.0358 N.pl3     1 <0>        -0.5789
     10 H1          4.4078   -0.6287   -0.0438 H         1 <0>         0.4230
     11 O1          3.7505   -3.2537   -0.0509 O.3       1 <0>        -0.4537
     12 C9          0.7262   -3.2100   -0.0222 C.2       1 <0>         0.3448
     13 C10         0.1967   -3.8930    1.1657 C.2       1 <0>        -0.1671
     14 C11        -0.6625   -4.9778    0.6376 C.ar      1 <0>        -0.0626
     15 C12        -1.4332   -5.9613    1.2492 C.ar      1 <0>        -0.0741
     16 C13        -2.1438   -6.8553    0.4745 C.ar      1 <0>        -0.1171
     17 C14        -2.0895   -6.7734   -0.9072 C.ar      1 <0>        -0.1048
     18 C15        -1.3281   -5.8025   -1.5238 C.ar      1 <0>        -0.1132
     19 C16        -0.6049   -4.8915   -0.7591 C.ar      1 <0>         0.0632
     20 N2          0.2180   -3.8346   -1.1211 N.pl3     1 <0>        -0.5424
     21 H2          0.4086   -3.5762   -2.0364 H         1 <0>         0.4251
     22 N3          0.4346   -3.6041    2.4257 N.2       1 <0>        -0.2807
     23 O2         -0.0801   -4.2653    3.3097 O.2       1 <0>         0.0258
     24 H3         -0.9601    1.9001    0.0260 H         1 <0>         0.1313
     25 H4          1.1469    3.1685    0.0078 H         1 <0>         0.1340
     26 H5          3.3046    1.9993   -0.0191 H         1 <0>         0.1285
     27 H6         -0.9243   -0.5592    0.0083 H         1 <0>         0.1229
     28 H7          3.9627   -3.5749   -0.9380 H         1 <0>         0.4047
     29 H8         -1.4750   -6.0251    2.3265 H         1 <0>         0.1455
     30 H9         -2.7428   -7.6202    0.9462 H         1 <0>         0.1335
     31 H10        -2.6482   -7.4764   -1.5072 H         1 <0>         0.1325
     32 H11        -1.2933   -5.7487   -2.6019 H         1 <0>         0.1251
@<TRIPOS>BOND
     1    1    6 ar
     2    1    2 ar
     3    1   24 1
     4    2    3 ar
     5    2   25 1
     6    3    4 ar
     7    3   26 1
     8    4    9 1
     9    4    5 ar
    10    5    6 ar
    11    5    7 1
    12    6   27 1
    13    7    8 2
    14    7   12 1
    15    8    9 1
    16    8   11 1
    17    9   10 1
    18   11   28 1
    19   12   20 1
    20   12   13 2
    21   13   14 1
    22   13   22 1
    23   14   19 ar
    24   14   15 ar
    25   15   16 ar
    26   15   29 1
    27   16   17 ar
    28   16   30 1
    29   17   18 ar
    30   17   31 1
    31   18   19 ar
    32   18   32 1
    33   19   20 1
    34   20   21 1
    35   22   23 2
@<TRIPOS>MOLECULE
ZINC18230030
   32    35     0     0     0
SMALL
USER_CHARGES

@<TRIPOS>ATOM
      1 C1         -0.0166    1.3757    0.0096 C.ar      1 <0>        -0.1357
      2 C2          1.1722    2.0867    0.0021 C.ar      1 <0>        -0.0871
      3 C3          2.3853    1.4289   -0.0135 C.ar      1 <0>        -0.1330
      4 C4          2.4252    0.0389   -0.0214 C.ar      1 <0>         0.1465
      5 C5          1.2200   -0.6774   -0.0133 C.ar      1 <0>        -0.0875
      6 C6          0.0021   -0.0041    0.0020 C.ar      1 <0>        -0.0793
      7 C7          1.5867   -2.1097   -0.0238 C.2       1 <0>        -0.2136
      8 C8          0.7284   -3.2007   -0.0213 C.2       1 <0>         0.3077
      9 C9          1.1246   -4.6257   -0.0260 C.2       1 <0>         0.1435
     10 N1          2.3359   -5.1133   -0.0337 N.2       1 <0>        -0.2047
     11 O1          2.5348   -6.5152   -0.0374 O.3       1 <0>        -0.3879
     12 C10        -0.1511   -5.3804   -0.0197 C.ar      1 <0>        -0.1524
     13 C11        -0.4460   -6.7399   -0.0207 C.ar      1 <0>        -0.0325
     14 C12        -1.7620   -7.1560   -0.0139 C.ar      1 <0>        -0.1476
     15 C13        -2.7850   -6.2226   -0.0067 C.ar      1 <0>        -0.0650
     16 C14        -2.5032   -4.8720   -0.0061 C.ar      1 <0>        -0.1436
     17 C15        -1.1821   -4.4335   -0.0119 C.ar      1 <0>         0.1573
     18 N2         -0.6401   -3.1547   -0.0078 N.pl3     1 <0>        -0.6231
     19 C16         3.0542   -2.1288   -0.0380 C.2       1 <0>         0.5661
     20 O2          3.7569   -3.1240   -0.0505 O.2       1 <0>        -0.4814
     21 N3          3.4872   -0.8566   -0.0360 N.am      1 <0>        -0.6546
     22 H1         -0.9596    1.9020    0.0260 H         1 <0>         0.1299
     23 H2          1.1495    3.1665    0.0081 H         1 <0>         0.1317
     24 H3          3.3053    1.9946   -0.0200 H         1 <0>         0.1287
     25 H4         -0.9244   -0.5591    0.0079 H         1 <0>         0.1145
     26 H5          3.4646   -6.7806   -0.0431 H         1 <0>         0.4151
     27 H6          0.3522   -7.4674   -0.0270 H         1 <0>         0.1376
     28 H7         -1.9942   -8.2107   -0.0147 H         1 <0>         0.1348
     29 H8         -3.8126   -6.5549   -0.0018 H         1 <0>         0.1367
     30 H9         -3.3094   -4.1534   -0.0008 H         1 <0>         0.1326
     31 H10        -1.1620   -2.3371    0.0014 H         1 <0>         0.4278
     32 H11         4.4217   -0.5969   -0.0438 H         1 <0>         0.4186
@<TRIPOS>BOND
     1    1    6 ar
     2    1    2 ar
     3    1   22 1
     4    2    3 ar
     5    2   23 1
     6    3    4 ar
     7    3   24 1
     8    4   21 1
     9    4    5 ar
    10    5    6 ar
    11    5    7 1
    12    6   25 1
    13    7    8 2
    14    7   19 1
    15    8   18 1
    16    8    9 1
    17    9   10 2
    18    9   12 1
    19   10   11 1
    20   11   26 1
    21   12   17 ar
    22   12   13 ar
    23   13   14 ar
    24   13   27 1
    25   14   15 ar
    26   14   28 1
    27   15   16 ar
    28   15   29 1
    29   16   17 ar
    30   16   30 1
    31   17   18 1
    32   18   31 1
    33   19   20 2
    34   19   21 am
    35   21   32 1
@<TRIPOS>MOLECULE
ZINC06718723
   66    70     0     0     0
SMALL
USER_CHARGES
N-[3-(2-methoxy-2-phenyl-acetyl)-3,6,7-triazabicyclo[3.3.0]octa-7,9-dien-8-yl]-4-(4-methylpiperazin-1-yl)-benzamide
@<TRIPOS>ATOM
      1 C1          1.1558   -2.3183    1.2595 C.3       1 <0>        -0.0410
      2 C2          0.9823   -1.8889   -1.1176 C.3       1 <0>         0.0017
      3 C3          0.2156   -1.0925   -2.1760 C.3       1 <0>         0.0172
      4 N1          0.3983    0.3450   -1.9314 N.pl3     1 <0>        -0.4879
      5 C4         -0.0890    0.7150   -0.5952 C.3       1 <0>         0.0240
      6 C5          0.6778   -0.0814    0.4632 C.3       1 <0>         0.0014
      7 C6         -0.2262    1.1016   -2.9168 C.ar      1 <0>         0.1171
      8 C7         -0.9021    0.4673   -3.9555 C.ar      1 <0>        -0.1703
      9 C8         -1.5254    1.2132   -4.9296 C.ar      1 <0>        -0.0557
     10 C9         -1.4706    2.6093   -4.8809 C.ar      1 <0>        -0.1394
     11 C10        -0.7865    3.2432   -3.8393 C.ar      1 <0>        -0.0271
     12 C11        -0.1695    2.4917   -2.8657 C.ar      1 <0>        -0.1357
     13 C12        -2.1335    3.4119   -5.9259 C.2       1 <0>         0.5511
     14 O1         -2.0854    4.6262   -5.8820 O.2       1 <0>        -0.4789
     15 N2         -2.7926    2.7993   -6.9293 N.am      1 <0>        -0.6348
     16 C13        -3.4223    3.5616   -7.9218 C.2       1 <0>         0.3339
     17 C14        -4.1411    3.0562   -9.0204 C.2       1 <0>        -0.2838
     18 C15        -4.5895    4.1057   -9.7400 C.2       1 <0>         0.0781
     19 N3         -4.1745    5.2373   -9.1268 N.pl3     1 <0>        -0.4408
     20 H1         -4.3540    6.1718   -9.4341 H         1 <0>         0.4547
     21 N4         -3.4495    4.8713   -7.9863 N.2       1 <0>        -0.2469
     22 C16        -5.3666    3.6009  -10.9294 C.3       1 <0>         0.1723
     23 N5         -5.3544    2.1345  -10.8740 N.am      1 <0>        -0.6108
     24 C17        -4.5861    1.7737   -9.6769 C.3       1 <0>         0.1946
     25 C18        -5.9338    1.2878  -11.7480 C.2       1 <0>         0.5509
     26 O2         -5.7715    0.0915  -11.6318 O.2       1 <0>        -0.4985
     27 C19        -6.7834    1.8276  -12.8695 C.3       1 <0>         0.1225
     28 H2         -7.5012    2.5436  -12.4694 H         1 <0>         0.0950
     29 C20        -5.9023    2.5122  -13.8825 C.ar      1 <0>        -0.1245
     30 C21        -5.1414    1.7597  -14.7575 C.ar      1 <0>        -0.0827
     31 C22        -4.3365    2.3877  -15.6895 C.ar      1 <0>        -0.1181
     32 C23        -4.2853    3.7682  -15.7402 C.ar      1 <0>        -0.1071
     33 C24        -5.0426    4.5207  -14.8620 C.ar      1 <0>        -0.1205
     34 C25        -5.8508    3.8927  -13.9329 C.ar      1 <0>        -0.1134
     35 O3         -7.4835    0.7514  -13.4972 O.3       1 <0>        -0.3511
     36 C26        -8.7453    1.1252  -14.0539 C.3       1 <0>         0.0270
     37 H3          2.2318   -2.1485    1.2201 H         1 <0>         0.1249
     38 H4          0.7771   -2.0242    2.2384 H         1 <0>         0.1237
     39 H5          0.9484   -3.3752    1.0921 H         1 <0>         0.1236
     40 H6          0.8246   -2.9552   -1.2798 H         1 <0>         0.1394
     41 H7          2.0461   -1.6632   -1.1925 H         1 <0>         0.1411
     42 H8          0.5953   -1.3440   -3.1663 H         1 <0>         0.1318
     43 H9         -0.8447   -1.3391   -2.1193 H         1 <0>         0.0745
     44 H10         0.0688    1.7813   -0.4330 H         1 <0>         0.1307
     45 H11        -1.1527    0.4893   -0.5207 H         1 <0>         0.0727
     46 H12         1.7380    0.1652    0.4065 H         1 <0>         0.1415
     47 H13         0.2983    0.1704    1.4535 H         1 <0>         0.1395
     48 H14        -0.9409   -0.6113   -3.9946 H         1 <0>         0.1361
     49 H15        -2.0533    0.7206   -5.7327 H         1 <0>         0.1339
     50 H16        -0.7428    4.3215   -3.7987 H         1 <0>         0.1475
     51 H17         0.3591    2.9807   -2.0608 H         1 <0>         0.1377
     52 H18        -2.8310    1.8307   -6.9643 H         1 <0>         0.4200
     53 H19        -4.8943    3.9403  -11.8513 H         1 <0>         0.1019
     54 H20        -6.3933    3.9643  -10.8842 H         1 <0>         0.0943
     55 H21        -3.7159    1.1817   -9.9601 H         1 <0>         0.0792
     56 H22        -5.2131    1.2048   -8.9904 H         1 <0>         0.0792
     57 H23        -5.1783    0.6812  -14.7152 H         1 <0>         0.1304
     58 H24        -3.7451    1.7999  -16.3759 H         1 <0>         0.1272
     59 H25        -3.6539    4.2589  -16.4662 H         1 <0>         0.1260
     60 H26        -5.0026    5.5992  -14.9016 H         1 <0>         0.1273
     61 H27        -6.4422    4.4805  -13.2465 H         1 <0>         0.1243
     62 H28        -9.3904    1.5117  -13.2649 H         1 <0>         0.0465
     63 H29        -8.5949    1.8955  -14.8103 H         1 <0>         0.0480
     64 H30        -9.2132    0.2534  -14.5113 H         1 <0>         0.0967
     65 N6          0.4679   -1.5242    0.2191 N.4       1 <0>        -0.4004
     66 H31        -0.5381   -1.7261    0.2561 H         1 <0>         0.4278
@<TRIPOS>BOND
     1    1   37 1
     2    1   38 1
     3    1   39 1
     4    1   65 1
     5    2    3 1
     6    2   40 1
     7    2   41 1
     8    2   65 1
     9    3    4 1
    10    3   42 1
    11    3   43 1
    12    4    5 1
    13    4    7 1
    14    5    6 1
    15    5   44 1
    16    5   45 1
    17    6   46 1
    18    6   47 1
    19    6   65 1
    20    7   12 ar
    21    7    8 ar
    22    8    9 ar
    23    8   48 1
    24    9   10 ar
    25    9   49 1
    26   10   11 ar
    27   10   13 1
    28   11   12 ar
    29   11   50 1
    30   12   51 1
    31   13   14 2
    32   13   15 am
    33   15   16 1
    34   15   52 1
    35   16   21 2
    36   16   17 1
    37   17   24 1
    38   17   18 2
    39   18   19 1
    40   18   22 1
    41   19   20 1
    42   19   21 1
    43   22   23 1
    44   22   53 1
    45   22   54 1
    46   23   24 1
    47   23   25 am
    48   24   55 1
    49   24   56 1
    50   25   26 2
    51   25   27 1
    52   27   28 1
    53   27   29 1
    54   27   35 1
    55   29   34 ar
    56   29   30 ar
    57   30   31 ar
    58   30   57 1
    59   31   32 ar
    60   31   58 1
    61   32   33 ar
    62   32   59 1
    63   33   34 ar
    64   33   60 1
    65   34   61 1
    66   35   36 1
    67   36   62 1
    68   36   63 1
    69   36   64 1
    70   65   66 1
@<TRIPOS>MOLECULE
ZINC43129461
   71    74     0     0     0
SMALL
USER_CHARGES

@<TRIPOS>ATOM
      1 C1          0.1412    1.0958    0.0245 C.3       1 <0>        -0.1877
      2 C2          0.0343   -0.4072    0.2899 C.3       1 <0>        -0.0130
      3 N1         -1.3805   -0.7840    0.4090 N.4       1 <0>        -0.3814
      4 C3         -1.4799   -2.1981    0.7943 C.3       1 <0>        -0.0136
      5 C4         -0.8912   -2.3880    2.1937 C.3       1 <0>        -0.1480
      6 C5         -0.9947   -3.8608    2.5950 C.3       1 <0>         0.0597
      7 O1         -0.4449   -4.0381    3.9021 O.3       1 <0>        -0.3038
      8 C6         -0.4591   -5.2969    4.4113 C.ar      1 <0>         0.1781
      9 C7         -0.9923   -6.3430    3.6529 C.ar      1 <0>        -0.2017
     10 C8         -1.0190   -7.6149    4.1393 C.ar      1 <0>        -0.0296
     11 C9         -0.5067   -7.8812    5.4148 C.ar      1 <0>        -0.2176
     12 C10         0.0360   -6.8274    6.1915 C.ar      1 <0>         0.2265
     13 C11         0.0576   -5.5295    5.6681 C.ar      1 <0>        -0.1532
     14 N2          0.5211   -7.1085    7.4106 N.ar      1 <0>        -0.5472
     15 C12         0.4917   -8.3369    7.8711 C.ar      1 <0>         0.3522
     16 N3         -0.0047   -9.3517    7.1826 N.ar      1 <0>        -0.5832
     17 C13        -0.5099   -9.1841    5.9669 C.ar      1 <0>         0.4869
     18 N4         -1.0246  -10.2512    5.2605 N.pl3     1 <0>        -0.6010
     19 C14        -1.0183  -11.5330    5.8248 C.2       1 <0>         0.3061
     20 C15        -0.5270  -11.8723    7.0959 C.2       1 <0>        -0.2334
     21 C16        -0.7020  -13.2023    7.2669 C.2       1 <0>         0.0995
     22 N5         -1.2813  -13.6907    6.1499 N.pl3     1 <0>        -0.4600
     23 H1         -1.5240  -14.6165    5.9920 H         1 <0>         0.4395
     24 N6         -1.4756  -12.6260    5.2606 N.2       1 <0>        -0.3132
     25 C17        -0.3179  -13.9980    8.4876 C.3       1 <0>        -0.0736
     26 C18        -1.4253  -13.9203    9.5069 C.2       1 <0>         0.5124
     27 O2         -2.4277  -13.2816    9.2656 O.2       1 <0>        -0.4954
     28 N7         -1.3017  -14.5605   10.6864 N.am      1 <0>        -0.6738
     29 C19        -2.2814  -14.4046   11.6731 C.ar      1 <0>         0.1731
     30 C20        -1.9205  -14.3798   13.0142 C.ar      1 <0>        -0.1549
     31 C21        -2.8887  -14.2254   13.9867 C.ar      1 <0>        -0.0711
     32 C22        -4.2176  -14.0957   13.6276 C.ar      1 <0>        -0.1683
     33 C23        -4.5819  -14.1198   12.2917 C.ar      1 <0>         0.1190
     34 C24        -3.6151  -14.2686   11.3132 C.ar      1 <0>        -0.1590
     35 F1         -5.8812  -13.9933   11.9436 F         1 <0>        -0.1348
     36 C25        -2.0520   -0.5798   -0.8814 C.3       1 <0>        -0.0107
     37 C26        -3.5536   -0.8245   -0.7194 C.3       1 <0>         0.0927
     38 O3         -4.1052    0.1612    0.1558 O.3       1 <0>        -0.7578
     39 P1         -5.6390    0.1400    0.6447 P.3       1 <0>         2.1017
     40 O4         -6.5846    0.1017   -0.6038 O.2       1 <0>        -1.1721
     41 O5         -5.8881   -1.1299    1.5277 O.3       1 <0>        -1.1714
     42 O6         -5.9368    1.4276    1.4860 O.3       1 <0>        -1.1488
     43 H2          1.1901    1.3923    0.0315 H         1 <0>         0.0965
     44 H3         -0.2947    1.3249   -0.9479 H         1 <0>         0.0817
     45 H4         -0.3956    1.6409    0.8008 H         1 <0>         0.0844
     46 H5          0.4880   -0.9552   -0.5360 H         1 <0>         0.1221
     47 H6          0.5544   -0.6504    1.2165 H         1 <0>         0.1246
     48 H7         -2.5268   -2.5014    0.7963 H         1 <0>         0.1454
     49 H8         -0.9260   -2.8087    0.0813 H         1 <0>         0.1270
     50 H9          0.1557   -2.0846    2.1918 H         1 <0>         0.0937
     51 H10        -1.4451   -1.7773    2.9068 H         1 <0>         0.1060
     52 H11        -2.0417   -4.1641    2.5970 H         1 <0>         0.0850
     53 H12        -0.4409   -4.4714    1.8820 H         1 <0>         0.0737
     54 H13        -1.3884   -6.1401    2.6689 H         1 <0>         0.1410
     55 H14        -1.4340   -8.4146    3.5438 H         1 <0>         0.1329
     56 H15         0.4717   -4.7162    6.2456 H         1 <0>         0.1504
     57 H16         0.8909   -8.5281    8.8563 H         1 <0>         0.1983
     58 H17        -1.3909  -10.1139    4.3729 H         1 <0>         0.4265
     59 H18        -0.0875  -11.1918    7.8102 H         1 <0>         0.1855
     60 H19        -0.1551  -15.0386    8.2067 H         1 <0>         0.1119
     61 H20         0.5980  -13.5893    8.9144 H         1 <0>         0.1297
     62 H21        -0.5335  -15.1293   10.8513 H         1 <0>         0.4154
     63 H22        -0.8830  -14.4817   13.2963 H         1 <0>         0.1340
     64 H23        -2.6076  -14.2062   15.0293 H         1 <0>         0.1384
     65 H24        -4.9729  -13.9757   14.3902 H         1 <0>         0.1374
     66 H25        -3.8982  -14.2834   10.2710 H         1 <0>         0.1503
     67 H26        -1.8850    0.4427   -1.2201 H         1 <0>         0.1337
     68 H27        -1.6475   -1.2764   -1.6158 H         1 <0>         0.1254
     69 H28        -4.0395   -0.7589   -1.6929 H         1 <0>         0.0845
     70 H29        -3.7166   -1.8165   -0.2981 H         1 <0>         0.0571
     71 H30        -1.8229   -0.2118    1.1126 H         1 <0>         0.4394
@<TRIPOS>BOND
     1    1    2 1
     2    1   43 1
     3    1   44 1
     4    1   45 1
     5    2    3 1
     6    2   46 1
     7    2   47 1
     8    3    4 1
     9    3   36 1
    10    3   71 1
    11    4    5 1
    12    4   48 1
    13    4   49 1
    14    5    6 1
    15    5   50 1
    16    5   51 1
    17    6    7 1
    18    6   52 1
    19    6   53 1
    20    7    8 1
    21    8   13 ar
    22    8    9 ar
    23    9   10 ar
    24    9   54 1
    25   10   11 ar
    26   10   55 1
    27   11   17 ar
    28   11   12 ar
    29   12   13 ar
    30   12   14 ar
    31   13   56 1
    32   14   15 ar
    33   15   16 ar
    34   15   57 1
    35   16   17 ar
    36   17   18 1
    37   18   19 1
    38   18   58 1
    39   19   24 2
    40   19   20 1
    41   20   21 2
    42   20   59 1
    43   21   22 1
    44   21   25 1
    45   22   23 1
    46   22   24 1
    47   25   26 1
    48   25   60 1
    49   25   61 1
    50   26   27 2
    51   26   28 am
    52   28   29 1
    53   28   62 1
    54   29   34 ar
    55   29   30 ar
    56   30   31 ar
    57   30   63 1
    58   31   32 ar
    59   31   64 1
    60   32   33 ar
    61   32   65 1
    62   33   34 ar
    63   33   35 1
    64   34   66 1
    65   36   37 1
    66   36   67 1
    67   36   68 1
    68   37   38 1
    69   37   69 1
    70   37   70 1
    71   38   39 1
    72   39   40 2
    73   39   41 1
    74   39   42 1
@<TRIPOS>MOLECULE
ZINC43129461
   73    76     0     0     0
SMALL
USER_CHARGES

@<TRIPOS>ATOM
      1 C1          0.1409    1.0918    0.0251 C.3       1 <0>        -0.1892
      2 C2          0.0339   -0.4112    0.2906 C.3       1 <0>        -0.0152
      3 N1         -1.3809   -0.7879    0.4099 N.4       1 <0>        -0.3842
      4 C3         -1.4803   -2.2020    0.7953 C.3       1 <0>        -0.0158
      5 C4         -0.8914   -2.3919    2.1946 C.3       1 <0>        -0.1503
      6 C5         -0.9949   -3.8647    2.5959 C.3       1 <0>         0.0579
      7 O1         -0.4450   -4.0420    3.9029 O.3       1 <0>        -0.2993
      8 C6         -0.4592   -5.3008    4.4121 C.ar      1 <0>         0.1817
      9 C7         -0.9925   -6.3469    3.6538 C.ar      1 <0>        -0.1818
     10 C8         -1.0193   -7.6187    4.1402 C.ar      1 <0>        -0.0436
     11 C9         -0.5068   -7.8851    5.4157 C.ar      1 <0>        -0.1976
     12 C10         0.0362   -6.8313    6.1923 C.ar      1 <0>         0.2239
     13 C11         0.0578   -5.5334    5.6688 C.ar      1 <0>        -0.1405
     14 N2          0.5214   -7.1125    7.4113 N.ar      1 <0>        -0.5107
     15 C12         0.4920   -8.3409    7.8718 C.ar      1 <0>         0.3510
     16 N3         -0.0046   -9.3556    7.1834 N.ar      1 <0>        -0.5709
     17 C13        -0.5099   -9.1879    5.9677 C.ar      1 <0>         0.4598
     18 N4         -1.0249  -10.2553    5.2612 N.pl3     1 <0>        -0.6021
     19 C14        -1.0187  -11.5304    5.8226 C.2       1 <0>         0.4560
     20 C15        -0.5390  -11.8669    7.0517 C.2       1 <0>        -0.2320
     21 C16        -0.7243  -13.2413    7.2224 C.2       1 <0>         0.2582
     22 N5         -1.2916  -13.7195    6.1448 N.pl3     1 <0>        -0.3700
     23 N6         -1.4952  -12.6642    5.2465 N.pl3     1 <0>        -0.4476
     24 C17        -0.3360  -14.0381    8.4412 C.3       1 <0>        -0.1008
     25 C18        -1.4386  -13.9586    9.4655 C.2       1 <0>         0.5174
     26 O2         -2.4410  -13.3180    9.2291 O.2       1 <0>        -0.5061
     27 N7         -1.3107  -14.5994   10.6443 N.am      1 <0>        -0.6579
     28 C19        -2.2856  -14.4419   11.6355 C.ar      1 <0>         0.1577
     29 C20        -1.9185  -14.4182   12.9750 C.ar      1 <0>        -0.1459
     30 C21        -2.8820  -14.2623   13.9520 C.ar      1 <0>        -0.0677
     31 C22        -4.2123  -14.1302   13.5990 C.ar      1 <0>        -0.1573
     32 C23        -4.5828  -14.1533   12.2647 C.ar      1 <0>         0.1189
     33 C24        -3.6207  -14.3035   11.2818 C.ar      1 <0>        -0.1569
     34 F1         -5.8834  -14.0244   11.9227 F         1 <0>        -0.1323
     35 C25        -2.0526   -0.5836   -0.8804 C.3       1 <0>        -0.0130
     36 C26        -3.5541   -0.8283   -0.7182 C.3       1 <0>         0.1008
     37 O3         -4.1055    0.1575    0.1571 O.3       1 <0>        -0.7650
     38 P1         -5.6393    0.1364    0.6462 P.3       1 <0>         2.2015
     39 O4         -6.5720    0.0987   -0.5849 O.2       1 <0>        -1.0927
     40 O5         -5.8849   -1.1160    1.5170 O.3       1 <0>        -1.0945
     41 O6         -5.9451    1.4596    1.5109 O.3       1 <0>        -0.8978
     42 H1          1.1898    1.3882    0.0319 H         1 <0>         0.1035
     43 H2         -0.2951    1.3210   -0.9472 H         1 <0>         0.0827
     44 H3         -0.3958    1.6370    0.8015 H         1 <0>         0.0823
     45 H4          0.4874   -0.9592   -0.5353 H         1 <0>         0.1283
     46 H5          0.5541   -0.6544    1.2171 H         1 <0>         0.1288
     47 H6         -2.5272   -2.5053    0.7974 H         1 <0>         0.1420
     48 H7         -0.9266   -2.8127    0.0821 H         1 <0>         0.1333
     49 H8          0.1555   -2.0886    2.1924 H         1 <0>         0.0995
     50 H9         -1.4451   -1.7812    2.9077 H         1 <0>         0.1051
     51 H10        -2.0419   -4.1679    2.5981 H         1 <0>         0.0848
     52 H11        -0.4412   -4.4754    1.8828 H         1 <0>         0.0778
     53 H12        -1.3888   -6.1439    2.6698 H         1 <0>         0.1468
     54 H13        -1.4344   -8.4184    3.5448 H         1 <0>         0.1339
     55 H14         0.4720   -4.7201    6.2463 H         1 <0>         0.1595
     56 H15         0.8913   -8.5321    8.8569 H         1 <0>         0.2128
     57 H16        -1.3914  -10.1180    4.3736 H         1 <0>         0.4383
     58 H17        -0.0939  -11.1915    7.7674 H         1 <0>         0.2299
     59 H18        -0.1764  -15.0788    8.1593 H         1 <0>         0.1396
     60 H19         0.5826  -13.6311    8.8639 H         1 <0>         0.1633
     61 H20        -0.5428  -15.1696   10.8056 H         1 <0>         0.4210
     62 H21        -0.8799  -14.5220   13.2523 H         1 <0>         0.1376
     63 H22        -2.5961  -14.2439   14.9933 H         1 <0>         0.1439
     64 H23        -4.9639  -14.0091   14.3651 H         1 <0>         0.1423
     65 H24        -3.9087  -14.3175   10.2410 H         1 <0>         0.1477
     66 H25        -1.8856    0.4389   -1.2191 H         1 <0>         0.1423
     67 H26        -1.6482   -1.2803   -1.6148 H         1 <0>         0.1408
     68 H27        -4.0402   -0.7626   -1.6916 H         1 <0>         0.1052
     69 H28        -3.7172   -1.8203   -0.2969 H         1 <0>         0.0749
     70 H29        -6.8531    1.5139    1.8391 H         1 <0>         0.4246
     71 H30        -1.8231   -0.2157    1.1136 H         1 <0>         0.4343
     72 H31        -1.9019  -12.7316    4.3685 H         1 <0>         0.4711
     73 H32        -1.5334  -14.6468    5.9949 H         1 <0>         0.4758
@<TRIPOS>BOND
     1    1    2 1
     2    1   42 1
     3    1   43 1
     4    1   44 1
     5    2    3 1
     6    2   45 1
     7    2   46 1
     8    3    4 1
     9    3   35 1
    10    3   71 1
    11    4    5 1
    12    4   47 1
    13    4   48 1
    14    5    6 1
    15    5   49 1
    16    5   50 1
    17    6    7 1
    18    6   51 1
    19    6   52 1
    20    7    8 1
    21    8   13 ar
    22    8    9 ar
    23    9   10 ar
    24    9   53 1
    25   10   11 ar
    26   10   54 1
    27   11   17 ar
    28   11   12 ar
    29   12   13 ar
    30   12   14 ar
    31   13   55 1
    32   14   15 ar
    33   15   16 ar
    34   15   56 1
    35   16   17 ar
    36   17   18 1
    37   18   19 1
    38   18   57 1
    39   19   20 2
    40   19   23 1
    41   20   58 1
    42   20   21 1
    43   21   24 1
    44   21   22 2
    45   22   23 1
    46   22   73 1
    47   23   72 1
    48   24   25 1
    49   24   59 1
    50   24   60 1
    51   25   26 2
    52   25   27 am
    53   27   28 1
    54   27   61 1
    55   28   33 ar
    56   28   29 ar
    57   29   30 ar
    58   29   62 1
    59   30   31 ar
    60   30   63 1
    61   31   32 ar
    62   31   64 1
    63   32   33 ar
    64   32   34 1
    65   33   65 1
    66   35   36 1
    67   35   66 1
    68   35   67 1
    69   36   37 1
    70   36   68 1
    71   36   69 1
    72   37   38 1
    73   38   39 2
    74   38   40 1
    75   38   41 1
    76   41   70 1
@<TRIPOS>MOLECULE
ZINC16052730
   56    60     0     0     0
SMALL
USER_CHARGES
N-(4-chlorophenyl)-6-[(6,7-dimethoxy-4-quinolyl)oxy]naphthalene-1-carboxamide
@<TRIPOS>ATOM
      1 C1          2.6893    6.4089    4.7046 C.3       1 <0>         0.0224
      2 O1          2.2948    7.7772    4.5854 O.3       1 <0>        -0.2990
      3 C2          2.1900    8.2821    3.3272 C.ar      1 <0>         0.1299
      4 C3          2.4587    7.4829    2.2539 C.ar      1 <0>        -0.1690
      5 C4          2.3501    8.0038    0.9558 C.ar      1 <0>        -0.1013
      6 C5          2.6199    7.2065   -0.1791 C.ar      1 <0>         0.1416
      7 C6          2.4858    7.7883   -1.4274 C.ar      1 <0>        -0.1800
      8 C7          2.1014    9.1193   -1.5294 C.ar      1 <0>         0.1403
      9 N1          1.8581    9.8525   -0.4685 N.ar      1 <0>        -0.4668
     10 C8          1.9680    9.3547    0.7690 C.ar      1 <0>         0.1528
     11 C9          1.7032   10.1536    1.8937 C.ar      1 <0>        -0.1720
     12 C10         1.8065    9.6185    3.1454 C.ar      1 <0>         0.1457
     13 O2          1.5442   10.3943    4.2298 O.3       1 <0>        -0.2992
     14 C11         1.1580   11.7475    3.9813 C.3       1 <0>         0.0206
     15 O3          2.9932    5.9094   -0.0491 O.3       1 <0>        -0.2514
     16 C12         2.0160    4.9669    0.0061 C.ar      1 <0>         0.1272
     17 C13         0.6756    5.3630    0.0344 C.ar      1 <0>        -0.1711
     18 C14        -0.3245    4.4408    0.0888 C.ar      1 <0>        -0.0761
     19 C15        -0.0107    3.0747    0.1179 C.ar      1 <0>        -0.0333
     20 C16         1.3458    2.6686    0.0894 C.ar      1 <0>        -0.0239
     21 C17         2.3557    3.6437    0.0328 C.ar      1 <0>        -0.1440
     22 C18         1.6598    1.2985    0.1178 C.ar      1 <0>        -0.0725
     23 C19         0.6642    0.3695    0.1722 C.ar      1 <0>        -0.1204
     24 C20        -0.6720    0.7481    0.1954 C.ar      1 <0>        -0.0743
     25 C21        -1.0277    2.0889    0.1749 C.ar      1 <0>        -0.1205
     26 C22        -2.4478    2.4839    0.2049 C.2       1 <0>         0.5656
     27 O4         -2.7561    3.6543    0.0854 O.2       1 <0>        -0.5074
     28 N2         -3.4044    1.5480    0.3648 N.am      1 <0>        -0.6646
     29 C23        -4.7402    1.9327    0.5207 C.ar      1 <0>         0.1524
     30 C24        -5.0479    3.1782    1.0527 C.ar      1 <0>        -0.1162
     31 C25        -6.3676    3.5576    1.2007 C.ar      1 <0>        -0.0870
     32 C26        -7.3829    2.6934    0.8301 C.ar      1 <0>        -0.0520
     33 C27        -7.0792    1.4497    0.3046 C.ar      1 <0>        -0.0872
     34 C28        -5.7612    1.0676    0.1492 C.ar      1 <0>        -0.1366
     35 Cl1        -9.0408    3.1706    1.0241 Cl        1 <0>        -0.0681
     36 H1          2.7339    6.1341    5.7584 H         1 <0>         0.1067
     37 H2          1.9633    5.7758    4.1944 H         1 <0>         0.0576
     38 H3          3.6714    6.2731    4.2517 H         1 <0>         0.0591
     39 H4          2.7532    6.4546    2.4031 H         1 <0>         0.1459
     40 H5          2.6796    7.2101   -2.3188 H         1 <0>         0.1476
     41 H6          2.0003    9.5631   -2.5088 H         1 <0>         0.1693
     42 H7          1.4071   11.1846    1.7681 H         1 <0>         0.1552
     43 H8          1.9544   12.2592    3.4408 H         1 <0>         0.0611
     44 H9          0.2464   11.7613    3.3840 H         1 <0>         0.0611
     45 H10         0.9788   12.2541    4.9296 H         1 <0>         0.1066
     46 H11         0.4301    6.4145    0.0125 H         1 <0>         0.1293
     47 H12        -1.3558    4.7605    0.1095 H         1 <0>         0.1742
     48 H13         3.3945    3.3491    0.0101 H         1 <0>         0.1420
     49 H14         2.6921    0.9816    0.0960 H         1 <0>         0.1370
     50 H15         0.9186   -0.6799    0.1931 H         1 <0>         0.1357
     51 H16        -1.4415   -0.0087    0.2344 H         1 <0>         0.1287
     52 H17        -3.1665    0.6077    0.3717 H         1 <0>         0.4133
     53 H18        -4.2559    3.8512    1.3461 H         1 <0>         0.1517
     54 H19        -6.6074    4.5277    1.6101 H         1 <0>         0.1381
     55 H20        -7.8735    0.7775    0.0156 H         1 <0>         0.1390
     56 H21        -5.5247    0.0970   -0.2613 H         1 <0>         0.1362
@<TRIPOS>BOND
     1    1    2 1
     2    1   36 1
     3    1   37 1
     4    1   38 1
     5    2    3 1
     6    3   12 ar
     7    3    4 ar
     8    4    5 ar
     9    4   39 1
    10    5   10 ar
    11    5    6 ar
    12    6    7 ar
    13    6   15 1
    14    7    8 ar
    15    7   40 1
    16    8    9 ar
    17    8   41 1
    18    9   10 ar
    19   10   11 ar
    20   11   12 ar
    21   11   42 1
    22   12   13 1
    23   13   14 1
    24   14   43 1
    25   14   44 1
    26   14   45 1
    27   15   16 1
    28   16   21 ar
    29   16   17 ar
    30   17   18 ar
    31   17   46 1
    32   18   19 ar
    33   18   47 1
    34   19   25 ar
    35   19   20 ar
    36   20   21 ar
    37   20   22 ar
    38   21   48 1
    39   22   23 ar
    40   22   49 1
    41   23   24 ar
    42   23   50 1
    43   24   25 ar
    44   24   51 1
    45   25   26 1
    46   26   27 2
    47   26   28 am
    48   28   29 1
    49   28   52 1
    50   29   34 ar
    51   29   30 ar
    52   30   31 ar
    53   30   53 1
    54   31   32 ar
    55   31   54 1
    56   32   33 ar
    57   32   35 1
    58   33   34 ar
    59   33   55 1
    60   34   56 1
@<TRIPOS>MOLECULE
ZINC28714095
   62    67     0     0     0
SMALL
USER_CHARGES
N-(4-hydroxycyclohexyl)-3-[4-(4-hydroxyphenyl)phenyl]-1,4-dihydroindeno[1,2-c]pyrazole-6-carboxamide
@<TRIPOS>ATOM
      1 C1          3.5844    5.3599    0.6882 C.ar      1 <0>        -0.1162
      2 C2          2.7790    4.2424    0.6905 C.ar      1 <0>        -0.0841
      3 C3          1.5622    4.2586    0.0100 C.ar      1 <0>        -0.0212
      4 C4          1.1626    5.4041   -0.6770 C.ar      1 <0>        -0.0865
      5 C5          1.9651    6.5238   -0.6747 C.ar      1 <0>        -0.1157
      6 C6          3.1825    6.5077    0.0055 C.ar      1 <0>        -0.0241
      7 C7          4.0496    7.7106    0.0025 C.ar      1 <0>        -0.0946
      8 C8          5.2644    7.6977    0.6864 C.ar      1 <0>        -0.0643
      9 C9          6.0710    8.8161    0.6773 C.ar      1 <0>        -0.1614
     10 C10         5.6695    9.9578   -0.0032 C.ar      1 <0>         0.1615
     11 C11         4.4576    9.9757   -0.6805 C.ar      1 <0>        -0.2135
     12 C12         3.6490    8.8587   -0.6796 C.ar      1 <0>        -0.0653
     13 O1          6.4640   11.0600   -0.0060 O.3       1 <0>        -0.5096
     14 C13         0.6953    3.0545    0.0118 C.2       1 <0>         0.1379
     15 C14        -0.7085    3.0512    0.0252 C.2       1 <0>        -0.2195
     16 C15        -1.1284    1.7549    0.0163 C.2       1 <0>         0.0808
     17 N1         -0.0111    0.9658    0.0074 N.pl3     1 <0>        -0.4626
     18 H1         -0.1114   -0.1296    0.0063 H         1 <0>         0.4717
     19 N2          1.1102    1.8043    0.0011 N.2       1 <0>        -0.2432
     20 C16        -2.6056    1.6992    0.0365 C.ar      1 <0>        -0.0084
     21 C17        -3.4888    0.6134    0.0396 C.ar      1 <0>        -0.1023
     22 C18        -4.8373    0.8246    0.0544 C.ar      1 <0>        -0.0849
     23 C19        -5.3474    2.1258    0.0666 C.ar      1 <0>        -0.1225
     24 C20        -4.4711    3.2158    0.0635 C.ar      1 <0>        -0.0369
     25 C21        -3.1147    2.9996    0.0486 C.ar      1 <0>        -0.0767
     26 C22        -1.9313    3.9361    0.0421 C.3       1 <0>        -0.0125
     27 C23        -6.8069    2.3490    0.0821 C.2       1 <0>         0.5615
     28 O2         -7.2486    3.4817    0.0922 O.2       1 <0>        -0.5345
     29 N3         -7.6495    1.2971    0.0850 N.am      1 <0>        -0.7348
     30 C24        -9.0976    1.5185    0.1004 C.3       1 <0>         0.1464
     31 C25        -9.5685    1.7125    1.5431 C.3       1 <0>        -0.1253
     32 C26       -11.0808    1.9438    1.5592 C.3       1 <0>        -0.1105
     33 C27       -11.7886    0.7317    0.9503 C.3       1 <0>         0.1144
     34 C28       -11.3177    0.5377   -0.4924 C.3       1 <0>        -0.1470
     35 C29        -9.8053    0.3064   -0.5085 C.3       1 <0>        -0.1233
     36 O3        -13.2011    0.9477    0.9653 O.3       1 <0>        -0.6016
     37 H2          4.5270    5.3474    1.2153 H         1 <0>         0.1290
     38 H3          3.0902    3.3536    1.2192 H         1 <0>         0.1283
     39 H4          0.2219    5.4151   -1.2075 H         1 <0>         0.1279
     40 H5          1.6538    7.4124   -1.2038 H         1 <0>         0.1294
     41 H6          5.5752    6.8114    1.2197 H         1 <0>         0.1327
     42 H7          7.0140    8.8054    1.2035 H         1 <0>         0.1310
     43 H8          4.1481   10.8652   -1.2090 H         1 <0>         0.1292
     44 H9          2.7063    8.8733   -1.2063 H         1 <0>         0.1287
     45 H10         6.1470   11.9651   -0.5448 H         1 <0>         0.4351
     46 H11        -3.1021   -0.3949    0.0307 H         1 <0>         0.1297
     47 H12        -5.5133   -0.0177    0.0564 H         1 <0>         0.1313
     48 H13        -4.8594    4.2236    0.0725 H         1 <0>         0.1443
     49 H14        -1.9155    4.5662    0.9436 H         1 <0>         0.1042
     50 H15        -1.9332    4.5761   -0.8525 H         1 <0>         0.1025
     51 H16        -7.2499    0.2723    0.0758 H         1 <0>         0.4168
     52 H17        -9.2940    2.4217   -0.4960 H         1 <0>         0.0915
     53 H18        -9.3287    0.8142    2.1310 H         1 <0>         0.0672
     54 H19        -9.0596    2.5839    1.9809 H         1 <0>         0.0759
     55 H20       -11.4194    2.0833    2.5965 H         1 <0>         0.0731
     56 H21       -11.3206    2.8421    0.9713 H         1 <0>         0.0734
     57 H22       -11.6171   -0.1737    1.5510 H         1 <0>         0.0508
     58 H23       -11.8266   -0.3337   -0.9301 H         1 <0>         0.0704
     59 H24       -11.5576    1.4359   -1.0803 H         1 <0>         0.0750
     60 H25        -9.4667    0.1670   -1.5457 H         1 <0>         0.0738
     61 H26        -9.5654   -0.5918    0.0794 H         1 <0>         0.0709
     62 H27       -13.8793    0.1795    0.5654 H         1 <0>         0.4066
@<TRIPOS>BOND
     1    1    6 ar
     2    1    2 ar
     3    1   37 1
     4    2    3 ar
     5    2   38 1
     6    3    4 ar
     7    3   14 1
     8    4    5 ar
     9    4   39 1
    10    5    6 ar
    11    5   40 1
    12    6    7 1
    13    7   12 ar
    14    7    8 ar
    15    8    9 ar
    16    8   41 1
    17    9   10 ar
    18    9   42 1
    19   10   11 ar
    20   10   13 1
    21   11   12 ar
    22   11   43 1
    23   12   44 1
    24   13   45 1
    25   14   19 2
    26   14   15 1
    27   15   26 1
    28   15   16 2
    29   16   17 1
    30   16   20 1
    31   17   18 1
    32   17   19 1
    33   20   25 ar
    34   20   21 ar
    35   21   22 ar
    36   21   46 1
    37   22   23 ar
    38   22   47 1
    39   23   24 ar
    40   23   27 1
    41   24   25 ar
    42   24   48 1
    43   25   26 1
    44   26   49 1
    45   26   50 1
    46   27   28 2
    47   27   29 am
    48   29   30 1
    49   29   51 1
    50   30   35 1
    51   30   31 1
    52   30   52 1
    53   31   32 1
    54   31   53 1
    55   31   54 1
    56   32   33 1
    57   32   55 1
    58   32   56 1
    59   33   34 1
    60   33   36 1
    61   33   57 1
    62   34   35 1
    63   34   58 1
    64   34   59 1
    65   35   60 1
    66   35   61 1
    67   36   62 1
