@<TRIPOS>MOLECULE
ZINC29464717
   76    79     0     0     0
SMALL
USER_CHARGES
N-[4-(2-tert-butylphenyl)sulfonylphenyl]-2,3,4-trihydroxy-5-[(2-isopropylphenyl)methyl]benzamide
@<TRIPOS>ATOM
      1 C1         -1.0845   12.3592   -3.9933 C.3       1 <0>        -0.1475
      2 C2          0.2256   12.3787   -4.7834 C.3       1 <0>        -0.0654
      3 C3          0.0622   11.5549   -6.0623 C.3       1 <0>        -0.1471
      4 C4          0.5745   13.8001   -5.1425 C.ar      1 <0>        -0.0690
      5 C5         -0.3164   14.5681   -5.8690 C.ar      1 <0>        -0.1162
      6 C6          0.0035   15.8719   -6.1980 C.ar      1 <0>        -0.1199
      7 C7          1.2143   16.4080   -5.8007 C.ar      1 <0>        -0.1275
      8 C8          2.1033   15.6414   -5.0711 C.ar      1 <0>        -0.1002
      9 C9          1.7854   14.3357   -4.7461 C.ar      1 <0>        -0.0769
     10 C10         2.7565   13.4985   -3.9542 C.3       1 <0>        -0.0299
     11 C11         2.3914   13.5526   -2.4931 C.ar      1 <0>        -0.1250
     12 C12         1.7485   12.4857   -1.9075 C.ar      1 <0>        -0.0385
     13 C13         1.4036   12.5340   -0.5530 C.ar      1 <0>        -0.1933
     14 C14         1.7247   13.6681    0.2071 C.ar      1 <0>         0.2326
     15 C15         2.3776   14.7358   -0.3923 C.ar      1 <0>        -0.0458
     16 C16         2.7104   14.6776   -1.7411 C.ar      1 <0>         0.1514
     17 O1          3.3499   15.7234   -2.3259 O.3       1 <0>        -0.4805
     18 O2          2.6926   15.8391    0.3398 O.3       1 <0>        -0.5028
     19 O3          1.3985   13.7209    1.5240 O.3       1 <0>        -0.4668
     20 C17         0.7111   11.3955    0.0744 C.2       1 <0>         0.5713
     21 O4          0.4166   11.4377    1.2537 O.2       1 <0>        -0.4934
     22 N1          0.4037   10.3069   -0.6584 N.am      1 <0>        -0.6902
     23 C18        -0.3605    9.2789   -0.0968 C.ar      1 <0>         0.2217
     24 C19        -0.1324    7.9600   -0.4675 C.ar      1 <0>        -0.1686
     25 C20        -0.8884    6.9472    0.0892 C.ar      1 <0>        -0.0081
     26 C21        -1.8717    7.2451    1.0149 C.ar      1 <0>        -0.6774
     27 C22        -2.1051    8.5578    1.3819 C.ar      1 <0>         0.0014
     28 C23        -1.3488    9.5747    0.8331 C.ar      1 <0>        -0.1437
     29 S1         -2.8340    5.9500    1.7228 S.o2      1 <0>         2.5394
     30 O5         -2.5157    4.7672    1.0024 O.2       1 <0>        -0.8798
     31 O6         -4.1625    6.4428    1.8292 O.2       1 <0>        -0.9337
     32 C24        -2.2529    5.7090    3.3686 C.ar      1 <0>        -0.6474
     33 C25        -2.5602    6.6308    4.3522 C.ar      1 <0>        -0.0180
     34 C26        -2.0996    6.4448    5.6419 C.ar      1 <0>        -0.1457
     35 C27        -1.3358    5.3341    5.9497 C.ar      1 <0>        -0.0570
     36 C28        -1.0330    4.4099    4.9677 C.ar      1 <0>        -0.1452
     37 C29        -1.4938    4.5961    3.6775 C.ar      1 <0>         0.0393
     38 C30        -1.1632    3.5886    2.6067 C.3       1 <0>        -0.0357
     39 C31        -0.1931    2.5472    3.1681 C.3       1 <0>        -0.1451
     40 C32        -0.5145    4.3015    1.4185 C.3       1 <0>        -0.2301
     41 C33        -2.4464    2.8942    2.1462 C.3       1 <0>        -0.1722
     42 H1         -0.9670   12.9515   -3.0738 H         1 <0>         0.0560
     43 H2         -1.3391   11.3217   -3.7311 H         1 <0>         0.0589
     44 H3         -1.8892   12.7904   -4.6069 H         1 <0>         0.0586
     45 H4          1.0381   11.9610   -4.1708 H         1 <0>         0.0807
     46 H5          1.0041   11.5689   -6.6303 H         1 <0>         0.0567
     47 H6         -0.7425   11.9861   -6.6759 H         1 <0>         0.0579
     48 H7         -0.1925   10.5174   -5.8001 H         1 <0>         0.0598
     49 H8         -1.2624   14.1495   -6.1791 H         1 <0>         0.1195
     50 H9         -0.6926   16.4720   -6.7652 H         1 <0>         0.1189
     51 H10         1.4641   17.4269   -6.0574 H         1 <0>         0.1186
     52 H11         3.0476   16.0613   -4.7574 H         1 <0>         0.1242
     53 H12         2.7131   12.4567   -4.3046 H         1 <0>         0.0845
     54 H13         3.7753   13.8896   -4.0922 H         1 <0>         0.0858
     55 H14         1.5070   11.6124   -2.4952 H         1 <0>         0.1369
     56 H15         3.6032   16.6145   -1.7327 H         1 <0>         0.4178
     57 H16         3.2102   16.6853   -0.1357 H         1 <0>         0.4231
     58 H17         1.6514   14.6115    2.1180 H         1 <0>         0.4388
     59 H18         0.7538   10.2270   -1.6981 H         1 <0>         0.4333
     60 H19         0.6356    7.7266   -1.1901 H         1 <0>         0.1387
     61 H20        -0.7113    5.9214   -0.1983 H         1 <0>         0.1587
     62 H21        -2.8770    8.7875    2.1015 H         1 <0>         0.1389
     63 H22        -1.5284   10.5993    1.1237 H         1 <0>         0.1450
     64 H23        -3.1565    7.4986    4.1117 H         1 <0>         0.1359
     65 H24        -2.3359    7.1671    6.4092 H         1 <0>         0.1338
     66 H25        -0.9756    5.1889    6.9575 H         1 <0>         0.1316
     67 H26        -0.4361    3.5425    5.2081 H         1 <0>         0.1378
     68 H27         0.0481    1.8119    2.3864 H         1 <0>         0.0633
     69 H28        -0.6595    2.0346    4.0224 H         1 <0>         0.0575
     70 H29         0.7295    3.0464    3.4992 H         1 <0>         0.0565
     71 H30        -0.2732    3.5661    0.6369 H         1 <0>         0.0656
     72 H31         0.4080    4.8008    1.7496 H         1 <0>         0.0312
     73 H32        -1.2120    5.0502    1.0148 H         1 <0>         0.1449
     74 H33        -2.2051    2.1588    1.3646 H         1 <0>         0.0629
     75 H34        -3.1438    3.6429    1.7425 H         1 <0>         0.1182
     76 H35        -2.9128    2.3817    3.0005 H         1 <0>         0.0361
@<TRIPOS>BOND
     1    1    2 1
     2    1   42 1
     3    1   43 1
     4    1   44 1
     5    2    3 1
     6    2    4 1
     7    2   45 1
     8    3   46 1
     9    3   47 1
    10    3   48 1
    11    4    9 ar
    12    4    5 ar
    13    5    6 ar
    14    5   49 1
    15    6    7 ar
    16    6   50 1
    17    7    8 ar
    18    7   51 1
    19    8    9 ar
    20    8   52 1
    21    9   10 1
    22   10   11 1
    23   10   53 1
    24   10   54 1
    25   11   16 ar
    26   11   12 ar
    27   12   13 ar
    28   12   55 1
    29   13   14 ar
    30   13   20 1
    31   14   15 ar
    32   14   19 1
    33   15   16 ar
    34   15   18 1
    35   16   17 1
    36   17   56 1
    37   18   57 1
    38   19   58 1
    39   20   21 2
    40   20   22 am
    41   22   23 1
    42   22   59 1
    43   23   28 ar
    44   23   24 ar
    45   24   25 ar
    46   24   60 1
    47   25   26 ar
    48   25   61 1
    49   26   27 ar
    50   26   29 1
    51   27   28 ar
    52   27   62 1
    53   28   63 1
    54   29   30 2
    55   29   31 2
    56   29   32 1
    57   32   37 ar
    58   32   33 ar
    59   33   34 ar
    60   33   64 1
    61   34   35 ar
    62   34   65 1
    63   35   36 ar
    64   35   66 1
    65   36   37 ar
    66   36   67 1
    67   37   38 1
    68   38   39 1
    69   38   40 1
    70   38   41 1
    71   39   68 1
    72   39   69 1
    73   39   70 1
    74   40   71 1
    75   40   72 1
    76   40   73 1
    77   41   74 1
    78   41   75 1
    79   41   76 1
@<TRIPOS>MOLECULE
ZINC01227906
   35    36     0     0     0
SMALL
USER_CHARGES

@<TRIPOS>ATOM
      1 C1          1.6886    0.8979    1.8969 C.3       1 <0>        -0.1376
      2 C2          1.4001   -0.5796    1.6235 C.3       1 <0>        -0.1072
      3 C3          1.6201   -1.3876    2.9040 C.3       1 <0>        -0.1426
      4 C4         -0.0500   -0.7393    1.1625 C.3       1 <0>         0.0463
      5 H1         -0.7209   -0.3761    1.9410 H         1 <0>         0.1056
      6 C5         -0.2667    0.0566   -0.0988 C.2       1 <0>         0.5029
      7 O1         -0.4396   -0.5181   -1.1601 O.co2     1 <0>        -0.6625
      8 O2         -0.2690    1.2751   -0.0578 O.co2     1 <0>        -0.6716
      9 N1         -0.3262   -2.1540    0.9007 N.am      1 <0>        -0.4863
     10 C6         -1.2816   -2.7627    1.5831 C.2       1 <0>         0.5398
     11 O3         -1.9386   -2.1783    2.4242 O.2       1 <0>        -0.4727
     12 C7         -1.5106   -4.1894    1.2714 C.2       1 <0>        -0.1952
     13 C8         -2.4080   -5.0572    1.8019 C.2       1 <0>         0.0350
     14 C9         -2.3322   -6.4870    1.4703 C.ar      1 <0>        -0.0604
     15 C10        -1.2329   -6.9877    0.7636 C.ar      1 <0>        -0.0904
     16 C11        -1.1687   -8.3299    0.4567 C.ar      1 <0>        -0.0838
     17 C12        -2.1889   -9.1825    0.8456 C.ar      1 <0>        -0.0785
     18 C13        -3.2805   -8.6943    1.5451 C.ar      1 <0>        -0.0935
     19 C14        -3.3560   -7.3557    1.8648 C.ar      1 <0>        -0.0811
     20 Br1        -2.0913  -11.0221    0.4190 Br        1 <0>        -0.0472
     21 S1         -0.2802   -4.4564    0.0024 S.3       1 <0>         0.0149
     22 C15         0.3958   -2.8041   -0.0344 C.2       1 <0>         0.2692
     23 S2          1.6576   -2.1936   -1.0173 S.2       1 <0>        -0.2563
     24 H2          2.7217    1.0116    2.2254 H         1 <0>         0.0442
     25 H3          1.5319    1.4735    0.9847 H         1 <0>         0.0896
     26 H4          1.0177    1.2610    2.6754 H         1 <0>         0.0453
     27 H5          2.0710   -0.9428    0.8450 H         1 <0>         0.1022
     28 H6          1.4146   -2.4402    2.7092 H         1 <0>         0.0360
     29 H7          2.6532   -1.2739    3.2325 H         1 <0>         0.0570
     30 H8          0.9492   -1.0244    3.6826 H         1 <0>         0.0516
     31 H9         -3.1782   -4.6975    2.4681 H         1 <0>         0.1618
     32 H10        -0.4371   -6.3241    0.4591 H         1 <0>         0.1435
     33 H11        -0.3211   -8.7178   -0.0886 H         1 <0>         0.1408
     34 H12        -4.0723   -9.3651    1.8443 H         1 <0>         0.1388
     35 H13        -4.2053   -6.9774    2.4143 H         1 <0>         0.1423
@<TRIPOS>BOND
     1    1    2 1
     2    1   24 1
     3    1   25 1
     4    1   26 1
     5    2    3 1
     6    2    4 1
     7    2   27 1
     8    3   28 1
     9    3   29 1
    10    3   30 1
    11    4    5 1
    12    4    6 1
    13    4    9 1
    14    6    7 2
    15    6    8 1
    16    9   22 1
    17    9   10 am
    18   10   11 2
    19   10   12 1
    20   12   13 2
    21   12   21 1
    22   13   14 1
    23   13   31 1
    24   14   19 ar
    25   14   15 ar
    26   15   16 ar
    27   15   32 1
    28   16   17 ar
    29   16   33 1
    30   17   18 ar
    31   17   20 1
    32   18   19 ar
    33   18   34 1
    34   19   35 1
    35   21   22 1
    36   22   23 2
@<TRIPOS>MOLECULE
ZINC01227908
   35    36     0     0     0
SMALL
USER_CHARGES

@<TRIPOS>ATOM
      1 C1         -5.5887   -1.5246   -0.0044 C.3       1 <0>        -0.1434
      2 C2         -4.5360   -0.5199   -0.4770 C.3       1 <0>        -0.0972
      3 C3         -5.0335    0.9026   -0.2122 C.3       1 <0>        -0.1366
      4 C4         -3.2299   -0.7534    0.2848 C.3       1 <0>         0.0406
      5 H1         -3.3773   -0.5190    1.3391 H         1 <0>         0.1209
      6 C5         -2.1523    0.1350   -0.2814 C.2       1 <0>         0.5000
      7 O1         -1.9810    1.2524    0.1754 O.co2     1 <0>        -0.6729
      8 O2         -1.4519   -0.2635   -1.1963 O.co2     1 <0>        -0.6694
      9 N1         -2.8287   -2.1557    0.1478 N.am      1 <0>        -0.4813
     10 C6         -2.6813   -2.6703   -1.0615 C.2       1 <0>         0.5379
     11 O3         -2.8704   -2.0090   -2.0654 O.2       1 <0>        -0.3963
     12 C7         -2.2747   -4.0897   -1.1312 C.2       1 <0>        -0.1978
     13 C8         -2.0500   -4.8726   -2.2158 C.2       1 <0>         0.0404
     14 C9         -1.8158   -6.3136   -2.0461 C.ar      1 <0>        -0.0611
     15 C10        -1.9905   -6.9118   -0.7930 C.ar      1 <0>        -0.0898
     16 C11        -1.7694   -8.2638   -0.6420 C.ar      1 <0>        -0.0836
     17 C12        -1.3748   -9.0302   -1.7264 C.ar      1 <0>        -0.0781
     18 C13        -1.1993   -8.4452   -2.9698 C.ar      1 <0>        -0.0923
     19 C14        -1.4226   -7.0956   -3.1381 C.ar      1 <0>        -0.0790
     20 Br1        -1.0735  -10.8842   -1.5081 Br        1 <0>        -0.0462
     21 S1         -2.1597   -4.4906    0.6072 S.3       1 <0>         0.0370
     22 C15        -2.6127   -2.8906    1.2576 C.2       1 <0>         0.2853
     23 S2         -2.7440   -2.4071    2.8947 S.2       1 <0>        -0.3866
     24 H2         -6.5192   -1.3582   -0.5472 H         1 <0>         0.0572
     25 H3         -5.2343   -2.5379   -0.1931 H         1 <0>         0.0362
     26 H4         -5.7626   -1.3934    1.0636 H         1 <0>         0.0578
     27 H5         -4.3622   -0.6510   -1.5450 H         1 <0>         0.0909
     28 H6         -4.2743    1.6178   -0.5286 H         1 <0>         0.0734
     29 H7         -5.9523    1.0763   -0.7724 H         1 <0>         0.0502
     30 H8         -5.2284    1.0269    0.8530 H         1 <0>         0.0536
     31 H9         -2.0433   -4.4371   -3.2040 H         1 <0>         0.1654
     32 H10        -2.2975   -6.3155    0.0535 H         1 <0>         0.1400
     33 H11        -1.9038   -8.7269    0.3244 H         1 <0>         0.1411
     34 H12        -0.8908   -9.0491   -3.8104 H         1 <0>         0.1397
     35 H13        -1.2900   -6.6419   -4.1092 H         1 <0>         0.1440
@<TRIPOS>BOND
     1    1    2 1
     2    1   24 1
     3    1   25 1
     4    1   26 1
     5    2    3 1
     6    2    4 1
     7    2   27 1
     8    3   28 1
     9    3   29 1
    10    3   30 1
    11    4    5 1
    12    4    6 1
    13    4    9 1
    14    6    7 2
    15    6    8 1
    16    9   22 1
    17    9   10 am
    18   10   11 2
    19   10   12 1
    20   12   13 2
    21   12   21 1
    22   13   14 1
    23   13   31 1
    24   14   19 ar
    25   14   15 ar
    26   15   16 ar
    27   15   32 1
    28   16   17 ar
    29   16   33 1
    30   17   18 ar
    31   17   20 1
    32   18   19 ar
    33   18   34 1
    34   19   35 1
    35   21   22 1
    36   22   23 2
@<TRIPOS>MOLECULE
ZINC03775575
   68    71     0     0     0
SMALL
NO_CHARGES

@<TRIPOS>ATOM
      1 C1         -0.1332    0.9866   -0.0935 C.3       1 <0>        -0.1195
      2 C2         -0.1527   -0.5035    0.1302 C.ar      1 <0>        -0.0470
      3 C3         -0.2460   -1.3404   -0.9367 C.ar      1 <0>        -0.1024
      4 C4         -0.2657   -2.7335   -0.7415 C.ar      1 <0>        -0.0347
      5 C5         -0.1872   -3.2551    0.5719 C.ar      1 <0>        -0.0297
      6 C6         -0.2086   -4.7079    0.7624 C.ar      1 <0>        -0.2039
      7 C7         -0.3063   -5.5287   -0.3656 C.ar      1 <0>         0.1689
      8 C8         -0.3813   -4.9639   -1.6442 C.ar      1 <0>         0.0750
      9 C9         -0.3627   -3.6149   -1.8332 C.ar      1 <0>        -0.0411
     10 C10        -0.4467   -3.0593   -3.2316 C.3       1 <0>        -0.0595
     11 C11         0.7028   -3.6182   -4.0724 C.3       1 <0>        -0.1516
     12 C12        -1.7818   -3.4621   -3.8610 C.3       1 <0>        -0.1487
     13 O1         -0.4752   -5.7829   -2.7254 O.3       1 <0>        -0.4766
     14 O2         -0.3279   -6.8761   -0.2203 O.3       1 <0>        -0.4682
     15 C13        -0.1292   -5.2865    2.1020 C.2       1 <0>         0.3607
     16 O3         -0.2442   -6.4855    2.2531 O.2       1 <0>        -0.4500
     17 C14        -0.0914   -2.3815    1.6623 C.ar      1 <0>         0.1208
     18 C15        -0.0686   -1.0082    1.4362 C.ar      1 <0>        -0.0391
     19 C16         0.0389   -0.0749    2.5810 C.ar      1 <0>        -0.0461
     20 C17         1.3026    0.3395    3.0269 C.ar      1 <0>        -0.0567
     21 C18         1.4264    1.1957    4.0752 C.ar      1 <0>        -0.1031
     22 C19         0.2795    1.6801    4.7303 C.ar      1 <0>        -0.0342
     23 C20        -1.0013    1.2694    4.2899 C.ar      1 <0>        -0.0312
     24 C21        -1.1147    0.3908    3.2051 C.ar      1 <0>         0.1359
     25 O4         -2.3383   -0.0064    2.7694 O.3       1 <0>        -0.4811
     26 C22        -2.1884    1.7809    4.9804 C.ar      1 <0>        -0.2012
     27 C23        -2.0107    2.6597    6.0536 C.ar      1 <0>         0.1673
     28 C24        -0.7222    3.0362    6.4509 C.ar      1 <0>         0.0764
     29 C25         0.3883    2.5670    5.8164 C.ar      1 <0>        -0.0431
     30 C26         1.7523    3.0037    6.2855 C.3       1 <0>        -0.0586
     31 C27         1.8520    4.5288    6.2142 C.3       1 <0>        -0.1518
     32 C28         1.9658    2.5455    7.7295 C.3       1 <0>        -0.1488
     33 O5         -0.5754    3.8922    7.4970 O.3       1 <0>        -0.4763
     34 O6         -3.0900    3.1490    6.7114 O.3       1 <0>        -0.4658
     35 C29        -3.5286    1.3817    4.5565 C.2       1 <0>         0.3587
     36 O7         -4.5042    1.8859    5.0738 O.2       1 <0>        -0.4469
     37 C30         2.5397   -0.1719    2.3347 C.3       1 <0>        -0.1187
     38 O8         -0.0154   -2.8696    2.9275 O.3       1 <0>        -0.4830
     39 H1          0.8960    1.3212   -0.2231 H         1 <0>         0.0749
     40 H2         -0.7087    1.2274   -0.9874 H         1 <0>         0.0721
     41 H3         -0.5729    1.4892    0.7680 H         1 <0>         0.0722
     42 H4         -0.3056   -0.9353   -1.9360 H         1 <0>         0.1397
     43 H5         -0.3754   -1.9722   -3.1955 H         1 <0>         0.0863
     44 H6          0.6315   -4.7053   -4.1084 H         1 <0>         0.0803
     45 H7          0.6421   -3.2163   -5.0838 H         1 <0>         0.0593
     46 H8          1.6540   -3.3312   -3.6239 H         1 <0>         0.0528
     47 H9         -1.8426   -3.0602   -4.8724 H         1 <0>         0.0667
     48 H10        -1.8532   -4.5492   -3.8971 H         1 <0>         0.0587
     49 H11        -2.6008   -3.0639   -3.2620 H         1 <0>         0.0571
     50 H12        -1.3834   -5.9991   -2.9774 H         1 <0>         0.3853
     51 H13        -1.2152   -7.2464   -0.1170 H         1 <0>         0.3976
     52 H14         0.0317   -4.6473    2.9576 H         1 <0>         0.1324
     53 H15         2.4070    1.5045    4.4061 H         1 <0>         0.1398
     54 H16        -2.6683   -0.8070    3.1998 H         1 <0>         0.3955
     55 H17         2.5156    2.5594    5.6467 H         1 <0>         0.0860
     56 H18         1.0887    4.9730    6.8530 H         1 <0>         0.0798
     57 H19         2.8385    4.8446    6.5535 H         1 <0>         0.0593
     58 H20         1.6998    4.8552    5.1854 H         1 <0>         0.0531
     59 H21         1.8948    1.4590    7.7803 H         1 <0>         0.0567
     60 H22         2.9524    2.8614    8.0688 H         1 <0>         0.0665
     61 H23         1.2025    2.9898    8.3683 H         1 <0>         0.0591
     62 H24        -0.5043    3.4545    8.3563 H         1 <0>         0.3850
     63 H25        -3.3748    2.6056    7.4588 H         1 <0>         0.3953
     64 H26        -3.6512    0.6381    3.7829 H         1 <0>         0.1327
     65 H27         2.8051    0.5020    1.5201 H         1 <0>         0.0775
     66 H28         3.3619   -0.2202    3.0487 H         1 <0>         0.0736
     67 H29         2.3470   -1.1673    1.9346 H         1 <0>         0.0662
     68 H30         0.8876   -3.0316    3.2331 H         1 <0>         0.3935
@<TRIPOS>BOND
     1    1    2 1
     2    1   39 1
     3    1   40 1
     4    1   41 1
     5    2   18 ar
     6    2    3 ar
     7    3    4 ar
     8    3   42 1
     9    4    9 ar
    10    4    5 ar
    11    5    6 ar
    12    5   17 ar
    13    6    7 ar
    14    6   15 1
    15    7    8 ar
    16    7   14 1
    17    8    9 ar
    18    8   13 1
    19    9   10 1
    20   10   11 1
    21   10   12 1
    22   10   43 1
    23   11   44 1
    24   11   45 1
    25   11   46 1
    26   12   47 1
    27   12   48 1
    28   12   49 1
    29   13   50 1
    30   14   51 1
    31   15   16 2
    32   15   52 1
    33   17   18 ar
    34   17   38 1
    35   18   19 1
    36   19   24 ar
    37   19   20 ar
    38   20   21 ar
    39   20   37 1
    40   21   22 ar
    41   21   53 1
    42   22   29 ar
    43   22   23 ar
    44   23   24 ar
    45   23   26 ar
    46   24   25 1
    47   25   54 1
    48   26   27 ar
    49   26   35 1
    50   27   28 ar
    51   27   34 1
    52   28   29 ar
    53   28   33 1
    54   29   30 1
    55   30   31 1
    56   30   32 1
    57   30   55 1
    58   31   56 1
    59   31   57 1
    60   31   58 1
    61   32   59 1
    62   32   60 1
    63   32   61 1
    64   33   62 1
    65   34   63 1
    66   35   36 2
    67   35   64 1
    68   37   65 1
    69   37   66 1
    70   37   67 1
    71   38   68 1
@<TRIPOS>MOLECULE
ZINC05159961
   64    67     0     0     0
SMALL
USER_CHARGES
5-isopropyl-3-methyl-2-(1,6,7-trihydroxy-5-isopropyl-3-methyl-2-naphthyl)-naphthalene-1,6,7-triol
@<TRIPOS>ATOM
      1 C1          2.1150   -0.3255   -2.8138 C.3       1 <0>        -0.1204
      2 C2          1.1251    0.7422   -3.2028 C.ar      1 <0>        -0.0521
      3 C3          0.2551    0.5104   -4.2201 C.ar      1 <0>        -0.1169
      4 C4         -0.6704    1.5007   -4.5972 C.ar      1 <0>        -0.0212
      5 C5         -0.6932    2.7389   -3.9070 C.ar      1 <0>        -0.0676
      6 C6         -1.6182    3.7266   -4.2868 C.ar      1 <0>        -0.1146
      7 C7         -2.4830    3.4841   -5.3137 C.ar      1 <0>         0.0877
      8 C8         -2.4609    2.2593   -5.9966 C.ar      1 <0>         0.0974
      9 C9         -1.5739    1.2816   -5.6508 C.ar      1 <0>        -0.0796
     10 C10        -1.5633   -0.0281   -6.3962 C.3       1 <0>        -0.0526
     11 C11        -2.9454   -0.6780   -6.3049 C.3       1 <0>        -0.1508
     12 C12        -1.2140    0.2234   -7.8644 C.3       1 <0>        -0.1470
     13 O1         -3.3337    2.0436   -7.0162 O.3       1 <0>        -0.4793
     14 O2         -3.3767    4.4413   -5.6796 O.3       1 <0>        -0.4866
     15 C13         0.2120    2.9597   -2.8518 C.ar      1 <0>         0.1463
     16 C14         1.1116    1.9603   -2.5057 C.ar      1 <0>        -0.0586
     17 C15         2.0684    2.1837   -1.3962 C.ar      1 <0>        -0.0595
     18 C16         3.3271    2.7440   -1.6638 C.ar      1 <0>        -0.0524
     19 C17         4.2222    2.9589   -0.6647 C.ar      1 <0>        -0.1172
     20 C18         3.8955    2.6196    0.6610 C.ar      1 <0>        -0.0212
     21 C19         2.6259    2.0586    0.9492 C.ar      1 <0>        -0.0671
     22 C20         1.7130    1.8375   -0.0994 C.ar      1 <0>         0.1467
     23 O3          0.4940    1.2960    0.1558 O.3       1 <0>        -0.4813
     24 C21         2.3051    1.7146    2.2736 C.ar      1 <0>        -0.1144
     25 C22         3.2127    1.9345    3.2682 C.ar      1 <0>         0.0878
     26 C23         4.4664    2.4956    2.9845 C.ar      1 <0>         0.0976
     27 C24         4.8084    2.8340    1.7075 C.ar      1 <0>        -0.0800
     28 C25         6.1599    3.4359    1.4208 C.3       1 <0>        -0.0523
     29 C26         6.2903    4.7707    2.1571 C.3       1 <0>        -0.1476
     30 C27         7.2554    2.4807    1.8987 C.3       1 <0>        -0.1503
     31 O4          5.3521    2.7045    3.9943 O.3       1 <0>        -0.4797
     32 O5          2.8980    1.6062    4.5495 O.3       1 <0>        -0.4875
     33 C28         3.6909    3.1119   -3.0792 C.3       1 <0>        -0.1196
     34 O6          0.2058    4.1393   -2.1790 O.3       1 <0>        -0.4807
     35 H1          1.6733   -0.9712   -2.0548 H         1 <0>         0.0721
     36 H2          2.3723   -0.9193   -3.6909 H         1 <0>         0.0722
     37 H3          3.0151    0.1417   -2.4144 H         1 <0>         0.0712
     38 H4          0.2764   -0.4344   -4.7428 H         1 <0>         0.1356
     39 H5         -1.6445    4.6733   -3.7677 H         1 <0>         0.1410
     40 H6         -0.8199   -0.6916   -5.9543 H         1 <0>         0.0825
     41 H7         -3.6888   -0.0145   -6.7467 H         1 <0>         0.0778
     42 H8         -2.9378   -1.6253   -6.8440 H         1 <0>         0.0566
     43 H9         -3.1943   -0.8572   -5.2589 H         1 <0>         0.0521
     44 H10        -0.2294    0.6864   -7.9294 H         1 <0>         0.0551
     45 H11        -1.2064   -0.7239   -8.4035 H         1 <0>         0.0636
     46 H12        -1.9574    0.8869   -8.3062 H         1 <0>         0.0574
     47 H13        -2.9994    2.3108   -7.8833 H         1 <0>         0.3836
     48 H14        -3.0482    5.0475   -6.3576 H         1 <0>         0.3877
     49 H15         5.1862    3.3913   -0.8885 H         1 <0>         0.1355
     50 H16         0.4742    0.3305    0.1052 H         1 <0>         0.3895
     51 H17         1.3425    1.2823    2.5037 H         1 <0>         0.1410
     52 H18         6.2641    3.6009    0.3484 H         1 <0>         0.0823
     53 H19         6.1862    4.6058    3.2295 H         1 <0>         0.0575
     54 H20         7.2679    5.2061    1.9498 H         1 <0>         0.0635
     55 H21         5.5099    5.4513    1.8167 H         1 <0>         0.0553
     56 H22         7.1625    1.5298    1.3741 H         1 <0>         0.0518
     57 H23         8.2329    2.9161    1.6913 H         1 <0>         0.0565
     58 H24         7.1512    2.3158    2.9711 H         1 <0>         0.0778
     59 H25         5.2751    3.5734    4.4116 H         1 <0>         0.3841
     60 H26         2.4735    2.3196    5.0454 H         1 <0>         0.3889
     61 H27         3.3907    4.1411   -3.2757 H         1 <0>         0.0715
     62 H28         4.7682    3.0155   -3.2142 H         1 <0>         0.0720
     63 H29         3.1769    2.4450   -3.7715 H         1 <0>         0.0710
     64 H30         0.7905    4.8106   -2.5566 H         1 <0>         0.3879
@<TRIPOS>BOND
     1    1    2 1
     2    1   35 1
     3    1   36 1
     4    1   37 1
     5    2   16 ar
     6    2    3 ar
     7    3    4 ar
     8    3   38 1
     9    4    9 ar
    10    4    5 ar
    11    5    6 ar
    12    5   15 ar
    13    6    7 ar
    14    6   39 1
    15    7    8 ar
    16    7   14 1
    17    8    9 ar
    18    8   13 1
    19    9   10 1
    20   10   11 1
    21   10   12 1
    22   10   40 1
    23   11   41 1
    24   11   42 1
    25   11   43 1
    26   12   44 1
    27   12   45 1
    28   12   46 1
    29   13   47 1
    30   14   48 1
    31   15   16 ar
    32   15   34 1
    33   16   17 1
    34   17   22 ar
    35   17   18 ar
    36   18   19 ar
    37   18   33 1
    38   19   20 ar
    39   19   49 1
    40   20   27 ar
    41   20   21 ar
    42   21   22 ar
    43   21   24 ar
    44   22   23 1
    45   23   50 1
    46   24   25 ar
    47   24   51 1
    48   25   26 ar
    49   25   32 1
    50   26   27 ar
    51   26   31 1
    52   27   28 1
    53   28   29 1
    54   28   30 1
    55   28   52 1
    56   29   53 1
    57   29   54 1
    58   29   55 1
    59   30   56 1
    60   30   57 1
    61   30   58 1
    62   31   59 1
    63   32   60 1
    64   33   61 1
    65   33   62 1
    66   33   63 1
    67   34   64 1
@<TRIPOS>MOLECULE
ZINC13132551
   24    25     0     0     0
SMALL
USER_CHARGES

@<TRIPOS>ATOM
      1 C1         -0.0169    1.3918    0.0097 C.2       1 <0>        -0.0648
      2 C2          1.0126    2.2806    0.0046 C.2       1 <0>        -0.1259
      3 C3          2.4020    2.0234   -0.0105 C.ar      1 <0>         0.0331
      4 C4          3.1595    3.2011   -0.0117 C.ar      1 <0>        -0.1524
      5 C5          4.5369    3.1305   -0.0257 C.ar      1 <0>         0.1348
      6 C6          5.1889    1.8931   -0.0392 C.ar      1 <0>         0.0380
      7 C7          4.4619    0.7158   -0.0387 C.ar      1 <0>         0.1581
      8 C8          3.0609    0.7676   -0.0241 C.ar      1 <0>        -0.1628
      9 C9          2.4542   -0.5656   -0.0255 C.2       1 <0>         0.4122
     10 O1          3.2231   -1.5143   -0.0388 O.2       1 <0>        -0.4220
     11 C10         1.0672   -0.8736   -0.0127 C.2       1 <0>         0.0873
     12 C11         0.0021   -0.0041    0.0020 C.2       1 <0>        -0.1870
     13 O2          0.7537   -2.1942   -0.0172 O.3       1 <0>        -0.4554
     14 O3          5.1017   -0.4828   -0.0523 O.3       1 <0>        -0.4538
     15 O4          6.5480    1.8467   -0.0534 O.3       1 <0>        -0.4708
     16 O5          5.2683    4.2752   -0.0269 O.3       1 <0>        -0.4831
     17 H1         -1.0018    1.8346    0.0265 H         1 <0>         0.1260
     18 H2          0.7303    3.3230    0.0130 H         1 <0>         0.1315
     19 H3          2.6665    4.1620   -0.0021 H         1 <0>         0.1509
     20 H4         -0.9704   -0.4737    0.0088 H         1 <0>         0.1276
     21 H5          5.2959   -0.8350    0.8271 H         1 <0>         0.3945
     22 H6          6.9501    1.8284    0.8259 H         1 <0>         0.3858
     23 H7          5.4888    4.6020    0.8561 H         1 <0>         0.3960
     24 H8         -0.1966   -2.3728   -0.0082 H         1 <0>         0.4023
@<TRIPOS>BOND
     1    1   12 1
     2    1    2 2
     3    1   17 1
     4    2    3 1
     5    2   18 1
     6    3    8 ar
     7    3    4 ar
     8    4    5 ar
     9    4   19 1
    10    5    6 ar
    11    5   16 1
    12    6    7 ar
    13    6   15 1
    14    7    8 ar
    15    7   14 1
    16    8    9 1
    17    9   10 2
    18    9   11 1
    19   11   12 2
    20   11   13 1
    21   12   20 1
    22   13   24 1
    23   14   21 1
    24   15   22 1
    25   16   23 1
@<TRIPOS>MOLECULE
ZINC13132551
   24    25     0     0     0
SMALL
USER_CHARGES

@<TRIPOS>ATOM
      1 C1         -0.0167    1.3789    0.0096 C.2       1 <0>        -0.0211
      2 C2          1.0394    2.2710    0.0043 C.2       1 <0>        -0.1384
      3 C3          2.4127    1.9840   -0.0107 C.ar      1 <0>         0.0532
      4 C4          3.2067    3.1414   -0.0125 C.ar      1 <0>        -0.1650
      5 C5          4.5782    3.0259   -0.0266 C.ar      1 <0>         0.1473
      6 C6          5.2069    1.7741   -0.0398 C.ar      1 <0>         0.0382
      7 C7          4.4761    0.6051   -0.0388 C.ar      1 <0>         0.1395
      8 C8          3.0671    0.6699   -0.0241 C.ar      1 <0>        -0.0999
      9 C9          2.4672   -0.5957   -0.0253 C.2       1 <0>         0.2034
     10 C10         1.0826   -0.8890   -0.0137 C.2       1 <0>         0.2573
     11 O1          0.7673   -2.1847   -0.0178 O.2       1 <0>        -0.5904
     12 C11         0.0021   -0.0041    0.0020 C.2       1 <0>        -0.1713
     13 O2          3.3054   -1.6572   -0.0395 O.3       1 <0>        -0.4165
     14 O3          5.1071   -0.5980   -0.0522 O.3       1 <0>        -0.4483
     15 O4          6.5653    1.7108   -0.0545 O.3       1 <0>        -0.4708
     16 O5          5.3389    4.1508   -0.0282 O.3       1 <0>        -0.4827
     17 H1         -0.9992    1.8270    0.0264 H         1 <0>         0.1346
     18 H2          0.7747    3.3181    0.0124 H         1 <0>         0.1415
     19 H3          2.7440    4.1172   -0.0031 H         1 <0>         0.1567
     20 H4         -0.9708   -0.4730    0.0091 H         1 <0>         0.1393
     21 H5          5.2990   -0.9513    0.8272 H         1 <0>         0.3949
     22 H6          6.9675    1.6878    0.8246 H         1 <0>         0.3864
     23 H7          5.5680    4.4719    0.8547 H         1 <0>         0.3984
     24 H8          2.8558   -2.5134   -0.0398 H         1 <0>         0.4137
@<TRIPOS>BOND
     1    1   12 2
     2    1    2 1
     3    1   17 1
     4    2    3 2
     5    2   18 1
     6    3    8 ar
     7    3    4 ar
     8    4    5 ar
     9    4   19 1
    10    5    6 ar
    11    5   16 1
    12    6    7 ar
    13    6   15 1
    14    7    8 ar
    15    7   14 1
    16    8    9 2
    17    9   10 1
    18    9   13 1
    19   10   11 2
    20   10   12 1
    21   12   20 1
    22   13   24 1
    23   14   21 1
    24   15   22 1
    25   16   23 1
@<TRIPOS>MOLECULE
ZINC13132551
   23    24     0     0     0
SMALL
USER_CHARGES

@<TRIPOS>ATOM
      1 C1         -0.0167    1.3789    0.0096 C.2       1 <0>         0.0408
      2 C2          1.0394    2.2710    0.0043 C.2       1 <0>        -0.3129
      3 C3          2.4127    1.9840   -0.0107 C.ar      1 <0>         0.1132
      4 C4          3.2067    3.1414   -0.0125 C.ar      1 <0>        -0.2134
      5 C5          4.5782    3.0259   -0.0266 C.ar      1 <0>         0.1489
      6 C6          5.2069    1.7741   -0.0398 C.ar      1 <0>        -0.0575
      7 C7          4.4761    0.6051   -0.0388 C.ar      1 <0>         0.2006
      8 C8          3.0671    0.6699   -0.0241 C.ar      1 <0>        -0.2256
      9 C9          2.4672   -0.5957   -0.0253 C.2       1 <0>         0.3145
     10 C10         1.0826   -0.8890   -0.0137 C.2       1 <0>         0.2986
     11 O1          0.7673   -2.1847   -0.0178 O.2       1 <0>        -0.5891
     12 C11         0.0021   -0.0041    0.0020 C.2       1 <0>        -0.3382
     13 O2          3.3054   -1.6572   -0.0395 O.3       1 <0>        -0.5198
     14 O3          5.1071   -0.5980   -0.0522 O.3       1 <0>        -0.4528
     15 O4          6.5653    1.7108   -0.0545 O.3       1 <0>        -0.4774
     16 O5          5.3389    4.1508   -0.0282 O.3       1 <0>        -0.4946
     17 H1         -0.9992    1.8270    0.0264 H         1 <0>         0.0956
     18 H2          0.7747    3.3181    0.0124 H         1 <0>         0.1044
     19 H3          2.7440    4.1172   -0.0031 H         1 <0>         0.1324
     20 H4         -0.9708   -0.4730    0.0091 H         1 <0>         0.1022
     21 H5          5.2990   -0.9513    0.8272 H         1 <0>         0.3847
     22 H6          6.9675    1.6878    0.8246 H         1 <0>         0.3621
     23 H7          5.5680    4.4719    0.8547 H         1 <0>         0.3835
@<TRIPOS>BOND
     1    1   12 2
     2    1    2 1
     3    1   17 1
     4    2    3 2
     5    2   18 1
     6    3    8 ar
     7    3    4 ar
     8    4    5 ar
     9    4   19 1
    10    5    6 ar
    11    5   16 1
    12    6    7 ar
    13    6   15 1
    14    7    8 ar
    15    7   14 1
    16    8    9 2
    17    9   10 1
    18    9   13 1
    19   10   11 2
    20   10   12 1
    21   12   20 1
    22   14   21 1
    23   15   22 1
    24   16   23 1
@<TRIPOS>MOLECULE
ZINC13132551
   23    24     0     0     0
SMALL
USER_CHARGES

@<TRIPOS>ATOM
      1 C1         -0.0169    1.3918    0.0097 C.2       1 <0>         0.0446
      2 C2          1.0126    2.2806    0.0046 C.2       1 <0>        -0.3125
      3 C3          2.4020    2.0234   -0.0105 C.ar      1 <0>         0.1040
      4 C4          3.1595    3.2011   -0.0117 C.ar      1 <0>        -0.1963
      5 C5          4.5369    3.1305   -0.0257 C.ar      1 <0>         0.1309
      6 C6          5.1889    1.8931   -0.0392 C.ar      1 <0>        -0.0321
      7 C7          4.4619    0.7158   -0.0387 C.ar      1 <0>         0.1730
      8 C8          3.0609    0.7676   -0.0241 C.ar      1 <0>        -0.2240
      9 C9          2.4542   -0.5656   -0.0255 C.2       1 <0>         0.3806
     10 O1          3.2231   -1.5143   -0.0388 O.2       1 <0>        -0.4465
     11 C10         1.0672   -0.8736   -0.0127 C.2       1 <0>         0.2518
     12 C11         0.0021   -0.0041    0.0020 C.2       1 <0>        -0.3627
     13 O2          0.7537   -2.1942   -0.0172 O.3       1 <0>        -0.6311
     14 O3          5.1017   -0.4828   -0.0523 O.3       1 <0>        -0.4606
     15 O4          6.5480    1.8467   -0.0534 O.3       1 <0>        -0.4769
     16 O5          5.2683    4.2752   -0.0269 O.3       1 <0>        -0.4926
     17 H1         -1.0018    1.8346    0.0265 H         1 <0>         0.0897
     18 H2          0.7303    3.3230    0.0130 H         1 <0>         0.0997
     19 H3          2.6665    4.1620   -0.0021 H         1 <0>         0.1324
     20 H4         -0.9704   -0.4737    0.0088 H         1 <0>         0.0953
     21 H5          5.2959   -0.8350    0.8271 H         1 <0>         0.3847
     22 H6          6.9501    1.8284    0.8259 H         1 <0>         0.3657
     23 H7          5.4888    4.6020    0.8561 H         1 <0>         0.3830
@<TRIPOS>BOND
     1    1   12 1
     2    1    2 2
     3    1   17 1
     4    2    3 1
     5    2   18 1
     6    3    8 ar
     7    3    4 ar
     8    4    5 ar
     9    4   19 1
    10    5    6 ar
    11    5   16 1
    12    6    7 ar
    13    6   15 1
    14    7    8 ar
    15    7   14 1
    16    8    9 1
    17    9   10 2
    18    9   11 1
    19   11   12 2
    20   11   13 1
    21   12   20 1
    22   14   21 1
    23   15   22 1
    24   16   23 1
