@<TRIPOS>MOLECULE
ZINC00272582
   28    29     0     0     0
SMALL
USER_CHARGES

@<TRIPOS>ATOM
      1 C1         -0.0587    1.4596    0.0150 C.3       1 <0>         0.0690
      2 N1          0.0021   -0.0041    0.0020 N.pl3     1 <0>        -0.5583
      3 C2          0.1756   -0.7411    1.2562 C.3       1 <0>         0.0721
      4 C3         -0.1041   -0.6886   -1.1917 C.2       1 <0>         0.1974
      5 C4         -0.1315   -0.1509   -2.4378 C.2       1 <0>        -0.2481
      6 C5         -0.2539   -1.2700   -3.3800 C.2       1 <0>         0.5812
      7 O1         -0.3085   -1.1728   -4.5902 O.2       1 <0>        -0.4400
      8 N2         -0.2953   -2.4200   -2.6850 N.am      1 <0>        -0.5199
      9 C6         -0.2047   -2.1613   -1.3679 C.2       1 <0>         0.5736
     10 O2         -0.2075   -2.9865   -0.4781 O.2       1 <0>        -0.4302
     11 C7         -0.4091   -3.6983   -3.2488 C.ar      1 <0>         0.1490
     12 C8         -0.4485   -4.8187   -2.4295 C.ar      1 <0>        -0.1236
     13 C9         -0.5606   -6.0773   -2.9867 C.ar      1 <0>        -0.0741
     14 C10        -0.6338   -6.2232   -4.3608 C.ar      1 <0>        -0.0393
     15 C11        -0.5948   -5.1078   -5.1805 C.ar      1 <0>        -0.0102
     16 C12        -0.4884   -3.8456   -4.6267 C.ar      1 <0>        -0.1180
     17 Cl1        -0.6868   -5.2941   -6.9040 Cl        1 <0>        -0.0316
     18 Cl2        -0.7741   -7.8068   -5.0580 Cl        1 <0>        -0.0394
     19 Cl3        -0.0400    1.5355   -2.8397 Cl        1 <0>         0.0041
     20 H1          0.9307    1.8662   -0.1943 H         1 <0>         0.0720
     21 H2         -0.7602    1.8009   -0.7463 H         1 <0>         0.0880
     22 H3         -0.3918    1.8008    0.9952 H         1 <0>         0.0864
     23 H4         -0.8016   -0.9673    1.6828 H         1 <0>         0.0701
     24 H5          0.7105   -1.6705    1.0604 H         1 <0>         0.0865
     25 H6          0.7469   -0.1340    1.9583 H         1 <0>         0.0858
     26 H7         -0.3911   -4.7058   -1.3569 H         1 <0>         0.1673
     27 H8         -0.5909   -6.9487   -2.3493 H         1 <0>         0.1545
     28 H9         -0.4624   -2.9753   -5.2657 H         1 <0>         0.1756
@<TRIPOS>BOND
     1    1    2 1
     2    1   20 1
     3    1   21 1
     4    1   22 1
     5    2    3 1
     6    2    4 1
     7    3   23 1
     8    3   24 1
     9    3   25 1
    10    4    9 1
    11    4    5 2
    12    5    6 1
    13    5   19 1
    14    6    7 2
    15    6    8 am
    16    8    9 am
    17    8   11 1
    18    9   10 2
    19   11   16 ar
    20   11   12 ar
    21   12   13 ar
    22   12   26 1
    23   13   14 ar
    24   13   27 1
    25   14   15 ar
    26   14   18 1
    27   15   16 ar
    28   15   17 1
    29   16   28 1
@<TRIPOS>MOLECULE
ZINC19791747
   37    39     0     0     0
SMALL
USER_CHARGES

@<TRIPOS>ATOM
      1 C1         -1.9823   -0.3693    1.8815 C.3       1 <0>         0.0245
      2 N1         -0.9954   -0.9353    0.9522 N.3       1 <0>        -0.5414
      3 C2          0.3614   -0.8494    1.5086 C.3       1 <0>         0.0358
      4 C3          1.3751   -1.2798    0.4431 C.3       1 <0>         0.1377
      5 N2          0.9912   -2.6085   -0.0572 N.pl3     1 <0>        -0.6140
      6 C4         -0.3952   -2.8095   -0.5054 C.3       1 <0>         0.1357
      7 C5         -1.3392   -2.3188    0.5975 C.3       1 <0>         0.0382
      8 C6          1.9077   -3.6394   -0.1054 C.2       1 <0>         0.1815
      9 C7          2.3302   -4.3006   -1.2130 C.2       1 <0>        -0.1470
     10 C8          3.3005   -5.3060   -0.7624 C.2       1 <0>         0.5715
     11 O1          3.8924   -6.0887   -1.4793 O.2       1 <0>        -0.4269
     12 N3          3.4273   -5.2187    0.5731 N.am      1 <0>        -0.5223
     13 C9          2.6324   -4.2411    1.0446 C.2       1 <0>         0.5491
     14 O2          2.5237   -3.9100    2.2071 O.2       1 <0>        -0.4259
     15 C10         4.2676   -6.0219    1.3566 C.ar      1 <0>         0.1472
     16 C11         4.3125   -5.8455    2.7332 C.ar      1 <0>        -0.1222
     17 C12         5.1408   -6.6377    3.5036 C.ar      1 <0>        -0.0738
     18 C13         5.9262   -7.6071    2.9051 C.ar      1 <0>        -0.0391
     19 C14         5.8836   -7.7854    1.5325 C.ar      1 <0>        -0.0100
     20 C15         5.0516   -6.9984    0.7582 C.ar      1 <0>        -0.1199
     21 Cl1         6.8701   -9.0024    0.7847 Cl        1 <0>        -0.0313
     22 Cl2         6.9668   -8.6009    3.8763 Cl        1 <0>        -0.0388
     23 Cl3         1.8209   -4.0132   -2.8476 Cl        1 <0>         0.0256
     24 H1         -2.0085   -0.9674    2.7923 H         1 <0>         0.0272
     25 H2         -1.7038    0.6554    2.1276 H         1 <0>         0.0718
     26 H3         -2.9670   -0.3759    1.4141 H         1 <0>         0.0718
     27 H4          0.5660    0.1776    1.8115 H         1 <0>         0.0900
     28 H5          0.4420   -1.5071    2.3741 H         1 <0>         0.0450
     29 H6          1.3693   -0.5635   -0.3784 H         1 <0>         0.0843
     30 H7          2.3710   -1.3281    0.8835 H         1 <0>         0.0824
     31 H8         -0.5711   -2.2401   -1.4181 H         1 <0>         0.0822
     32 H9         -0.5697   -3.8691   -0.6921 H         1 <0>         0.0827
     33 H10        -1.2350   -2.9560    1.4756 H         1 <0>         0.0408
     34 H11        -2.3680   -2.3575    0.2395 H         1 <0>         0.0918
     35 H12         3.7001   -5.0889    3.2012 H         1 <0>         0.1671
     36 H13         5.1760   -6.5002    4.5743 H         1 <0>         0.1545
     37 H14         5.0149   -7.1404   -0.3118 H         1 <0>         0.1741
@<TRIPOS>BOND
     1    1    2 1
     2    1   24 1
     3    1   25 1
     4    1   26 1
     5    2    7 1
     6    2    3 1
     7    3    4 1
     8    3   27 1
     9    3   28 1
    10    4    5 1
    11    4   29 1
    12    4   30 1
    13    5    6 1
    14    5    8 1
    15    6    7 1
    16    6   31 1
    17    6   32 1
    18    7   33 1
    19    7   34 1
    20    8   13 1
    21    8    9 2
    22    9   10 1
    23    9   23 1
    24   10   11 2
    25   10   12 am
    26   12   13 am
    27   12   15 1
    28   13   14 2
    29   15   20 ar
    30   15   16 ar
    31   16   17 ar
    32   16   35 1
    33   17   18 ar
    34   17   36 1
    35   18   19 ar
    36   18   22 1
    37   19   20 ar
    38   19   21 1
    39   20   37 1
@<TRIPOS>MOLECULE
ZINC19790360
   37    39     0     0     0
SMALL
USER_CHARGES

@<TRIPOS>ATOM
      1 C1         -1.9823   -0.3693    1.8815 C.3       1 <0>         0.0245
      2 N1         -0.9954   -0.9353    0.9522 N.3       1 <0>        -0.5414
      3 C2          0.3614   -0.8494    1.5087 C.3       1 <0>         0.0359
      4 C3          1.3751   -1.2798    0.4432 C.3       1 <0>         0.1381
      5 N2          0.9912   -2.6085   -0.0572 N.pl3     1 <0>        -0.6146
      6 C4         -0.3952   -2.8095   -0.5054 C.3       1 <0>         0.1359
      7 C5         -1.3392   -2.3188    0.5975 C.3       1 <0>         0.0383
      8 C6          1.9077   -3.6394   -0.1054 C.2       1 <0>         0.1802
      9 C7          2.3303   -4.3006   -1.2131 C.2       1 <0>        -0.1473
     10 C8          3.3012   -5.3054   -0.7625 C.2       1 <0>         0.5709
     11 O1          3.8935   -6.0878   -1.4795 O.2       1 <0>        -0.4283
     12 N3          3.4284   -5.2177    0.5729 N.am      1 <0>        -0.5216
     13 C9          2.6324   -4.2411    1.0446 C.2       1 <0>         0.5488
     14 O2          2.5227   -3.9109    2.2072 O.2       1 <0>        -0.4275
     15 C10         4.2689   -6.0201    1.3561 C.ar      1 <0>         0.1409
     16 C11         4.3143   -5.8437    2.7328 C.ar      1 <0>        -0.1344
     17 C12         5.1431   -6.6359    3.5026 C.ar      1 <0>        -0.0832
     18 C13         5.9282   -7.6043    2.9043 C.ar      1 <0>        -0.1149
     19 C14         5.8856   -7.7829    1.5327 C.ar      1 <0>        -0.0144
     20 C15         5.0534   -6.9964    0.7578 C.ar      1 <0>        -0.1315
     21 Cl1         6.8727   -8.9997    0.7853 Cl        1 <0>        -0.0540
     22 Cl2         1.8201   -4.0140   -2.8475 Cl        1 <0>         0.0238
     23 H1         -2.0086   -0.9675    2.7923 H         1 <0>         0.0271
     24 H2         -1.7038    0.6553    2.1276 H         1 <0>         0.0717
     25 H3         -2.9670   -0.3759    1.4140 H         1 <0>         0.0717
     26 H4          0.5659    0.1775    1.8115 H         1 <0>         0.0897
     27 H5          0.4419   -1.5071    2.3741 H         1 <0>         0.0449
     28 H6          1.3694   -0.5635   -0.3783 H         1 <0>         0.0838
     29 H7          2.3710   -1.3282    0.8836 H         1 <0>         0.0821
     30 H8         -0.5711   -2.2401   -1.4181 H         1 <0>         0.0818
     31 H9         -0.5697   -3.8691   -0.6921 H         1 <0>         0.0824
     32 H10        -1.2350   -2.9560    1.4756 H         1 <0>         0.0407
     33 H11        -2.3680   -2.3575    0.2395 H         1 <0>         0.0916
     34 H12         3.7021   -5.0872    3.2010 H         1 <0>         0.1579
     35 H13         5.1784   -6.4988    4.5733 H         1 <0>         0.1439
     36 H14         6.5760   -8.2221    3.5084 H         1 <0>         0.1408
     37 H15         5.0171   -7.1386   -0.3122 H         1 <0>         0.1656
@<TRIPOS>BOND
     1    1    2 1
     2    1   23 1
     3    1   24 1
     4    1   25 1
     5    2    7 1
     6    2    3 1
     7    3    4 1
     8    3   26 1
     9    3   27 1
    10    4    5 1
    11    4   28 1
    12    4   29 1
    13    5    6 1
    14    5    8 1
    15    6    7 1
    16    6   30 1
    17    6   31 1
    18    7   32 1
    19    7   33 1
    20    8   13 1
    21    8    9 2
    22    9   10 1
    23    9   22 1
    24   10   11 2
    25   10   12 am
    26   12   13 am
    27   12   15 1
    28   13   14 2
    29   15   20 ar
    30   15   16 ar
    31   16   17 ar
    32   16   34 1
    33   17   18 ar
    34   17   35 1
    35   18   19 ar
    36   18   36 1
    37   19   20 ar
    38   19   21 1
    39   20   37 1
@<TRIPOS>MOLECULE
ZINC00783201
   33    35     0     0     0
SMALL
USER_CHARGES
3-chloro-1-(3,4-dichlorophenyl)-4-morpholino-pyrrole-2,5-dione
@<TRIPOS>ATOM
      1 C1         -0.0527    4.5085   -0.0882 C.ar      1 <0>        -0.1204
      2 C2          1.1494    3.8359   -0.1937 C.ar      1 <0>        -0.0730
      3 C3          1.1630    2.4620   -0.3540 C.ar      1 <0>        -0.0386
      4 C4         -0.0282    1.7572   -0.4086 C.ar      1 <0>        -0.0106
      5 C5         -1.2331    2.4267   -0.3086 C.ar      1 <0>        -0.1209
      6 C6         -1.2481    3.8050   -0.1425 C.ar      1 <0>         0.1462
      7 N1         -2.4688    4.4859   -0.0356 N.am      1 <0>        -0.5217
      8 C7         -3.6827    3.9073   -0.0750 C.2       1 <0>         0.5473
      9 O1         -3.9024    2.7212   -0.2077 O.2       1 <0>        -0.4232
     10 C8         -4.7081    4.9735    0.0722 C.2       1 <0>         0.1808
     11 C9         -4.0300    6.1433    0.1925 C.2       1 <0>        -0.1451
     12 C10        -2.6009    5.8137    0.1275 C.2       1 <0>         0.5739
     13 O2         -1.6870    6.6110    0.2053 O.2       1 <0>        -0.4267
     14 Cl1        -4.7199    7.7239    0.3912 Cl        1 <0>         0.0262
     15 N2         -6.0781    4.8070    0.0842 N.pl3     1 <0>        -0.6169
     16 C11        -6.9276    5.4442   -0.9345 C.3       1 <0>         0.0958
     17 C12        -7.8518    4.3690   -1.5284 C.3       1 <0>         0.0465
     18 O3         -8.5317    3.6962   -0.4660 O.3       1 <0>        -0.3748
     19 C13        -7.6673    2.9921    0.4289 C.3       1 <0>         0.0438
     20 C14        -6.7331    3.9921    1.1197 C.3       1 <0>         0.0981
     21 Cl2        -0.0078    0.0330   -0.6098 Cl        1 <0>        -0.0320
     22 Cl3         2.6752    1.6199   -0.4874 Cl        1 <0>        -0.0382
     23 H1         -0.0624    5.5812    0.0370 H         1 <0>         0.1702
     24 H2          2.0794    4.3833   -0.1514 H         1 <0>         0.1556
     25 H3         -2.1621    1.8778   -0.3560 H         1 <0>         0.1713
     26 H4         -7.5243    6.2319   -0.4746 H         1 <0>         0.0831
     27 H5         -6.3028    5.8679   -1.7208 H         1 <0>         0.0889
     28 H6         -7.2607    3.6499   -2.0954 H         1 <0>         0.0586
     29 H7         -8.5815    4.8402   -2.1869 H         1 <0>         0.1106
     30 H8         -7.0755    2.2679   -0.1310 H         1 <0>         0.0622
     31 H9         -8.2643    2.4734    1.1790 H         1 <0>         0.1094
     32 H10        -5.9795    3.4538    1.6944 H         1 <0>         0.0888
     33 H11        -7.3106    4.6361    1.7829 H         1 <0>         0.0849
@<TRIPOS>BOND
     1    1    6 ar
     2    1    2 ar
     3    1   23 1
     4    2    3 ar
     5    2   24 1
     6    3    4 ar
     7    3   22 1
     8    4    5 ar
     9    4   21 1
    10    5    6 ar
    11    5   25 1
    12    6    7 1
    13    7   12 am
    14    7    8 am
    15    8    9 2
    16    8   10 1
    17   10   11 2
    18   10   15 1
    19   11   12 1
    20   11   14 1
    21   12   13 2
    22   15   20 1
    23   15   16 1
    24   16   17 1
    25   16   26 1
    26   16   27 1
    27   17   18 1
    28   17   28 1
    29   17   29 1
    30   18   19 1
    31   19   20 1
    32   19   30 1
    33   19   31 1
    34   20   32 1
    35   20   33 1
@<TRIPOS>MOLECULE
ZINC29052268
   43    46     0     0     0
SMALL
USER_CHARGES

@<TRIPOS>ATOM
      1 C1         -0.0184    1.5028    0.0103 C.3       1 <0>        -0.0972
      2 C2          0.0021   -0.0041    0.0020 C.2       1 <0>        -0.0653
      3 C3          0.0087   -0.8265   -1.1226 C.2       1 <0>        -0.2156
      4 C4          0.0279   -2.1174   -0.6993 C.2       1 <0>         0.0903
      5 N1          0.0337   -2.1385    0.6557 N.pl3     1 <0>        -0.5138
      6 H1          0.0467   -2.9348    1.2095 H         1 <0>         0.4355
      7 C5          0.0240   -0.8374    1.1158 C.2       1 <0>        -0.0281
      8 C6          0.0316   -0.4302    2.4589 C.2       1 <0>         0.1296
      9 C7          0.0541   -1.3832    3.4759 C.2       1 <0>        -0.0294
     10 C8          0.0587   -1.1175    4.9176 C.2       1 <0>         0.1213
     11 C9          0.0833   -2.3422    5.5222 C.2       1 <0>        -0.3147
     12 C10         0.0933   -3.3133    4.5018 C.2       1 <0>         0.2035
     13 N2          0.0700   -2.7222    3.3181 N.2       1 <0>        -0.4898
     14 C11         0.1194   -4.7715    4.7201 C.2       1 <0>         0.1361
     15 C12         0.1351   -5.7116    3.7386 C.2       1 <0>        -0.1509
     16 C13         0.1589   -7.0149    4.3981 C.ar      1 <0>        -0.1138
     17 C14         0.1811   -8.3342    3.9342 C.ar      1 <0>        -0.0664
     18 C15         0.1997   -9.3669    4.8277 C.ar      1 <0>        -0.1478
     19 C16         0.1967   -9.1180    6.1938 C.ar      1 <0>        -0.0936
     20 C17         0.1749   -7.8264    6.6735 C.ar      1 <0>        -0.1325
     21 C18         0.1558   -6.7580    5.7829 C.ar      1 <0>         0.1092
     22 N3          0.1377   -5.3907    5.9497 N.pl3     1 <0>        -0.5863
     23 H2          0.1353   -4.9330    6.8050 H         1 <0>         0.4152
     24 O1          0.0423    0.0969    5.5270 O.3       1 <0>        -0.2966
     25 C19         0.0511    0.1059    6.9560 C.3       1 <0>         0.0292
     26 C20         0.0408   -3.3307   -1.5930 C.3       1 <0>        -0.0999
     27 H3          1.0042    1.8801    0.0026 H         1 <0>         0.0764
     28 H4         -0.5455    1.8639   -0.8728 H         1 <0>         0.0750
     29 H5         -0.5286    1.8543    0.9071 H         1 <0>         0.0679
     30 H6          0.0001   -0.4958   -2.1507 H         1 <0>         0.1477
     31 H7          0.0200    0.6214    2.7044 H         1 <0>         0.1629
     32 H8          0.0937   -2.5310    6.5855 H         1 <0>         0.1360
     33 H9          0.1304   -5.5297    2.6740 H         1 <0>         0.1492
     34 H10         0.1833   -8.5355    2.8731 H         1 <0>         0.1233
     35 H11         0.2165  -10.3854    4.4689 H         1 <0>         0.1236
     36 H12         0.2111   -9.9454    6.8877 H         1 <0>         0.1262
     37 H13         0.1724   -7.6441    7.7380 H         1 <0>         0.1206
     38 H14         0.9517   -0.3908    7.3169 H         1 <0>         0.0569
     39 H15         0.0362    1.1357    7.3129 H         1 <0>         0.1041
     40 H16        -0.8280   -0.4204    7.3280 H         1 <0>         0.0569
     41 H17         1.0715   -3.6096   -1.8122 H         1 <0>         0.0832
     42 H18        -0.4602   -4.1578   -1.0899 H         1 <0>         0.0725
     43 H19        -0.4796   -3.1024   -2.5231 H         1 <0>         0.0892
@<TRIPOS>BOND
     1    1    2 1
     2    1   27 1
     3    1   28 1
     4    1   29 1
     5    2    7 2
     6    2    3 1
     7    3    4 2
     8    3   30 1
     9    4    5 1
    10    4   26 1
    11    5    6 1
    12    5    7 1
    13    7    8 1
    14    8    9 2
    15    8   31 1
    16    9   13 1
    17    9   10 1
    18   10   11 2
    19   10   24 1
    20   11   12 1
    21   11   32 1
    22   12   13 2
    23   12   14 1
    24   14   22 1
    25   14   15 2
    26   15   16 1
    27   15   33 1
    28   16   21 ar
    29   16   17 ar
    30   17   18 ar
    31   17   34 1
    32   18   19 ar
    33   18   35 1
    34   19   20 ar
    35   19   36 1
    36   20   21 ar
    37   20   37 1
    38   21   22 1
    39   22   23 1
    40   24   25 1
    41   25   38 1
    42   25   39 1
    43   25   40 1
    44   26   41 1
    45   26   42 1
    46   26   43 1
