@<TRIPOS>MOLECULE
ZINC04103786
   46    48     0     0     0
SMALL
USER_CHARGES
N-[4,5-dihydroxy-6-(hydroxymethyl)-2-(2-naphthyloxy)tetrahydropyran-3-yl]acetamide
@<TRIPOS>ATOM
      1 C1         -2.3769   -4.4906    4.0632 C.3       1 <0>        -0.1706
      2 C2         -3.1306   -3.8948    2.9022 C.2       1 <0>         0.5204
      3 O1         -4.0744   -4.4875    2.4237 O.2       1 <0>        -0.5401
      4 N1         -2.7558   -2.7035    2.3955 N.am      1 <0>        -0.6927
      5 C3         -3.4885   -2.1243    1.2668 C.3       1 <0>         0.1404
      6 H1         -4.5341   -2.4283    1.3156 H         1 <0>         0.1135
      7 C4         -2.8738   -2.6141   -0.0479 C.3       1 <0>         0.1029
      8 H2         -3.4500   -2.2246   -0.8872 H         1 <0>         0.0801
      9 C5         -1.4287   -2.1148   -0.1403 C.3       1 <0>         0.0473
     10 H3         -1.0011   -2.4121   -1.0979 H         1 <0>         0.0756
     11 C6         -1.4161   -0.5882   -0.0263 C.3       1 <0>         0.0672
     12 H4         -1.9690   -0.1567   -0.8607 H         1 <0>         0.0797
     13 O2         -2.0296   -0.1987    1.2042 O.3       1 <0>        -0.3713
     14 C7         -3.3964   -0.5973    1.3265 C.3       1 <0>         0.2524
     15 H5         -3.9753   -0.1661    0.5098 H         1 <0>         0.0791
     16 O3         -3.9173   -0.1367    2.5750 O.3       1 <0>        -0.2822
     17 C8         -4.1027    1.2027    2.7096 C.ar      1 <0>         0.1288
     18 C9         -3.7840    2.0537    1.6466 C.ar      1 <0>        -0.1701
     19 C10        -3.9586    3.3983    1.7511 C.ar      1 <0>        -0.0667
     20 C11        -4.4664    3.9449    2.9427 C.ar      1 <0>        -0.0791
     21 C12        -4.6599    5.3295    3.0846 C.ar      1 <0>        -0.0956
     22 C13        -5.1538    5.8247    4.2521 C.ar      1 <0>        -0.1268
     23 C14        -5.4722    4.9786    5.3129 C.ar      1 <0>        -0.1063
     24 C15        -5.2982    3.6327    5.2120 C.ar      1 <0>        -0.1137
     25 C16        -4.7902    3.0843    4.0214 C.ar      1 <0>        -0.0165
     26 C17        -4.6032    1.6996    3.8791 C.ar      1 <0>        -0.1467
     27 C18         0.0288   -0.0861   -0.0574 C.3       1 <0>         0.0825
     28 O4          0.0364    1.3429   -0.0670 O.3       1 <0>        -0.5607
     29 O5         -0.6594   -2.6795    0.9234 O.3       1 <0>        -0.5321
     30 O6         -2.8890   -4.0427   -0.0797 O.3       1 <0>        -0.5242
     31 H6         -2.4290   -3.8137    4.9160 H         1 <0>         0.0834
     32 H7         -2.8218   -5.4486    4.3321 H         1 <0>         0.0885
     33 H8         -1.3347   -4.6404    3.7814 H         1 <0>         0.0860
     34 H9         -2.0010   -2.2295    2.7783 H         1 <0>         0.4073
     35 H10        -3.3933    1.6373    0.7299 H         1 <0>         0.1297
     36 H11        -3.7078    4.0436    0.9222 H         1 <0>         0.1315
     37 H12        -4.4180    5.9974    2.2710 H         1 <0>         0.1266
     38 H13        -5.3011    6.8893    4.3583 H         1 <0>         0.1232
     39 H14        -5.8630    5.3973    6.2285 H         1 <0>         0.1240
     40 H15        -5.5489    2.9892    6.0423 H         1 <0>         0.1281
     41 H16        -4.8498    1.0319    4.6914 H         1 <0>         0.1350
     42 H17         0.5235   -0.4581   -0.9546 H         1 <0>         0.0661
     43 H18         0.5577   -0.4463    0.8250 H         1 <0>         0.0603
     44 H19         0.9217    1.7314   -0.0866 H         1 <0>         0.3856
     45 H20         0.2669   -2.4019    0.9293 H         1 <0>         0.3730
     46 H21        -2.5137   -4.4221   -0.8861 H         1 <0>         0.3771
@<TRIPOS>BOND
     1    1    2 1
     2    1   31 1
     3    1   32 1
     4    1   33 1
     5    2    3 2
     6    2    4 am
     7    4    5 1
     8    4   34 1
     9    5    6 1
    10    5   14 1
    11    5    7 1
    12    7    8 1
    13    7    9 1
    14    7   30 1
    15    9   10 1
    16    9   11 1
    17    9   29 1
    18   11   12 1
    19   11   13 1
    20   11   27 1
    21   13   14 1
    22   14   15 1
    23   14   16 1
    24   16   17 1
    25   17   26 ar
    26   17   18 ar
    27   18   19 ar
    28   18   35 1
    29   19   20 ar
    30   19   36 1
    31   20   25 ar
    32   20   21 ar
    33   21   22 ar
    34   21   37 1
    35   22   23 ar
    36   22   38 1
    37   23   24 ar
    38   23   39 1
    39   24   25 ar
    40   24   40 1
    41   25   26 ar
    42   26   41 1
    43   27   28 1
    44   27   42 1
    45   27   43 1
    46   28   44 1
    47   29   45 1
    48   30   46 1
@<TRIPOS>MOLECULE
ZINC04103787
   46    48     0     0     0
SMALL
USER_CHARGES
N-[4,5-dihydroxy-6-(hydroxymethyl)-2-(2-naphthyloxy)tetrahydropyran-3-yl]acetamide
@<TRIPOS>ATOM
      1 C1          7.3934    4.6421    3.0452 C.3       1 <0>        -0.1692
      2 C2          7.5076    4.0143    1.6800 C.2       1 <0>         0.5126
      3 O1          6.9454    4.5192    0.7313 O.2       1 <0>        -0.5193
      4 N1          8.2345    2.8917    1.5132 N.am      1 <0>        -0.7216
      5 C3          8.3456    2.2813    0.1860 C.3       1 <0>         0.1376
      6 H1          8.3671    3.0621   -0.5743 H         1 <0>         0.1241
      7 C4          9.6333    1.4556    0.1085 C.3       1 <0>         0.1136
      8 H2          9.6360    0.7065    0.9003 H         1 <0>         0.0800
      9 C5          9.6997    0.7603   -1.2548 C.3       1 <0>         0.0469
     10 H3         10.5855    0.1265   -1.2978 H         1 <0>         0.0820
     11 C6          8.4464   -0.0988   -1.4423 C.3       1 <0>         0.0646
     12 H4          8.4192   -0.8742   -0.6767 H         1 <0>         0.0798
     13 O2          7.2844    0.7250   -1.3279 O.3       1 <0>        -0.3678
     14 C7          7.1446    1.3635   -0.0571 C.3       1 <0>         0.2507
     15 H5          7.1002    0.6074    0.7267 H         1 <0>         0.0645
     16 O3          5.9430    2.1368   -0.0420 O.3       1 <0>        -0.2659
     17 C8          4.7691    1.4526   -0.0349 C.ar      1 <0>         0.1294
     18 C9          4.7853    0.0542   -0.0430 C.ar      1 <0>        -0.1708
     19 C10         3.6272   -0.6584   -0.0357 C.ar      1 <0>        -0.0690
     20 C11         2.3937    0.0160   -0.0208 C.ar      1 <0>        -0.0808
     21 C12         1.1781   -0.6890   -0.0129 C.ar      1 <0>        -0.0957
     22 C13         0.0021   -0.0041    0.0020 C.ar      1 <0>        -0.1284
     23 C14        -0.0168    1.3895    0.0097 C.ar      1 <0>        -0.1075
     24 C15         1.1403    2.1058    0.0025 C.ar      1 <0>        -0.1131
     25 C16         2.3746    1.4333   -0.0130 C.ar      1 <0>        -0.0156
     26 C17         3.5888    2.1394   -0.0203 C.ar      1 <0>        -0.1471
     27 C18         8.4763   -0.7495   -2.8267 C.3       1 <0>         0.0813
     28 O4          7.3669   -1.6406   -2.9582 O.3       1 <0>        -0.5602
     29 O5          9.7638    1.7435   -2.2897 O.3       1 <0>        -0.5357
     30 O6         10.7634    2.3168    0.2613 O.3       1 <0>        -0.5374
     31 H6          7.9609    4.0522    3.7650 H         1 <0>         0.0740
     32 H7          7.7908    5.6566    3.0130 H         1 <0>         0.0958
     33 H8          6.3459    4.6716    3.3450 H         1 <0>         0.0952
     34 H9          8.6841    2.4878    2.2719 H         1 <0>         0.4008
     35 H10         5.7311   -0.4672   -0.0552 H         1 <0>         0.1276
     36 H11         3.6548   -1.7380   -0.0422 H         1 <0>         0.1304
     37 H12         1.1771   -1.7690   -0.0184 H         1 <0>         0.1258
     38 H13        -0.9305   -0.5487    0.0084 H         1 <0>         0.1225
     39 H14        -0.9638    1.9086    0.0170 H         1 <0>         0.1235
     40 H15         1.1104    3.1854    0.0082 H         1 <0>         0.1279
     41 H16         3.5889    3.2194   -0.0142 H         1 <0>         0.1356
     42 H17         8.4144    0.0233   -3.5928 H         1 <0>         0.0616
     43 H18         9.4057   -1.3063   -2.9465 H         1 <0>         0.0671
     44 H19         7.3224   -2.0896   -3.8135 H         1 <0>         0.3858
     45 H20         9.8032    1.3732   -3.1822 H         1 <0>         0.3797
     46 H21        11.6147    1.8604    0.2156 H         1 <0>         0.3846
@<TRIPOS>BOND
     1    1    2 1
     2    1   31 1
     3    1   32 1
     4    1   33 1
     5    2    3 2
     6    2    4 am
     7    4    5 1
     8    4   34 1
     9    5    6 1
    10    5   14 1
    11    5    7 1
    12    7    8 1
    13    7    9 1
    14    7   30 1
    15    9   10 1
    16    9   11 1
    17    9   29 1
    18   11   12 1
    19   11   13 1
    20   11   27 1
    21   13   14 1
    22   14   15 1
    23   14   16 1
    24   16   17 1
    25   17   26 ar
    26   17   18 ar
    27   18   19 ar
    28   18   35 1
    29   19   20 ar
    30   19   36 1
    31   20   25 ar
    32   20   21 ar
    33   21   22 ar
    34   21   37 1
    35   22   23 ar
    36   22   38 1
    37   23   24 ar
    38   23   39 1
    39   24   25 ar
    40   24   40 1
    41   25   26 ar
    42   26   41 1
    43   27   28 1
    44   27   42 1
    45   27   43 1
    46   28   44 1
    47   29   45 1
    48   30   46 1
@<TRIPOS>MOLECULE
ZINC04103788
   46    48     0     0     0
SMALL
USER_CHARGES
N-[4,5-dihydroxy-6-(hydroxymethyl)-2-(2-naphthyloxy)tetrahydropyran-3-yl]acetamide
@<TRIPOS>ATOM
      1 C1         -8.1103    6.7956   -1.4380 C.3       1 <0>        -0.1716
      2 C2         -7.1471    7.2851   -0.3874 C.2       1 <0>         0.5167
      3 O1         -7.5467    7.5447    0.7278 O.2       1 <0>        -0.5515
      4 N1         -5.8416    7.4345   -0.6872 N.am      1 <0>        -0.6930
      5 C3         -4.9053    7.9104    0.3340 C.3       1 <0>         0.1452
      6 H1         -5.2084    7.5342    1.3111 H         1 <0>         0.1147
      7 C4         -4.9038    9.4421    0.3532 C.3       1 <0>         0.1015
      8 H2         -5.9163    9.8055    0.5293 H         1 <0>         0.0885
      9 C5         -4.4021    9.9582   -0.9989 C.3       1 <0>         0.0483
     10 H3         -4.3453   11.0465   -0.9750 H         1 <0>         0.0764
     11 C6         -3.0116    9.3793   -1.2732 C.3       1 <0>         0.0714
     12 H4         -2.3162    9.7254   -0.5084 H         1 <0>         0.0844
     13 O2         -3.0776    7.9520   -1.2465 O.3       1 <0>        -0.3744
     14 C7         -3.4954    7.4106    0.0083 C.3       1 <0>         0.2535
     15 H5         -2.8064    7.7308    0.7898 H         1 <0>         0.0873
     16 O3         -3.5012    5.9836   -0.0667 O.3       1 <0>        -0.2876
     17 C8         -2.2937    5.3649   -0.1419 C.ar      1 <0>         0.1308
     18 C9         -1.1242    6.1318   -0.1432 C.ar      1 <0>        -0.1687
     19 C10         0.0986    5.5416   -0.2180 C.ar      1 <0>        -0.0673
     20 C11         0.1933    4.1410   -0.2950 C.ar      1 <0>        -0.0794
     21 C12         1.4406    3.4986   -0.3738 C.ar      1 <0>        -0.0952
     22 C13         1.4956    2.1407   -0.4477 C.ar      1 <0>        -0.1277
     23 C14         0.3315    1.3741   -0.4465 C.ar      1 <0>        -0.1068
     24 C15        -0.8940    1.9616   -0.3766 C.ar      1 <0>        -0.1140
     25 C16        -0.9906    3.3616   -0.2938 C.ar      1 <0>        -0.0165
     26 C17        -2.2381    4.0023   -0.2156 C.ar      1 <0>        -0.1491
     27 C18        -2.5286    9.8421   -2.6491 C.3       1 <0>         0.0811
     28 O4         -1.1864    9.3977   -2.8571 O.3       1 <0>        -0.5597
     29 O5         -5.3017    9.5494   -2.0311 O.3       1 <0>        -0.5412
     30 O6         -4.0412    9.9080    1.3928 O.3       1 <0>        -0.5516
     31 H6         -7.8037    5.8069   -1.7795 H         1 <0>         0.0879
     32 H7         -9.1127    6.7388   -1.0137 H         1 <0>         0.0916
     33 H8         -8.1110    7.4870   -2.2807 H         1 <0>         0.0896
     34 H9         -5.5220    7.2269   -1.5792 H         1 <0>         0.4125
     35 H10        -1.1932    7.2079   -0.0837 H         1 <0>         0.1306
     36 H11         0.9934    6.1464   -0.2177 H         1 <0>         0.1313
     37 H12         2.3510    4.0795   -0.3761 H         1 <0>         0.1264
     38 H13         2.4556    1.6498   -0.5086 H         1 <0>         0.1229
     39 H14         0.4031    0.2982   -0.5065 H         1 <0>         0.1237
     40 H15        -1.7877    1.3552   -0.3811 H         1 <0>         0.1277
     41 H16        -3.1481    3.4207   -0.2141 H         1 <0>         0.1344
     42 H17        -3.1739    9.4224   -3.4209 H         1 <0>         0.0587
     43 H18        -2.5628   10.9304   -2.6991 H         1 <0>         0.0649
     44 H19        -0.8145    9.6560   -3.7115 H         1 <0>         0.3847
     45 H20        -5.0421    9.8390   -2.9165 H         1 <0>         0.3796
     46 H21        -3.9882   10.8714    1.4577 H         1 <0>         0.3891
@<TRIPOS>BOND
     1    1    2 1
     2    1   31 1
     3    1   32 1
     4    1   33 1
     5    2    3 2
     6    2    4 am
     7    4    5 1
     8    4   34 1
     9    5    6 1
    10    5   14 1
    11    5    7 1
    12    7    8 1
    13    7    9 1
    14    7   30 1
    15    9   10 1
    16    9   11 1
    17    9   29 1
    18   11   12 1
    19   11   13 1
    20   11   27 1
    21   13   14 1
    22   14   15 1
    23   14   16 1
    24   16   17 1
    25   17   26 ar
    26   17   18 ar
    27   18   19 ar
    28   18   35 1
    29   19   20 ar
    30   19   36 1
    31   20   25 ar
    32   20   21 ar
    33   21   22 ar
    34   21   37 1
    35   22   23 ar
    36   22   38 1
    37   23   24 ar
    38   23   39 1
    39   24   25 ar
    40   24   40 1
    41   25   26 ar
    42   26   41 1
    43   27   28 1
    44   27   42 1
    45   27   43 1
    46   28   44 1
    47   29   45 1
    48   30   46 1
@<TRIPOS>MOLECULE
ZINC04103789
   46    48     0     0     0
SMALL
USER_CHARGES
N-[4,5-dihydroxy-6-(hydroxymethyl)-2-(2-naphthyloxy)tetrahydropyran-3-yl]acetamide
@<TRIPOS>ATOM
      1 C1         -0.4134    9.7608    3.1487 C.3       1 <0>        -0.1698
      2 C2          0.1880    9.5670    1.7806 C.2       1 <0>         0.5099
      3 O1         -0.5292    9.3374    0.8299 O.2       1 <0>        -0.5203
      4 N1          1.5229    9.6487    1.6135 N.am      1 <0>        -0.7233
      5 C3          2.1075    9.4602    0.2835 C.3       1 <0>         0.1445
      6 H1          1.4380    9.8723   -0.4714 H         1 <0>         0.1259
      7 C4          3.4603   10.1752    0.2128 C.3       1 <0>         0.1083
      8 H2          3.3132   11.2475    0.3418 H         1 <0>         0.0917
      9 C5          4.0970    9.9062   -1.1542 C.3       1 <0>         0.0485
     10 H3          5.0848   10.3655   -1.1927 H         1 <0>         0.0817
     11 C6          4.2274    8.3946   -1.3591 C.3       1 <0>         0.0691
     12 H4          4.8893    7.9804   -0.5986 H         1 <0>         0.0839
     13 O2          2.9382    7.7877   -1.2506 O.3       1 <0>        -0.3716
     14 C7          2.3147    7.9659    0.0228 C.3       1 <0>         0.2492
     15 H5          2.9515    7.5460    0.8014 H         1 <0>         0.0723
     16 O3          1.0499    7.3009    0.0314 O.3       1 <0>        -0.2712
     17 C8          1.0673    5.9421    0.0234 C.ar      1 <0>         0.1317
     18 C9          2.2924    5.2677    0.0075 C.ar      1 <0>        -0.1692
     19 C10         2.3422    3.9089    0.0001 C.ar      1 <0>        -0.0700
     20 C11         1.1478    3.1673    0.0081 C.ar      1 <0>        -0.0812
     21 C12         1.1627    1.7621    0.0004 C.ar      1 <0>        -0.0953
     22 C13        -0.0126    1.0758    0.0080 C.ar      1 <0>        -0.1293
     23 C14        -1.2348    1.7456    0.0175 C.ar      1 <0>        -0.1080
     24 C15        -1.2883    3.1054    0.0311 C.ar      1 <0>        -0.1134
     25 C16        -0.0950    3.8486    0.0237 C.ar      1 <0>        -0.0156
     26 C17        -0.1117    5.2530    0.0315 C.ar      1 <0>        -0.1499
     27 C18         4.8073    8.1160   -2.7472 C.3       1 <0>         0.0797
     28 O4          5.0364    6.7133   -2.8950 O.3       1 <0>        -0.5594
     29 O5          3.2732   10.4583   -2.1830 O.3       1 <0>        -0.5446
     30 O6          4.3175    9.6828    1.2447 O.3       1 <0>        -0.5539
     31 H6          0.3801    9.9559    3.8701 H         1 <0>         0.0746
     32 H7         -1.1006   10.6066    3.1270 H         1 <0>         0.0956
     33 H8         -0.9547    8.8603    3.4386 H         1 <0>         0.0958
     34 H9          2.0965    9.8323    2.3739 H         1 <0>         0.4068
     35 H10         3.2119    5.8342    0.0013 H         1 <0>         0.1284
     36 H11         3.2955    3.4013   -0.0122 H         1 <0>         0.1300
     37 H12         2.1022    1.2294   -0.0118 H         1 <0>         0.1255
     38 H13         0.0021   -0.0041    0.0020 H         1 <0>         0.1221
     39 H14        -2.1530    1.1771    0.0187 H         1 <0>         0.1230
     40 H15        -2.2425    3.6110    0.0429 H         1 <0>         0.1274
     41 H16        -1.0516    5.7849    0.0434 H         1 <0>         0.1348
     42 H17         4.1036    8.4515   -3.5090 H         1 <0>         0.0596
     43 H18         5.7495    8.6521   -2.8617 H         1 <0>         0.0655
     44 H19         5.4045    6.4632   -3.7535 H         1 <0>         0.3848
     45 H20         3.6151   10.3204   -3.0770 H         1 <0>         0.3855
     46 H21         5.1950   10.0891    1.2544 H         1 <0>         0.3902
@<TRIPOS>BOND
     1    1    2 1
     2    1   31 1
     3    1   32 1
     4    1   33 1
     5    2    3 2
     6    2    4 am
     7    4    5 1
     8    4   34 1
     9    5    6 1
    10    5   14 1
    11    5    7 1
    12    7    8 1
    13    7    9 1
    14    7   30 1
    15    9   10 1
    16    9   11 1
    17    9   29 1
    18   11   12 1
    19   11   13 1
    20   11   27 1
    21   13   14 1
    22   14   15 1
    23   14   16 1
    24   16   17 1
    25   17   26 ar
    26   17   18 ar
    27   18   19 ar
    28   18   35 1
    29   19   20 ar
    30   19   36 1
    31   20   25 ar
    32   20   21 ar
    33   21   22 ar
    34   21   37 1
    35   22   23 ar
    36   22   38 1
    37   23   24 ar
    38   23   39 1
    39   24   25 ar
    40   24   40 1
    41   25   26 ar
    42   26   41 1
    43   27   28 1
    44   27   42 1
    45   27   43 1
    46   28   44 1
    47   29   45 1
    48   30   46 1
