@<TRIPOS>MOLECULE
ZINC26179223
  101   103     0     0     0
SMALL
USER_CHARGES

@<TRIPOS>ATOM
      1 C1          0.5596    3.9644   -2.2977 C.3       1 <0>        -0.1644
      2 C2          0.7418    2.7561   -1.3769 C.3       1 <0>        -0.0910
      3 C3          1.9817    2.9622   -0.5044 C.3       1 <0>        -0.1489
      4 C4         -0.4911    2.6053   -0.4835 C.3       1 <0>        -0.1174
      5 C5         -1.6978    2.2181   -1.3408 C.3       1 <0>         0.1356
      6 H1         -1.4556    1.3342   -1.9310 H         1 <0>         0.1094
      7 C6         -2.8736    1.9186   -0.4470 C.2       1 <0>         0.5148
      8 O1         -3.7327    2.7570   -0.2739 O.2       1 <0>        -0.5199
      9 N1         -2.9704    0.7192    0.1599 N.am      1 <0>        -0.7041
     10 C7         -4.1135    0.4281    1.0288 C.3       1 <0>         0.1372
     11 H2         -5.0047    0.9142    0.6319 H         1 <0>         0.1163
     12 C8         -4.3395   -1.0841    1.0847 C.3       1 <0>        -0.0837
     13 C9         -4.7388   -1.5831   -0.2801 C.ar      1 <0>        -0.0864
     14 C10        -6.0735   -1.6245   -0.6376 C.ar      1 <0>        -0.1140
     15 C11        -6.4398   -2.0823   -1.8895 C.ar      1 <0>        -0.1155
     16 C12        -5.4714   -2.4982   -2.7840 C.ar      1 <0>        -0.1163
     17 C13        -4.1367   -2.4560   -2.4267 C.ar      1 <0>        -0.1109
     18 C14        -3.7701   -1.9942   -1.1764 C.ar      1 <0>        -0.1080
     19 C15        -3.8345    0.9459    2.4163 C.2       1 <0>         0.5070
     20 O2         -2.7843    1.5033    2.6557 O.2       1 <0>        -0.5290
     21 N2         -4.7521    0.7897    3.3910 N.am      1 <0>        -0.8535
     22 N3         -2.0356    3.3264   -2.2373 N.am      1 <0>        -0.7017
     23 C16        -2.6401    3.0792   -3.4163 C.2       1 <0>         0.5264
     24 O3         -2.9884    1.9512   -3.6945 O.2       1 <0>        -0.5302
     25 C17        -2.8831    4.2043   -4.3890 C.3       1 <0>        -0.0915
     26 H3         -2.8388    5.1569   -3.8611 H         1 <0>         0.0985
     27 C18        -4.2641    4.0381   -5.0263 C.3       1 <0>        -0.0677
     28 C19        -5.3278    4.2164   -3.9737 C.ar      1 <0>        -0.0904
     29 C20        -5.8749    3.1108   -3.3498 C.ar      1 <0>        -0.0968
     30 C21        -6.8506    3.2743   -2.3843 C.ar      1 <0>        -0.1113
     31 C22        -7.2789    4.5434   -2.0424 C.ar      1 <0>        -0.1187
     32 C23        -6.7312    5.6490   -2.6657 C.ar      1 <0>        -0.1214
     33 C24        -5.7524    5.4857   -3.6282 C.ar      1 <0>        -0.1143
     34 C25        -1.8111    4.1756   -5.4803 C.3       1 <0>        -0.1407
     35 C26        -1.9829    5.3891   -6.3960 C.3       1 <0>         0.1002
     36 H4         -3.0003    5.4083   -6.7867 H         1 <0>         0.1158
     37 C27        -0.9921    5.2954   -7.5581 C.3       1 <0>         0.1403
     38 H5         -1.1223    4.3423   -8.0706 H         1 <0>         0.1027
     39 C28         0.4365    5.3939   -7.0195 C.3       1 <0>        -0.1040
     40 C29         1.4141    5.1791   -8.1461 C.ar      1 <0>        -0.0620
     41 C30         1.8555    3.9035   -8.4443 C.ar      1 <0>        -0.1054
     42 C31         2.7522    3.7064   -9.4777 C.ar      1 <0>        -0.1112
     43 C32         3.2072    4.7848  -10.2132 C.ar      1 <0>        -0.1221
     44 C33         2.7651    6.0603   -9.9155 C.ar      1 <0>        -0.1096
     45 C34         1.8651    6.2569   -8.8848 C.ar      1 <0>        -0.1097
     46 N4         -1.2364    6.3925   -8.4978 N.am      1 <0>        -0.7050
     47 C35        -0.8780    6.2648   -9.7907 C.2       1 <0>         0.6487
     48 O4         -0.3522    5.2397  -10.1770 O.2       1 <0>        -0.5469
     49 O5         -1.1025    7.2730  -10.6543 O.3       1 <0>        -0.3614
     50 C36        -0.6971    7.0691  -12.0093 C.3       1 <0>         0.1386
     51 C37        -1.4371    5.8608  -12.5867 C.3       1 <0>        -0.1851
     52 C38        -1.0309    8.3135  -12.8344 C.3       1 <0>        -0.1417
     53 C39         0.8108    6.8145  -12.0577 C.3       1 <0>        -0.1918
     54 O6         -1.7350    6.5848   -5.6539 O.3       1 <0>        -0.5516
     55 H6          1.4896    4.1571   -2.8326 H         1 <0>         0.0553
     56 H7         -0.2356    3.7585   -3.0142 H         1 <0>         0.0678
     57 H8          0.2950    4.8383   -1.7024 H         1 <0>         0.0552
     58 H9          0.8667    1.8561   -1.9789 H         1 <0>         0.0724
     59 H10         1.8568    3.8623    0.0975 H         1 <0>         0.0559
     60 H11         2.1115    2.1015    0.1516 H         1 <0>         0.0556
     61 H12         2.8600    3.0697   -1.1409 H         1 <0>         0.0570
     62 H13        -0.3088    1.8285    0.2591 H         1 <0>         0.0860
     63 H14        -0.6921    3.5503    0.0210 H         1 <0>         0.0776
     64 H15        -2.2833    0.0487    0.0215 H         1 <0>         0.4019
     65 H16        -3.4193   -1.5777    1.3971 H         1 <0>         0.0864
     66 H17        -5.1319   -1.3069    1.7992 H         1 <0>         0.0934
     67 H18        -6.8301   -1.2996    0.0612 H         1 <0>         0.1205
     68 H19        -7.4826   -2.1153   -2.1685 H         1 <0>         0.1217
     69 H20        -5.7577   -2.8565   -3.7617 H         1 <0>         0.1210
     70 H21        -3.3801   -2.7813   -3.1255 H         1 <0>         0.1218
     71 H22        -2.7271   -1.9577   -0.8987 H         1 <0>         0.1171
     72 H23        -5.5921    0.3439    3.1995 H         1 <0>         0.4011
     73 H24        -4.5726    1.1230    4.2840 H         1 <0>         0.4038
     74 H25        -1.8243    4.2381   -1.9824 H         1 <0>         0.4067
     75 H26        -4.3965    4.7871   -5.8071 H         1 <0>         0.0824
     76 H27        -4.3463    3.0419   -5.4608 H         1 <0>         0.0844
     77 H28        -5.5402    2.1193   -3.6168 H         1 <0>         0.1201
     78 H29        -7.2785    2.4105   -1.8973 H         1 <0>         0.1136
     79 H30        -8.0417    4.6711   -1.2886 H         1 <0>         0.1161
     80 H31        -7.0660    6.6405   -2.3989 H         1 <0>         0.1183
     81 H32        -5.3218    6.3497   -4.1125 H         1 <0>         0.1201
     82 H33        -0.8234    4.2046   -5.0201 H         1 <0>         0.0802
     83 H34        -1.9126    3.2615   -6.0654 H         1 <0>         0.0892
     84 H35         0.5938    6.3813   -6.5852 H         1 <0>         0.0784
     85 H36         0.5899    4.6322   -6.2550 H         1 <0>         0.0867
     86 H37         1.5000    3.0609   -7.8697 H         1 <0>         0.1138
     87 H38         3.0976    2.7098   -9.7103 H         1 <0>         0.1157
     88 H39         3.9083    4.6309  -11.0201 H         1 <0>         0.1149
     89 H40         3.1208    6.9028  -10.4899 H         1 <0>         0.1135
     90 H41         1.5168    7.2529   -8.6547 H         1 <0>         0.1084
     91 H42        -1.6562    7.2108   -8.1894 H         1 <0>         0.4087
     92 H43        -2.5113    6.0421  -12.5522 H         1 <0>         0.0570
     93 H44        -1.1278    5.7052  -13.6202 H         1 <0>         0.0675
     94 H45        -1.1993    4.9742  -11.9989 H         1 <0>         0.0882
     95 H46        -0.5037    9.1743  -12.4231 H         1 <0>         0.0653
     96 H47        -0.7216    8.1579  -13.8679 H         1 <0>         0.0791
     97 H48        -2.1051    8.4949  -12.7999 H         1 <0>         0.0653
     98 H49         1.0486    5.9279  -11.4699 H         1 <0>         0.1023
     99 H50         1.1201    6.6589  -13.0912 H         1 <0>         0.0643
    100 H51         1.3380    7.6753  -11.6463 H         1 <0>         0.0561
    101 H52        -0.8463    6.6361   -5.2760 H         1 <0>         0.3759
@<TRIPOS>BOND
     1    1    2 1
     2    1   55 1
     3    1   56 1
     4    1   57 1
     5    2    3 1
     6    2    4 1
     7    2   58 1
     8    3   59 1
     9    3   60 1
    10    3   61 1
    11    4    5 1
    12    4   62 1
    13    4   63 1
    14    5    6 1
    15    5    7 1
    16    5   22 1
    17    7    8 2
    18    7    9 am
    19    9   10 1
    20    9   64 1
    21   10   11 1
    22   10   12 1
    23   10   19 1
    24   12   13 1
    25   12   65 1
    26   12   66 1
    27   13   18 ar
    28   13   14 ar
    29   14   15 ar
    30   14   67 1
    31   15   16 ar
    32   15   68 1
    33   16   17 ar
    34   16   69 1
    35   17   18 ar
    36   17   70 1
    37   18   71 1
    38   19   20 2
    39   19   21 am
    40   21   72 1
    41   21   73 1
    42   22   23 am
    43   22   74 1
    44   23   24 2
    45   23   25 1
    46   25   26 1
    47   25   27 1
    48   25   34 1
    49   27   28 1
    50   27   75 1
    51   27   76 1
    52   28   33 ar
    53   28   29 ar
    54   29   30 ar
    55   29   77 1
    56   30   31 ar
    57   30   78 1
    58   31   32 ar
    59   31   79 1
    60   32   33 ar
    61   32   80 1
    62   33   81 1
    63   34   35 1
    64   34   82 1
    65   34   83 1
    66   35   36 1
    67   35   37 1
    68   35   54 1
    69   37   38 1
    70   37   39 1
    71   37   46 1
    72   39   40 1
    73   39   84 1
    74   39   85 1
    75   40   45 ar
    76   40   41 ar
    77   41   42 ar
    78   41   86 1
    79   42   43 ar
    80   42   87 1
    81   43   44 ar
    82   43   88 1
    83   44   45 ar
    84   44   89 1
    85   45   90 1
    86   46   47 am
    87   46   91 1
    88   47   48 2
    89   47   49 1
    90   49   50 1
    91   50   51 1
    92   50   52 1
    93   50   53 1
    94   51   92 1
    95   51   93 1
    96   51   94 1
    97   52   95 1
    98   52   96 1
    99   52   97 1
   100   53   98 1
   101   53   99 1
   102   53  100 1
   103   54  101 1
@<TRIPOS>MOLECULE
ZINC14962120
   62    64     0     0     0
SMALL
USER_CHARGES

@<TRIPOS>ATOM
      1 C1         -2.5885   -2.5504    0.7298 C.3       1 <0>        -0.1507
      2 C2         -1.3989   -1.7888    0.1418 C.3       1 <0>        -0.1237
      3 C3         -0.7679   -2.6160   -0.9801 C.3       1 <0>         0.0574
      4 O1          0.3432   -1.9046   -1.5292 O.3       1 <0>        -0.3146
      5 C4          1.0197   -2.5049   -2.5434 C.ar      1 <0>         0.1311
      6 C5          0.6158   -3.7516   -3.0026 C.ar      1 <0>        -0.1999
      7 C6          1.2995   -4.3643   -4.0309 C.ar      1 <0>        -0.0838
      8 C7          2.3994   -3.7292   -4.6113 C.ar      1 <0>        -0.0544
      9 C8          2.8019   -2.4753   -4.1469 C.ar      1 <0>        -0.0590
     10 C9          2.1094   -1.8674   -3.1216 C.ar      1 <0>        -0.1456
     11 C10         3.1355   -4.3823   -5.7135 C.2       1 <0>         0.0809
     12 C11         3.9008   -3.7505   -6.6503 C.2       1 <0>        -0.1769
     13 C12         4.4171   -4.7296   -7.5064 C.2       1 <0>        -0.1499
     14 C13         3.9570   -5.9398   -7.0755 C.2       1 <0>         0.0495
     15 N1          3.1731   -5.7293   -5.9691 N.pl3     1 <0>        -0.4156
     16 C14         2.4892   -6.7674   -5.1939 C.3       1 <0>         0.0729
     17 C15         1.1603   -7.0780   -5.8330 C.2       1 <0>         0.4920
     18 O2          0.8173   -6.4889   -6.8393 O.2       1 <0>        -0.5095
     19 N2          0.3618   -7.9979   -5.2954 N.2       1 <0>        -0.7032
     20 C16        -0.1060   -8.9893   -6.0431 C.2       1 <0>         0.7056
     21 N3         -1.0180   -9.8599   -5.5272 N.pl3     1 <0>        -0.8215
     22 N4          0.3259   -9.1366   -7.3268 N.pl3     1 <0>        -0.7356
     23 C17        -0.2735  -10.1585   -8.1886 C.3       1 <0>         0.1089
     24 C18         0.3865  -10.1134   -9.5681 C.3       1 <0>        -0.1337
     25 C19        -0.2394  -11.1806  -10.4682 C.3       1 <0>         0.0820
     26 O3          0.3770  -11.1385  -11.7567 O.3       1 <0>        -0.5712
     27 C20         4.2553   -7.2498   -7.6902 C.ar      1 <0>        -0.0059
     28 C21         4.7077   -8.3085   -6.9003 C.ar      1 <0>        -0.1105
     29 C22         4.9840   -9.5290   -7.4804 C.ar      1 <0>        -0.1121
     30 C23         4.8143   -9.7061   -8.8424 C.ar      1 <0>        -0.1072
     31 C24         4.3665   -8.6623   -9.6319 C.ar      1 <0>        -0.1075
     32 C25         4.0806   -7.4366   -9.0637 C.ar      1 <0>        -0.0186
     33 Cl1         3.5118   -6.1295  -10.0544 Cl        1 <0>        -0.0484
     34 H1         -3.3281   -2.7278   -0.0510 H         1 <0>         0.0577
     35 H2         -2.2468   -3.5049    1.1302 H         1 <0>         0.0578
     36 H3         -3.0380   -1.9611    1.5290 H         1 <0>         0.0655
     37 H4         -1.7405   -0.8343   -0.2586 H         1 <0>         0.0740
     38 H5         -0.6592   -1.6115    0.9226 H         1 <0>         0.0741
     39 H6         -0.4262   -3.5705   -0.5797 H         1 <0>         0.0626
     40 H7         -1.5075   -2.7933   -1.7608 H         1 <0>         0.0622
     41 H8         -0.2350   -4.2421   -2.5531 H         1 <0>         0.1288
     42 H9          0.9851   -5.3342   -4.3870 H         1 <0>         0.1243
     43 H10         3.6523   -1.9809   -4.5928 H         1 <0>         0.1368
     44 H11         2.4176   -0.8958   -2.7645 H         1 <0>         0.1354
     45 H12         4.0760   -2.6870   -6.7188 H         1 <0>         0.1413
     46 H13         5.0631   -4.5584   -8.3549 H         1 <0>         0.1391
     47 H14         3.1021   -7.6686   -5.1735 H         1 <0>         0.1144
     48 H15         2.3288   -6.4139   -4.1754 H         1 <0>         0.1248
     49 H16        -1.3255   -9.7550   -4.6132 H         1 <0>         0.4261
     50 H17        -1.3599  -10.5846   -6.0738 H         1 <0>         0.4109
     51 H18         1.0302   -8.5648   -7.6702 H         1 <0>         0.4205
     52 H19        -0.1215  -11.1425   -7.7451 H         1 <0>         0.0725
     53 H20        -1.3417   -9.9669   -8.2904 H         1 <0>         0.0741
     54 H21         0.2346   -9.1293  -10.0116 H         1 <0>         0.0821
     55 H22         1.4547  -10.3049   -9.4663 H         1 <0>         0.0801
     56 H23        -0.0875  -12.1646  -10.0247 H         1 <0>         0.0494
     57 H24        -1.3076  -10.9890  -10.5700 H         1 <0>         0.0497
     58 H25         0.0286  -11.7897  -12.3809 H         1 <0>         0.3850
     59 H26         4.8414   -8.1719   -5.8373 H         1 <0>         0.1285
     60 H27         5.3340  -10.3484   -6.8702 H         1 <0>         0.1308
     61 H28         5.0329  -10.6639   -9.2911 H         1 <0>         0.1331
     62 H29         4.2366   -8.8072  -10.6942 H         1 <0>         0.1372
@<TRIPOS>BOND
     1    1    2 1
     2    1   34 1
     3    1   35 1
     4    1   36 1
     5    2    3 1
     6    2   37 1
     7    2   38 1
     8    3    4 1
     9    3   39 1
    10    3   40 1
    11    4    5 1
    12    5   10 ar
    13    5    6 ar
    14    6    7 ar
    15    6   41 1
    16    7    8 ar
    17    7   42 1
    18    8    9 ar
    19    8   11 1
    20    9   10 ar
    21    9   43 1
    22   10   44 1
    23   11   15 1
    24   11   12 2
    25   12   13 1
    26   12   45 1
    27   13   14 2
    28   13   46 1
    29   14   15 1
    30   14   27 1
    31   15   16 1
    32   16   17 1
    33   16   47 1
    34   16   48 1
    35   17   18 2
    36   17   19 1
    37   19   20 2
    38   20   21 1
    39   20   22 1
    40   21   49 1
    41   21   50 1
    42   22   23 1
    43   22   51 1
    44   23   24 1
    45   23   52 1
    46   23   53 1
    47   24   25 1
    48   24   54 1
    49   24   55 1
    50   25   26 1
    51   25   56 1
    52   25   57 1
    53   26   58 1
    54   27   32 ar
    55   27   28 ar
    56   28   29 ar
    57   28   59 1
    58   29   30 ar
    59   29   60 1
    60   30   31 ar
    61   30   61 1
    62   31   32 ar
    63   31   62 1
    64   32   33 1
