@<TRIPOS>MOLECULE
ZINC20148984
   41    45     0     0     0
SMALL
USER_CHARGES
1-cyclopentyl-3-(1H-pyrrolo[3,2-e]pyridin-5-yl)pyrazolo[4,5-e]pyrimidin-4-amine
@<TRIPOS>ATOM
      1 C1          4.4845    4.9055    2.0125 C.2       1 <0>        -0.1900
      2 C2          5.5992    4.3307    1.5348 C.2       1 <0>         0.0669
      3 N1          5.2848    3.4893    0.5015 N.pl3     1 <0>        -0.5784
      4 H1          5.9256    2.9627   -0.0014 H         1 <0>         0.4233
      5 C3          3.9281    3.5001    0.2812 C.ar      1 <0>         0.2921
      6 C4          3.3669    4.3889    1.2195 C.ar      1 <0>        -0.1505
      7 C5          1.9890    4.6049    1.2249 C.ar      1 <0>         0.0123
      8 C6          1.2154    3.9130    0.2940 C.ar      1 <0>        -0.1086
      9 C7          1.8449    3.0477   -0.6050 C.ar      1 <0>         0.1517
     10 N2          3.1471    2.8701   -0.5872 N.ar      1 <0>        -0.4865
     11 C8         -0.2553    4.0974    0.2542 C.2       1 <0>         0.1769
     12 C9         -1.2579    3.0400    0.1283 C.ar      1 <0>        -0.3246
     13 C10        -1.2161    1.6416    0.0009 C.ar      1 <0>         0.5185
     14 N3         -2.3661    0.9828   -0.1017 N.ar      1 <0>        -0.6042
     15 C11        -3.5224    1.6223   -0.0898 C.ar      1 <0>         0.3863
     16 N4         -3.6100    2.9293    0.0228 N.ar      1 <0>        -0.5738
     17 C12        -2.5123    3.6779    0.1313 C.ar      1 <0>         0.3755
     18 N5         -2.2765    5.0144    0.2581 N.pl3     1 <0>        -0.3684
     19 N6         -0.8976    5.2388    0.3304 N.2       1 <0>        -0.2292
     20 C13        -3.3071    6.0542    0.3110 C.3       1 <0>         0.1632
     21 C14        -3.0862    7.0753   -0.8240 C.3       1 <0>        -0.1330
     22 C15        -3.4640    8.4369   -0.1879 C.3       1 <0>        -0.1220
     23 C16        -2.9184    8.3038    1.2556 C.3       1 <0>        -0.1210
     24 C17        -3.2009    6.8348    1.6328 C.3       1 <0>        -0.1322
     25 N7         -0.0104    0.9674   -0.0117 N.pl3     1 <0>        -0.8291
     26 H2          4.4234    5.6137    2.8256 H         1 <0>         0.1556
     27 H3          6.5967    4.5059    1.9100 H         1 <0>         0.1829
     28 H4          1.5348    5.2845    1.9308 H         1 <0>         0.1424
     29 H5          1.2485    2.5132   -1.3297 H         1 <0>         0.1671
     30 H6         -4.4328    1.0478   -0.1756 H         1 <0>         0.2050
     31 H7         -4.2959    5.6044    0.2215 H         1 <0>         0.1144
     32 H8         -2.0422    7.0775   -1.1374 H         1 <0>         0.0814
     33 H9         -3.7386    6.8539   -1.6687 H         1 <0>         0.0742
     34 H10        -4.5455    8.5726   -0.1810 H         1 <0>         0.0720
     35 H11        -2.9740    9.2575   -0.7119 H         1 <0>         0.0733
     36 H12        -3.4484    8.9788    1.9276 H         1 <0>         0.0704
     37 H13        -1.8473    8.5043    1.2786 H         1 <0>         0.0705
     38 H14        -4.1384    6.7646    2.1843 H         1 <0>         0.0772
     39 H15        -2.3825    6.4400    2.2349 H         1 <0>         0.0748
     40 H16         0.0305    0.0526   -0.3317 H         1 <0>         0.4120
     41 H17         0.7961    1.4102    0.2956 H         1 <0>         0.4116
@<TRIPOS>BOND
     1    1    6 1
     2    1    2 2
     3    1   26 1
     4    2    3 1
     5    2   27 1
     6    3    4 1
     7    3    5 1
     8    5   10 ar
     9    5    6 ar
    10    6    7 ar
    11    7    8 ar
    12    7   28 1
    13    8    9 ar
    14    8   11 1
    15    9   10 ar
    16    9   29 1
    17   11   19 2
    18   11   12 1
    19   12   17 ar
    20   12   13 ar
    21   13   14 ar
    22   13   25 1
    23   14   15 ar
    24   15   16 ar
    25   15   30 1
    26   16   17 ar
    27   17   18 1
    28   18   19 1
    29   18   20 1
    30   20   24 1
    31   20   21 1
    32   20   31 1
    33   21   22 1
    34   21   32 1
    35   21   33 1
    36   22   23 1
    37   22   34 1
    38   22   35 1
    39   23   24 1
    40   23   36 1
    41   23   37 1
    42   24   38 1
    43   24   39 1
    44   25   40 1
    45   25   41 1
@<TRIPOS>MOLECULE
ZINC64539753
   47    49     0     0     0
SMALL
USER_CHARGES

@<TRIPOS>ATOM
      1 C1          0.0411    1.4484   -0.9047 C.ar      1 <0>        -0.1294
      2 C2          1.2157    2.1433   -0.6898 C.ar      1 <0>        -0.0651
      3 C3          2.4071    1.4537   -0.4670 C.ar      1 <0>        -0.0684
      4 C4          2.4125    0.0624   -0.4614 C.ar      1 <0>        -0.0093
      5 C5          1.2253   -0.6340   -0.6787 C.ar      1 <0>        -0.1413
      6 C6          0.0385    0.0681   -0.9006 C.ar      1 <0>        -0.0672
      7 C7          1.2220   -2.1126   -0.6749 C.2       1 <0>         0.5582
      8 O1          2.2558   -2.7222   -0.4820 O.2       1 <0>        -0.5305
      9 N1          0.0727   -2.7845   -0.8852 N.am      1 <0>        -0.7213
     10 C8          0.0695   -4.2495   -0.8814 C.3       1 <0>         0.1187
     11 C9         -1.3501   -4.7571   -1.1422 C.3       1 <0>         0.0622
     12 O2         -1.7556   -4.3816   -2.4600 O.3       1 <0>        -0.5722
     13 C10         3.6669    2.2024   -0.2370 C.ar      1 <0>         0.2499
     14 C11         3.6550    3.5912   -0.1321 C.ar      1 <0>        -0.2722
     15 C12         4.8664    4.2464    0.0841 C.ar      1 <0>         0.4329
     16 N2          5.9813    3.5264    0.1816 N.ar      1 <0>        -0.5679
     17 C13         5.9508    2.2132    0.0767 C.ar      1 <0>         0.3473
     18 N3          4.8275    1.5557   -0.1220 N.ar      1 <0>        -0.5458
     19 N4          4.9090    5.6278    0.1954 N.pl3     1 <0>        -0.6508
     20 C14         6.1419    6.2851    0.2859 C.ar      1 <0>         0.1436
     21 C15         7.2388    5.8043   -0.4169 C.ar      1 <0>        -0.0763
     22 C16         8.4544    6.4532   -0.3271 C.ar      1 <0>        -0.1003
     23 C17         8.5800    7.5850    0.4649 C.ar      1 <0>         0.0869
     24 C18         7.4848    8.0660    1.1673 C.ar      1 <0>        -0.1678
     25 C19         6.2670    7.4216    1.0741 C.ar      1 <0>        -0.1073
     26 O3          9.7776    8.2232    0.5532 O.3       1 <0>        -0.3095
     27 C20         9.8352    9.3823    1.3869 C.3       1 <0>         0.6037
     28 F1          9.4991    9.0305    2.6986 F         1 <0>        -0.1650
     29 F2         11.1306    9.9102    1.3630 F         1 <0>        -0.1305
     30 F3          8.9321   10.3412    0.9154 F         1 <0>        -0.1655
     31 H1         -0.8796    1.9874   -1.0722 H         1 <0>         0.1372
     32 H2          1.2111    3.2232   -0.6946 H         1 <0>         0.1336
     33 H3          3.3331   -0.4755   -0.2897 H         1 <0>         0.1528
     34 H4         -0.8827   -0.4698   -1.0693 H         1 <0>         0.1299
     35 H5         -0.7522   -2.2981   -1.0391 H         1 <0>         0.4026
     36 H6          0.7357   -4.6164   -1.6623 H         1 <0>         0.0786
     37 H7          0.4123   -4.6111    0.0881 H         1 <0>         0.0857
     38 H8         -1.3700   -5.8431   -1.0515 H         1 <0>         0.0667
     39 H9         -2.0322   -4.3191   -0.4135 H         1 <0>         0.0545
     40 H10        -2.6480   -4.6711   -2.6944 H         1 <0>         0.3844
     41 H11         2.7321    4.1457   -0.2164 H         1 <0>         0.1468
     42 H12         6.8742    1.6594    0.1607 H         1 <0>         0.2025
     43 H13         4.0846    6.1388    0.2106 H         1 <0>         0.4229
     44 H14         7.1412    4.9228   -1.0333 H         1 <0>         0.1466
     45 H15         9.3077    6.0791   -0.8733 H         1 <0>         0.1431
     46 H16         7.5835    8.9473    1.7837 H         1 <0>         0.1370
     47 H17         5.4133    7.7988    1.6174 H         1 <0>         0.1354
@<TRIPOS>BOND
     1    1    6 ar
     2    1    2 ar
     3    1   31 1
     4    2    3 ar
     5    2   32 1
     6    3    4 ar
     7    3   13 1
     8    4    5 ar
     9    4   33 1
    10    5    6 ar
    11    5    7 1
    12    6   34 1
    13    7    8 2
    14    7    9 am
    15    9   10 1
    16    9   35 1
    17   10   11 1
    18   10   36 1
    19   10   37 1
    20   11   12 1
    21   11   38 1
    22   11   39 1
    23   12   40 1
    24   13   18 ar
    25   13   14 ar
    26   14   15 ar
    27   14   41 1
    28   15   16 ar
    29   15   19 1
    30   16   17 ar
    31   17   18 ar
    32   17   42 1
    33   19   20 1
    34   19   43 1
    35   20   25 ar
    36   20   21 ar
    37   21   22 ar
    38   21   44 1
    39   22   23 ar
    40   22   45 1
    41   23   24 ar
    42   23   26 1
    43   24   25 ar
    44   24   46 1
    45   25   47 1
    46   26   27 1
    47   27   28 1
    48   27   29 1
    49   27   30 1
@<TRIPOS>MOLECULE
ZINC06315584
   29    31     0     0     0
SMALL
USER_CHARGES
N-[4-(trifluoromethoxy)phenyl]-1H-pyrazolo[4,3-e]pyrimidin-4-amine
@<TRIPOS>ATOM
      1 C1          0.1574   -2.7394   -0.1048 C.ar      1 <0>        -0.0691
      2 C2          0.2438   -4.1144   -0.1992 C.ar      1 <0>        -0.1683
      3 C3         -0.9108   -4.8776   -0.2914 C.ar      1 <0>         0.0892
      4 C4         -2.1533   -4.2608   -0.2831 C.ar      1 <0>        -0.1015
      5 C5         -2.2416   -2.8864   -0.1835 C.ar      1 <0>        -0.1089
      6 C6         -1.0862   -2.1216   -0.0912 C.ar      1 <0>         0.1361
      7 N1         -1.1749   -0.7280    0.0098 N.pl3     1 <0>        -0.6362
      8 C7         -0.2341   -0.0269    0.7398 C.ar      1 <0>         0.5109
      9 C8         -0.2382    1.3815    0.7583 C.ar      1 <0>        -0.3267
     10 C9         -1.0346    2.3799    0.1572 C.2       1 <0>         0.1062
     11 N2         -0.5838    3.5450    0.5261 N.2       1 <0>        -0.2416
     12 N3          0.5216    3.3777    1.3698 N.pl3     1 <0>        -0.4796
     13 H1          1.0551    4.1121    1.7892 H         1 <0>         0.4568
     14 C10         0.7450    2.0415    1.5208 C.ar      1 <0>         0.3736
     15 N4          1.6353    1.3116    2.1912 N.ar      1 <0>        -0.5695
     16 C11         1.5990   -0.0019    2.1428 C.ar      1 <0>         0.3890
     17 N5          0.6962   -0.6649    1.4418 N.ar      1 <0>        -0.5953
     18 O1         -0.8247   -6.2312   -0.3895 O.3       1 <0>        -0.3103
     19 C12         0.4865   -6.7993   -0.3920 C.3       1 <0>         0.6040
     20 F1          1.1413   -6.4663    0.7986 F         1 <0>        -0.1637
     21 F2          0.3915   -8.1910   -0.4984 F         1 <0>        -0.1307
     22 F3          1.2103   -6.2969   -1.4787 F         1 <0>        -0.1649
     23 H2          1.0566   -2.1450   -0.0379 H         1 <0>         0.1480
     24 H3          1.2108   -4.5954   -0.2057 H         1 <0>         0.1373
     25 H4         -3.0518   -4.8558   -0.3550 H         1 <0>         0.1442
     26 H5         -3.2091   -2.4063   -0.1771 H         1 <0>         0.1412
     27 H6         -1.8967   -0.2546   -0.4326 H         1 <0>         0.4245
     28 H7         -1.8763    2.2070   -0.4971 H         1 <0>         0.1973
     29 H8          2.3368   -0.5615    2.6987 H         1 <0>         0.2081
@<TRIPOS>BOND
     1    1    6 ar
     2    1    2 ar
     3    1   23 1
     4    2    3 ar
     5    2   24 1
     6    3    4 ar
     7    3   18 1
     8    4    5 ar
     9    4   25 1
    10    5    6 ar
    11    5   26 1
    12    6    7 1
    13    7    8 1
    14    7   27 1
    15    8   17 ar
    16    8    9 ar
    17    9   14 ar
    18    9   10 1
    19   10   11 2
    20   10   28 1
    21   11   12 1
    22   12   13 1
    23   12   14 1
    24   14   15 ar
    25   15   16 ar
    26   16   17 ar
    27   16   29 1
    28   18   19 1
    29   19   20 1
    30   19   21 1
    31   19   22 1
@<TRIPOS>MOLECULE
ZINC21982951
   60    63     0     0     0
SMALL
USER_CHARGES

@<TRIPOS>ATOM
      1 C1         -2.0700    1.6928    0.2333 C.3       1 <0>        -0.1170
      2 C2         -1.6482    0.2604    0.0301 C.ar      1 <0>        -0.0813
      3 C3         -1.8479   -0.3525   -1.1919 C.ar      1 <0>        -0.1034
      4 C4         -1.4615   -1.6665   -1.3798 C.ar      1 <0>        -0.0990
      5 C5         -0.8738   -2.3725   -0.3459 C.ar      1 <0>        -0.1046
      6 C6         -0.6714   -1.7660    0.8791 C.ar      1 <0>        -0.0220
      7 C7         -1.0534   -0.4428    1.0688 C.ar      1 <0>         0.1347
      8 N1         -0.8441    0.1769    2.3055 N.am      1 <0>        -0.6659
      9 C8         -1.2819   -0.4110    3.4365 C.2       1 <0>         0.6018
     10 O1         -1.7689   -1.5261    3.3939 O.2       1 <0>        -0.4722
     11 C9         -1.1720    0.2905    4.7149 C.2       1 <0>        -0.2635
     12 C10        -1.5472   -0.1201    5.9866 C.2       1 <0>         0.1512
     13 N2         -1.3262    0.7270    6.9599 N.2       1 <0>        -0.5510
     14 C11        -0.7756    1.9070    6.7361 C.2       1 <0>         0.2513
     15 S1         -0.5107    1.9100    5.0742 S.3       1 <0>         0.2445
     16 N3         -0.4817    2.8997    7.6498 N.pl3     1 <0>        -0.5870
     17 C12        -0.6908    2.6801    9.0050 C.ar      1 <0>         0.4543
     18 C13        -1.0534    1.4192    9.4679 C.ar      1 <0>        -0.2926
     19 C14        -1.2512    1.2508   10.8352 C.ar      1 <0>         0.4935
     20 N4         -1.0875    2.2952   11.6453 N.ar      1 <0>        -0.5328
     21 C15        -0.7435    3.4737   11.1677 C.ar      1 <0>         0.4541
     22 N5         -0.5417    3.6719    9.8809 N.ar      1 <0>        -0.5672
     23 C16        -0.5694    4.6273   12.1217 C.3       1 <0>        -0.1251
     24 N6         -1.6138    0.0143   11.3464 N.pl3     1 <0>        -0.5370
     25 C17        -2.0559   -0.1253   12.7422 C.3       1 <0>         0.1090
     26 C18        -3.3866   -0.8852   12.7576 C.3       1 <0>         0.0383
     27 N7         -3.2335   -2.1493   12.0251 N.3       1 <0>        -0.5289
     28 C19        -2.9165   -1.9105   10.6107 C.3       1 <0>         0.0343
     29 C20        -1.5725   -1.1917   10.5056 C.3       1 <0>         0.1057
     30 C21        -4.4334   -2.9856   12.1619 C.3       1 <0>         0.0545
     31 C22        -4.1483   -4.3816   11.6043 C.3       1 <0>         0.0776
     32 O2         -3.1500   -5.0191   12.4038 O.3       1 <0>        -0.5606
     33 Cl1         0.0658   -2.6526    2.1768 Cl        1 <0>        -0.0453
     34 H1         -1.2464    2.3553   -0.0328 H         1 <0>         0.0773
     35 H2         -2.9308    1.9112   -0.3987 H         1 <0>         0.0785
     36 H3         -2.3379    1.8478    1.2784 H         1 <0>         0.0640
     37 H4         -2.3069    0.1956   -2.0014 H         1 <0>         0.1372
     38 H5         -1.6193   -2.1430   -2.3361 H         1 <0>         0.1391
     39 H6         -0.5731   -3.3989   -0.4959 H         1 <0>         0.1403
     40 H7         -0.3838    1.0296    2.3489 H         1 <0>         0.4083
     41 H8         -1.9972   -1.0858    6.1634 H         1 <0>         0.2027
     42 H9         -0.1293    3.7505    7.3451 H         1 <0>         0.4460
     43 H10        -1.1784    0.5927    8.7841 H         1 <0>         0.2218
     44 H11         0.4644    4.6619   12.4652 H         1 <0>         0.1245
     45 H12        -0.8146    5.5596   11.6130 H         1 <0>         0.1071
     46 H13        -1.2322    4.4948   12.9768 H         1 <0>         0.1273
     47 H14        -1.3096   -0.6823   13.3087 H         1 <0>         0.0989
     48 H15        -2.1929    0.8619   13.1834 H         1 <0>         0.1094
     49 H16        -3.6740   -1.0944   13.7880 H         1 <0>         0.1036
     50 H17        -4.1569   -0.2794   12.2806 H         1 <0>         0.0428
     51 H18        -2.8631   -2.8634   10.0841 H         1 <0>         0.1043
     52 H19        -3.6935   -1.2904   10.1636 H         1 <0>         0.0450
     53 H20        -1.3900   -0.9091    9.4688 H         1 <0>         0.1029
     54 H21        -0.7788   -1.8532   10.8529 H         1 <0>         0.1042
     55 H22        -4.7041   -3.0633   13.2149 H         1 <0>         0.0912
     56 H23        -5.2561   -2.5340   11.6075 H         1 <0>         0.0533
     57 H24        -5.0627   -4.9745   11.6240 H         1 <0>         0.0547
     58 H25        -3.7921   -4.2970   10.5776 H         1 <0>         0.0454
     59 H26        -2.9188   -5.9101   12.1076 H         1 <0>         0.3805
     60 H27        -0.2852    4.5531    9.5669 H         1 <0>         0.4414
@<TRIPOS>BOND
     1    1    2 1
     2    1   34 1
     3    1   35 1
     4    1   36 1
     5    2    7 ar
     6    2    3 ar
     7    3    4 ar
     8    3   37 1
     9    4    5 ar
    10    4   38 1
    11    5    6 ar
    12    5   39 1
    13    6    7 ar
    14    6   33 1
    15    7    8 1
    16    8    9 am
    17    8   40 1
    18    9   10 2
    19    9   11 1
    20   11   15 1
    21   11   12 2
    22   12   13 1
    23   12   41 1
    24   13   14 2
    25   14   15 1
    26   14   16 1
    27   16   17 1
    28   16   42 1
    29   17   22 ar
    30   17   18 ar
    31   18   19 ar
    32   18   43 1
    33   19   20 ar
    34   19   24 1
    35   20   21 ar
    36   21   22 ar
    37   21   23 1
    38   22   60 1
    39   23   44 1
    40   23   45 1
    41   23   46 1
    42   24   29 1
    43   24   25 1
    44   25   26 1
    45   25   47 1
    46   25   48 1
    47   26   27 1
    48   26   49 1
    49   26   50 1
    50   27   28 1
    51   27   30 1
    52   28   29 1
    53   28   51 1
    54   28   52 1
    55   29   53 1
    56   29   54 1
    57   30   31 1
    58   30   55 1
    59   30   56 1
    60   31   32 1
    61   31   57 1
    62   31   58 1
    63   32   59 1
@<TRIPOS>MOLECULE
ZINC21982951
   60    63     0     0     0
SMALL
USER_CHARGES

@<TRIPOS>ATOM
      1 C1          3.2739    6.6585    1.8418 C.3       1 <0>        -0.1168
      2 C2          2.5810    7.9910    1.9663 C.ar      1 <0>        -0.0823
      3 C3          2.8983    9.0189    1.0995 C.ar      1 <0>        -0.1038
      4 C4          2.2635   10.2419    1.2126 C.ar      1 <0>        -0.1008
      5 C5          1.3088   10.4411    2.1933 C.ar      1 <0>        -0.1049
      6 C6          0.9869    9.4175    3.0639 C.ar      1 <0>        -0.0226
      7 C7          1.6192    8.1849    2.9486 C.ar      1 <0>         0.1373
      8 N1          1.2913    7.1440    3.8238 N.am      1 <0>        -0.6678
      9 C8          1.3128    7.3511    5.1554 C.2       1 <0>         0.6036
     10 O1          1.5184    8.4680    5.5945 O.2       1 <0>        -0.4759
     11 C9          1.0891    6.2346    6.0728 C.2       1 <0>        -0.2694
     12 C10         1.0619    6.2190    7.4604 C.2       1 <0>         0.1522
     13 N2          0.8357    5.0596    8.0247 N.2       1 <0>        -0.5060
     14 C11         0.6446    3.9678    7.3056 C.2       1 <0>         0.2464
     15 S1          0.7674    4.5141    5.7185 S.3       1 <0>         0.2029
     16 N3          0.3973    2.6842    7.7505 N.pl3     1 <0>        -0.5650
     17 C12         0.2197    2.4414    9.1063 C.ar      1 <0>         0.4999
     18 C13        -0.1342    1.1736    9.5555 C.ar      1 <0>        -0.3181
     19 C14        -0.3003    0.9817   10.9244 C.ar      1 <0>         0.4940
     20 N4         -0.1157    2.0114   11.7481 N.ar      1 <0>        -0.5712
     21 C15         0.2193    3.1978   11.2829 C.ar      1 <0>         0.4509
     22 N5          0.3911    3.4178    9.9956 N.ar      1 <0>        -0.4879
     23 C16         0.4179    4.3344   12.2523 C.3       1 <0>        -0.1253
     24 N6         -0.6531   -0.2629   11.4224 N.pl3     1 <0>        -0.5744
     25 C17        -0.9639   -0.4449   12.8484 C.3       1 <0>         0.1013
     26 C18        -2.3114   -1.1652   12.9649 C.3       1 <0>         0.0387
     27 N7         -2.2712   -2.4031   12.1749 N.3       1 <0>        -0.5277
     28 C19        -2.0835   -2.1176   10.7462 C.3       1 <0>         0.0305
     29 C20        -0.7325   -1.4351   10.5377 C.3       1 <0>         0.1149
     30 C21        -3.4796   -3.2085   12.3965 C.3       1 <0>         0.0543
     31 C22        -3.2958   -4.5889   11.7629 C.3       1 <0>         0.0774
     32 O2         -2.2472   -5.2869   12.4378 O.3       1 <0>        -0.5615
     33 Cl1        -0.2110    9.6681    4.2952 Cl        1 <0>        -0.0453
     34 H1          2.7121    6.0191    1.1609 H         1 <0>         0.0767
     35 H2          4.2810    6.8077    1.4524 H         1 <0>         0.0779
     36 H3          3.3298    6.1850    2.8220 H         1 <0>         0.0648
     37 H4          3.6435    8.8670    0.3327 H         1 <0>         0.1365
     38 H5          2.5139   11.0437    0.5337 H         1 <0>         0.1383
     39 H6          0.8148   11.3976    2.2790 H         1 <0>         0.1396
     40 H7          1.0484    6.2731    3.4723 H         1 <0>         0.4083
     41 H8          1.2191    7.1147    8.0430 H         1 <0>         0.1979
     42 H9          0.3477    1.9521    7.1161 H         1 <0>         0.4525
     43 H10        -0.2767    0.3593    8.8606 H         1 <0>         0.1835
     44 H11         1.4596    4.3615   12.5720 H         1 <0>         0.1250
     45 H12         0.1626    5.2758   11.7656 H         1 <0>         0.1301
     46 H13        -0.2249    4.1881   13.1203 H         1 <0>         0.1049
     47 H14        -0.1857   -1.0458   13.3190 H         1 <0>         0.1119
     48 H15        -1.0251    0.5276   13.3369 H         1 <0>         0.0843
     49 H16        -2.5057   -1.4068   14.0099 H         1 <0>         0.1076
     50 H17        -3.1034   -0.5184   12.5874 H         1 <0>         0.0465
     51 H18        -2.1124   -3.0499   10.1822 H         1 <0>         0.1076
     52 H19        -2.8786   -1.4576   10.3996 H         1 <0>         0.0467
     53 H20        -0.6409   -1.1170    9.4992 H         1 <0>         0.1034
     54 H21         0.0684   -2.1330   10.7819 H         1 <0>         0.1075
     55 H22        -3.6507   -3.3200   13.4672 H         1 <0>         0.0925
     56 H23        -4.3362   -2.7111   11.9416 H         1 <0>         0.0553
     57 H24        -4.2233   -5.1548   11.8494 H         1 <0>         0.0565
     58 H25        -3.0370   -4.4741   10.7103 H         1 <0>         0.0456
     59 H26        -2.0752   -6.1719   12.0881 H         1 <0>         0.3821
     60 H27        -0.2297    1.8867   12.7033 H         1 <0>         0.4392
@<TRIPOS>BOND
     1    1    2 1
     2    1   34 1
     3    1   35 1
     4    1   36 1
     5    2    7 ar
     6    2    3 ar
     7    3    4 ar
     8    3   37 1
     9    4    5 ar
    10    4   38 1
    11    5    6 ar
    12    5   39 1
    13    6    7 ar
    14    6   33 1
    15    7    8 1
    16    8    9 am
    17    8   40 1
    18    9   10 2
    19    9   11 1
    20   11   15 1
    21   11   12 2
    22   12   13 1
    23   12   41 1
    24   13   14 2
    25   14   15 1
    26   14   16 1
    27   16   17 1
    28   16   42 1
    29   17   18 ar
    30   17   22 ar
    31   18   43 1
    32   18   19 ar
    33   19   24 1
    34   19   20 ar
    35   20   60 1
    36   20   21 ar
    37   21   23 1
    38   21   22 ar
    39   23   44 1
    40   23   45 1
    41   23   46 1
    42   24   29 1
    43   24   25 1
    44   25   26 1
    45   25   47 1
    46   25   48 1
    47   26   27 1
    48   26   49 1
    49   26   50 1
    50   27   28 1
    51   27   30 1
    52   28   29 1
    53   28   51 1
    54   28   52 1
    55   29   53 1
    56   29   54 1
    57   30   31 1
    58   30   55 1
    59   30   56 1
    60   31   32 1
    61   31   57 1
    62   31   58 1
    63   32   59 1
@<TRIPOS>MOLECULE
ZINC21982951
   59    62     0     0     0
SMALL
USER_CHARGES

@<TRIPOS>ATOM
      1 C1          3.4106    6.6420    1.8847 C.3       1 <0>        -0.1165
      2 C2          2.6976    7.9659    1.9845 C.ar      1 <0>        -0.0852
      3 C3          3.0204    8.9921    1.1176 C.ar      1 <0>        -0.1055
      4 C4          2.3672   10.2073    1.2080 C.ar      1 <0>        -0.1070
      5 C5          1.3885   10.4004    2.1660 C.ar      1 <0>        -0.1064
      6 C6          1.0609    9.3785    3.0365 C.ar      1 <0>        -0.0243
      7 C7          1.7118    8.1536    2.9438 C.ar      1 <0>         0.1460
      8 N1          1.3783    7.1144    3.8189 N.am      1 <0>        -0.6734
      9 C8          1.3676    7.3308    5.1492 C.2       1 <0>         0.6131
     10 O1          1.5489    8.4533    5.5848 O.2       1 <0>        -0.4899
     11 C9          1.1384    6.2176    6.0693 C.2       1 <0>        -0.3092
     12 C10         1.0807    6.2111    7.4561 C.2       1 <0>         0.1722
     13 N2          0.8573    5.0526    8.0233 N.2       1 <0>        -0.5180
     14 C11         0.6966    3.9535    7.3079 C.2       1 <0>         0.3121
     15 S1          0.8472    4.4907    5.7202 S.3       1 <0>         0.1340
     16 N3          0.4564    2.6698    7.7563 N.pl3     1 <0>        -0.5904
     17 C12         0.2490    2.4343    9.1091 C.ar      1 <0>         0.4412
     18 C13        -0.1036    1.1661    9.5586 C.ar      1 <0>        -0.3412
     19 C14        -0.3003    0.9817   10.9244 C.ar      1 <0>         0.4686
     20 N4         -0.1450    2.0186   11.7452 N.ar      1 <0>        -0.5923
     21 C15         0.1898    3.2050   11.2799 C.ar      1 <0>         0.3946
     22 N5          0.3901    3.4182    9.9956 N.ar      1 <0>        -0.5459
     23 C16         0.3546    4.3498   12.2460 C.3       1 <0>        -0.0834
     24 N6         -0.6531   -0.2629   11.4224 N.pl3     1 <0>        -0.5966
     25 C17        -1.0693   -0.4249   12.8237 C.3       1 <0>         0.1300
     26 C18        -2.3993   -1.1856   12.8517 C.3       1 <0>         0.0401
     27 N7         -2.2595   -2.4378   12.0965 N.3       1 <0>        -0.5276
     28 C19        -1.9688   -2.1765   10.6804 C.3       1 <0>         0.0363
     29 C20        -0.6270   -1.4554   10.5619 C.3       1 <0>         0.1269
     30 C21        -3.4565   -3.2768   12.2420 C.3       1 <0>         0.0537
     31 C22        -3.1814   -4.6636   11.6572 C.3       1 <0>         0.0792
     32 O2         -2.1684   -5.3132   12.4279 O.3       1 <0>        -0.5589
     33 Cl1        -0.1672    9.6214    4.2392 Cl        1 <0>        -0.0433
     34 H1          2.8725    5.9906    1.1961 H         1 <0>         0.0754
     35 H2          4.4240    6.8020    1.5166 H         1 <0>         0.0754
     36 H3          3.4510    6.1760    2.8692 H         1 <0>         0.0676
     37 H4          3.7844    8.8450    0.3685 H         1 <0>         0.1337
     38 H5          2.6220   11.0077    0.5292 H         1 <0>         0.1350
     39 H6          0.8801   11.3508    2.2339 H         1 <0>         0.1371
     40 H7          1.1547    6.2381    3.4683 H         1 <0>         0.4085
     41 H8          1.2132    7.1127    8.0357 H         1 <0>         0.1884
     42 H9          0.4325    1.9325    7.1264 H         1 <0>         0.4387
     43 H10        -0.2220    0.3459    8.8660 H         1 <0>         0.1413
     44 H11         1.3882    4.3890   12.5900 H         1 <0>         0.0870
     45 H12         0.1021    5.2855   11.7470 H         1 <0>         0.0890
     46 H13        -0.3072    4.2031   13.0995 H         1 <0>         0.0846
     47 H14        -0.3126   -0.9904   13.3674 H         1 <0>         0.0744
     48 H15        -1.1984    0.5551   13.2831 H         1 <0>         0.1008
     49 H16        -2.6676   -1.4113   13.8837 H         1 <0>         0.0903
     50 H17        -3.1785   -0.5727   12.3986 H         1 <0>         0.0372
     51 H18        -1.9249   -3.1208   10.1378 H         1 <0>         0.0905
     52 H19        -2.7540   -1.5497   10.2576 H         1 <0>         0.0380
     53 H20        -0.4638   -1.1563    9.5265 H         1 <0>         0.0877
     54 H21         0.1731   -2.1219   10.8840 H         1 <0>         0.0802
     55 H22        -3.7077   -3.3713   13.2985 H         1 <0>         0.0861
     56 H23        -4.2894   -2.8169   11.7102 H         1 <0>         0.0487
     57 H24        -4.0952   -5.2572   11.6843 H         1 <0>         0.0498
     58 H25        -2.8443   -4.5626   10.6256 H         1 <0>         0.0451
     59 H26        -1.9426   -6.1994   12.1134 H         1 <0>         0.3762
@<TRIPOS>BOND
     1    1    2 1
     2    1   34 1
     3    1   35 1
     4    1   36 1
     5    2    7 ar
     6    2    3 ar
     7    3    4 ar
     8    3   37 1
     9    4    5 ar
    10    4   38 1
    11    5    6 ar
    12    5   39 1
    13    6    7 ar
    14    6   33 1
    15    7    8 1
    16    8    9 am
    17    8   40 1
    18    9   10 2
    19    9   11 1
    20   11   15 1
    21   11   12 2
    22   12   13 1
    23   12   41 1
    24   13   14 2
    25   14   15 1
    26   14   16 1
    27   16   17 1
    28   16   42 1
    29   17   18 ar
    30   17   22 ar
    31   18   43 1
    32   18   19 ar
    33   19   24 1
    34   19   20 ar
    35   20   21 ar
    36   21   23 1
    37   21   22 ar
    38   23   44 1
    39   23   45 1
    40   23   46 1
    41   24   29 1
    42   24   25 1
    43   25   26 1
    44   25   47 1
    45   25   48 1
    46   26   27 1
    47   26   49 1
    48   26   50 1
    49   27   28 1
    50   27   30 1
    51   28   29 1
    52   28   51 1
    53   28   52 1
    54   29   53 1
    55   29   54 1
    56   30   31 1
    57   30   55 1
    58   30   56 1
    59   31   32 1
    60   31   57 1
    61   31   58 1
    62   32   59 1
@<TRIPOS>MOLECULE
ZINC21982951
   61    64     0     0     0
SMALL
USER_CHARGES

@<TRIPOS>ATOM
      1 C1          3.2770    6.6581    1.8427 C.3       1 <0>        -0.1166
      2 C2          2.5837    7.9904    1.9667 C.ar      1 <0>        -0.0814
      3 C3          2.9012    9.0183    1.0999 C.ar      1 <0>        -0.1028
      4 C4          2.2660   10.2411    1.2125 C.ar      1 <0>        -0.0975
      5 C5          1.3108   10.4402    2.1928 C.ar      1 <0>        -0.1039
      6 C6          0.9888    9.4167    3.0634 C.ar      1 <0>        -0.0218
      7 C7          1.6215    8.1842    2.9485 C.ar      1 <0>         0.1327
      8 N1          1.2933    7.1433    3.8237 N.am      1 <0>        -0.6648
      9 C8          1.3141    7.3507    5.1552 C.2       1 <0>         0.5983
     10 O1          1.5193    8.4677    5.5943 O.2       1 <0>        -0.4690
     11 C9          1.0903    6.2342    6.0727 C.2       1 <0>        -0.2500
     12 C10         1.0624    6.2188    7.4604 C.2       1 <0>         0.1439
     13 N2          0.8362    5.0594    8.0246 N.2       1 <0>        -0.4984
     14 C11         0.6458    3.9675    7.3056 C.2       1 <0>         0.2172
     15 S1          0.7692    4.5136    5.7185 S.3       1 <0>         0.2242
     16 N3          0.3986    2.6839    7.7506 N.pl3     1 <0>        -0.5513
     17 C12         0.2203    2.4413    9.1063 C.ar      1 <0>         0.5098
     18 C13        -0.1335    1.1734    9.5556 C.ar      1 <0>        -0.3097
     19 C14        -0.3003    0.9817   10.9244 C.ar      1 <0>         0.4927
     20 N4         -0.1163    2.0116   11.7481 N.ar      1 <0>        -0.5695
     21 C15         0.2187    3.1980   11.2828 C.ar      1 <0>         0.4589
     22 N5          0.3911    3.4178    9.9956 N.ar      1 <0>        -0.4762
     23 C16         0.4165    4.3348   12.2521 C.3       1 <0>        -0.1303
     24 N6         -0.6531   -0.2629   11.4224 N.pl3     1 <0>        -0.6123
     25 C17        -0.9643   -0.4465   12.8484 C.3       1 <0>         0.0782
     26 C18        -2.3027   -1.1838   12.9625 C.3       1 <0>        -0.0204
     27 N7         -2.2406   -2.4311   12.1903 N.4       1 <0>        -0.3852
     28 C19        -2.0770   -2.1279   10.7629 C.3       1 <0>        -0.0304
     29 C20        -0.7330   -1.4363   10.5388 C.3       1 <0>         0.0932
     30 C21        -3.4827   -3.1900   12.3886 C.3       1 <0>        -0.0061
     31 C22        -3.3702   -4.5448   11.6865 C.3       1 <0>         0.0434
     32 O2         -2.3479   -5.3224   12.3128 O.3       1 <0>        -0.5819
     33 Cl1        -0.2098    9.6671    4.2940 Cl        1 <0>        -0.0466
     34 H1          2.7157    6.0184    1.1617 H         1 <0>         0.0770
     35 H2          4.2843    6.8074    1.4538 H         1 <0>         0.0791
     36 H3          3.3325    6.1847    2.8230 H         1 <0>         0.0631
     37 H4          3.6468    8.8665    0.3335 H         1 <0>         0.1380
     38 H5          2.5166   11.0428    0.5336 H         1 <0>         0.1401
     39 H6          0.8165   11.3966    2.2780 H         1 <0>         0.1410
     40 H7          1.0508    6.2723    3.4722 H         1 <0>         0.4077
     41 H8          1.2191    7.1146    8.0429 H         1 <0>         0.2016
     42 H9          0.3494    1.9517    7.1163 H         1 <0>         0.4545
     43 H10        -0.2756    0.3590    8.8607 H         1 <0>         0.1860
     44 H11         1.4581    4.3621   12.5724 H         1 <0>         0.1309
     45 H12         0.1613    5.2760   11.7653 H         1 <0>         0.1358
     46 H13        -0.2267    4.1885   13.1199 H         1 <0>         0.1083
     47 H14        -0.1795   -1.0367   13.3215 H         1 <0>         0.1249
     48 H15        -1.0392    0.5259   13.3352 H         1 <0>         0.1232
     49 H16        -2.5028   -1.4138   14.0090 H         1 <0>         0.1602
     50 H17        -3.0999   -0.5526   12.5701 H         1 <0>         0.1410
     51 H18        -2.1110   -3.0537   10.1885 H         1 <0>         0.1585
     52 H19        -2.8811   -1.4682   10.4370 H         1 <0>         0.1418
     53 H20        -0.6550   -1.1179    9.4992 H         1 <0>         0.1416
     54 H21         0.0756   -2.1281   10.7747 H         1 <0>         0.1211
     55 H22        -3.6469   -3.3459   13.4548 H         1 <0>         0.1465
     56 H23        -4.3202   -2.6321   11.9697 H         1 <0>         0.1464
     57 H24        -4.3221   -5.0710   11.7578 H         1 <0>         0.1026
     58 H25        -3.1180   -4.3904   10.6374 H         1 <0>         0.0719
     59 H26        -2.2211   -6.1961   11.9183 H         1 <0>         0.4154
     60 H27        -0.2308    1.8869   12.7032 H         1 <0>         0.4393
     61 H28        -1.4578   -2.9831   12.5075 H         1 <0>         0.4359
@<TRIPOS>BOND
     1    1    2 1
     2    1   34 1
     3    1   35 1
     4    1   36 1
     5    2    7 ar
     6    2    3 ar
     7    3    4 ar
     8    3   37 1
     9    4    5 ar
    10    4   38 1
    11    5    6 ar
    12    5   39 1
    13    6    7 ar
    14    6   33 1
    15    7    8 1
    16    8    9 am
    17    8   40 1
    18    9   10 2
    19    9   11 1
    20   11   15 1
    21   11   12 2
    22   12   13 1
    23   12   41 1
    24   13   14 2
    25   14   15 1
    26   14   16 1
    27   16   17 1
    28   16   42 1
    29   17   18 ar
    30   17   22 ar
    31   18   43 1
    32   18   19 ar
    33   19   24 1
    34   19   20 ar
    35   20   60 1
    36   20   21 ar
    37   21   23 1
    38   21   22 ar
    39   23   44 1
    40   23   45 1
    41   23   46 1
    42   24   29 1
    43   24   25 1
    44   25   26 1
    45   25   47 1
    46   25   48 1
    47   26   27 1
    48   26   49 1
    49   26   50 1
    50   27   28 1
    51   27   30 1
    52   27   61 1
    53   28   29 1
    54   28   51 1
    55   28   52 1
    56   29   53 1
    57   29   54 1
    58   30   31 1
    59   30   55 1
    60   30   56 1
    61   31   32 1
    62   31   57 1
    63   31   58 1
    64   32   59 1
@<TRIPOS>MOLECULE
ZINC06716957
   61    65     0     0     0
SMALL
USER_CHARGES
4-methyl-N-[3-(4-methylimidazol-1-yl)-5-(trifluoromethyl)phenyl]-3-[4-(3-pyridyl)pyrimidin-2-yl]amino-benzamide
@<TRIPOS>ATOM
      1 C1          4.8797   -3.9669    0.1547 C.3       1 <0>        -0.1225
      2 C2          3.5754   -4.7217    0.1669 C.ar      1 <0>        -0.0869
      3 C3          3.5795   -6.1039    0.1964 C.ar      1 <0>        -0.1014
      4 C4          2.3894   -6.8021    0.2020 C.ar      1 <0>        -0.1034
      5 C5          1.1753   -6.1126    0.1832 C.ar      1 <0>        -0.1270
      6 C6          1.1710   -4.7182    0.1589 C.ar      1 <0>        -0.0590
      7 C7          2.3724   -4.0259    0.1535 C.ar      1 <0>         0.1619
      8 N1          2.3736   -2.6277    0.1286 N.pl3     1 <0>        -0.6325
      9 C8          1.2893   -1.9432   -0.3959 C.ar      1 <0>         0.5614
     10 N2          0.3200   -2.6260   -0.9883 N.ar      1 <0>        -0.5534
     11 C9         -0.7320   -2.0090   -1.5021 C.ar      1 <0>         0.1977
     12 C10        -0.8164   -0.6303   -1.4172 C.ar      1 <0>        -0.2657
     13 C11         0.2206    0.0624   -0.7871 C.ar      1 <0>         0.2658
     14 N3          1.2507   -0.6239   -0.2975 N.ar      1 <0>        -0.5571
     15 C12         0.1772    1.5403   -0.6710 C.ar      1 <0>        -0.1169
     16 C13         1.2145    2.2342   -0.0406 C.ar      1 <0>        -0.0276
     17 C14         1.1266    3.6129    0.0420 C.ar      1 <0>        -0.1784
     18 C15         0.0258    4.2543   -0.4966 C.ar      1 <0>         0.1175
     19 N4         -0.9376    3.5726   -1.0856 N.ar      1 <0>        -0.4841
     20 C16        -0.8952    2.2604   -1.1934 C.ar      1 <0>         0.1340
     21 C17        -0.1012   -6.8583    0.1887 C.2       1 <0>         0.5673
     22 O1         -1.1570   -6.2560    0.1719 O.2       1 <0>        -0.5061
     23 N5         -0.0944   -8.2058    0.2122 N.am      1 <0>        -0.6669
     24 C18        -1.2963   -8.9130    0.1072 C.ar      1 <0>         0.1849
     25 C19        -1.4127  -10.1752    0.6766 C.ar      1 <0>        -0.1112
     26 C20        -2.6011  -10.8720    0.5773 C.ar      1 <0>        -0.1296
     27 C21        -3.6741  -10.3211   -0.0973 C.ar      1 <0>        -0.1084
     28 C22        -3.5624   -9.0626   -0.6729 C.ar      1 <0>         0.1652
     29 C23        -2.3721   -8.3576   -0.5706 C.ar      1 <0>        -0.1152
     30 N6         -4.6520   -8.5044   -1.3568 N.pl3     1 <0>        -0.4135
     31 C24        -4.6878   -7.2792   -1.9710 C.2       1 <0>        -0.0484
     32 C25        -5.9185   -7.1442   -2.5004 C.2       1 <0>         0.0096
     33 N7         -6.6190   -8.2532   -2.2203 N.2       1 <0>        -0.4758
     34 C26        -5.8695   -9.0779   -1.5408 C.2       1 <0>         0.1944
     35 C27        -6.4219   -5.9529   -3.2741 C.3       1 <0>        -0.0703
     36 C28        -2.7260  -12.2385    1.2004 C.3       1 <0>         0.5133
     37 F1         -2.3418  -13.2115    0.2714 F         1 <0>        -0.1709
     38 F2         -1.8981  -12.3154    2.3255 F         1 <0>        -0.1721
     39 F3         -4.0538  -12.4572    1.5826 F         1 <0>        -0.1717
     40 H1          5.1932   -3.7667    1.1793 H         1 <0>         0.0780
     41 H2          5.6404   -4.5642   -0.3479 H         1 <0>         0.0781
     42 H3          4.7488   -3.0240   -0.3761 H         1 <0>         0.0665
     43 H4          4.5175   -6.6391    0.2106 H         1 <0>         0.1366
     44 H5          2.3969   -7.8819    0.2212 H         1 <0>         0.1267
     45 H6          0.2351   -4.1794    0.1439 H         1 <0>         0.1656
     46 H7          3.1337   -2.1370    0.4786 H         1 <0>         0.4259
     47 H8         -1.5163   -2.5753   -1.9823 H         1 <0>         0.1768
     48 H9         -1.6642   -0.1022   -1.8280 H         1 <0>         0.1524
     49 H10         2.0625    1.7077    0.3717 H         1 <0>         0.1463
     50 H11         1.9093    4.1820    0.5216 H         1 <0>         0.1425
     51 H12        -0.0458    5.3301   -0.4343 H         1 <0>         0.1622
     52 H13        -1.7012    1.7376   -1.6869 H         1 <0>         0.1630
     53 H14         0.7441   -8.6851    0.3020 H         1 <0>         0.4178
     54 H15        -0.5744  -10.6101    1.2006 H         1 <0>         0.1488
     55 H16        -4.6008  -10.8701   -0.1765 H         1 <0>         0.1477
     56 H17        -2.2829   -7.3787   -1.0179 H         1 <0>         0.1618
     57 H18        -3.8832   -6.5605   -2.0210 H         1 <0>         0.1795
     58 H19        -6.1682  -10.0519   -1.1825 H         1 <0>         0.2113
     59 H20        -6.2142   -6.0943   -4.3347 H         1 <0>         0.0711
     60 H21        -7.4967   -5.8505   -3.1248 H         1 <0>         0.0731
     61 H22        -5.9187   -5.0522   -2.9223 H         1 <0>         0.0710
@<TRIPOS>BOND
     1    1    2 1
     2    1   40 1
     3    1   41 1
     4    1   42 1
     5    2    7 ar
     6    2    3 ar
     7    3    4 ar
     8    3   43 1
     9    4    5 ar
    10    4   44 1
    11    5    6 ar
    12    5   21 1
    13    6    7 ar
    14    6   45 1
    15    7    8 1
    16    8    9 1
    17    8   46 1
    18    9   14 ar
    19    9   10 ar
    20   10   11 ar
    21   11   12 ar
    22   11   47 1
    23   12   13 ar
    24   12   48 1
    25   13   14 ar
    26   13   15 1
    27   15   20 ar
    28   15   16 ar
    29   16   17 ar
    30   16   49 1
    31   17   18 ar
    32   17   50 1
    33   18   19 ar
    34   18   51 1
    35   19   20 ar
    36   20   52 1
    37   21   22 2
    38   21   23 am
    39   23   24 1
    40   23   53 1
    41   24   29 ar
    42   24   25 ar
    43   25   26 ar
    44   25   54 1
    45   26   27 ar
    46   26   36 1
    47   27   28 ar
    48   27   55 1
    49   28   29 ar
    50   28   30 1
    51   29   56 1
    52   30   34 1
    53   30   31 1
    54   31   32 2
    55   31   57 1
    56   32   33 1
    57   32   35 1
    58   33   34 2
    59   34   58 1
    60   35   59 1
    61   35   60 1
    62   35   61 1
    63   36   37 1
    64   36   38 1
    65   36   39 1
@<TRIPOS>MOLECULE
ZINC22448983
   66    69     0     0     0
SMALL
USER_CHARGES
4-[(2,4-dichloro-5-methoxy-phenyl)amino]-6-methoxy-7-[3-(4-methylpiperazin-1-yl)propoxy]quinoline-3-carbonitrile
@<TRIPOS>ATOM
      1 C1        -10.0137   -6.5102   -1.8158 C.3       1 <0>        -0.0453
      2 N1         -8.6540   -6.0169   -1.5593 N.4       1 <0>        -0.4030
      3 C2         -7.7903   -6.2205   -2.7307 C.3       1 <0>        -0.0001
      4 C3         -6.3670   -5.7678   -2.3965 C.3       1 <0>         0.0245
      5 N2         -6.3862   -4.3530   -1.9994 N.3       1 <0>        -0.5385
      6 C4         -7.2499   -4.1494   -0.8281 C.3       1 <0>         0.0179
      7 C5         -8.6733   -4.6021   -1.1623 C.3       1 <0>         0.0000
      8 C6         -5.0265   -3.8597   -1.7430 C.3       1 <0>         0.0567
      9 C7         -5.0583   -2.3389   -1.5783 C.3       1 <0>        -0.1184
     10 C8         -3.6421   -1.8251   -1.3112 C.3       1 <0>         0.0518
     11 O1         -3.6719   -0.4047   -1.1574 O.3       1 <0>        -0.2957
     12 C9         -2.4875    0.2141   -0.9129 C.ar      1 <0>         0.1552
     13 C10        -1.3345   -0.5326   -0.8253 C.ar      1 <0>        -0.1775
     14 C11        -0.1099    0.1042   -0.5728 C.ar      1 <0>         0.1880
     15 C12        -0.0839    1.5107   -0.4123 C.ar      1 <0>        -0.1309
     16 C13        -1.2740    2.2476   -0.5007 C.ar      1 <0>        -0.1492
     17 C14        -2.4527    1.6062   -0.7522 C.ar      1 <0>         0.1113
     18 O2         -3.6043    2.3237   -0.8425 O.3       1 <0>        -0.3022
     19 C15        -3.5023    3.7385   -0.6693 C.3       1 <0>         0.0181
     20 C16         1.1518    2.1498   -0.1579 C.ar      1 <0>         0.3245
     21 C17         2.2996    1.3468   -0.0768 C.ar      1 <0>        -0.1668
     22 C18         2.1804   -0.0418   -0.2488 C.ar      1 <0>         0.2178
     23 N3          1.0238   -0.6069   -0.4836 N.ar      1 <0>        -0.5049
     24 C19         3.5791    1.9370    0.1785 C.1       1 <0>         0.2512
     25 N4          4.5940    2.4052    0.3811 N.1       1 <0>        -0.4037
     26 N5          1.2264    3.5186    0.0048 N.pl3     1 <0>        -0.6798
     27 C20         2.4372    4.1835   -0.2122 C.ar      1 <0>         0.1811
     28 C21         3.1043    4.7773    0.8508 C.ar      1 <0>        -0.1911
     29 C22         4.3041    5.4350    0.6325 C.ar      1 <0>         0.1715
     30 C23         4.8372    5.4992   -0.6482 C.ar      1 <0>        -0.0467
     31 C24         4.1721    4.9075   -1.7063 C.ar      1 <0>        -0.0516
     32 C25         2.9774    4.2459   -1.4914 C.ar      1 <0>        -0.0699
     33 Cl1         2.1481    3.4984   -2.8208 Cl        1 <0>        -0.0422
     34 Cl2         6.3403    6.3238   -0.9213 Cl        1 <0>        -0.0317
     35 O3          4.9590    6.0176    1.6716 O.3       1 <0>        -0.2942
     36 C26         4.4145    5.8149    2.9772 C.3       1 <0>         0.0202
     37 H1         -9.9701   -7.5691   -2.1104 H         1 <0>         0.1247
     38 H2        -10.4701   -5.9227   -2.6260 H         1 <0>         0.1201
     39 H3        -10.6190   -6.4082   -0.9030 H         1 <0>         0.1247
     40 H4         -7.7832   -7.2870   -3.0001 H         1 <0>         0.1368
     41 H5         -8.1745   -5.6313   -3.5764 H         1 <0>         0.1352
     42 H6         -5.9734   -6.3765   -1.5691 H         1 <0>         0.0623
     43 H7         -5.7253   -5.8927   -3.2811 H         1 <0>         0.1248
     44 H8         -6.8657   -4.7386    0.0176 H         1 <0>         0.0625
     45 H9         -7.2570   -3.0829   -0.5587 H         1 <0>         0.1270
     46 H10        -9.0676   -3.9944   -1.9901 H         1 <0>         0.1353
     47 H11        -9.3157   -4.4781   -0.2780 H         1 <0>         0.1365
     48 H12        -4.6368   -4.3201   -0.8231 H         1 <0>         0.0524
     49 H13        -4.3751   -4.1233   -2.5893 H         1 <0>         0.0947
     50 H14        -5.4480   -1.8786   -2.4982 H         1 <0>         0.0902
     51 H15        -5.7097   -2.0753   -0.7320 H         1 <0>         0.0766
     52 H16        -3.2525   -2.2855   -0.3913 H         1 <0>         0.0692
     53 H17        -2.9907   -2.0887   -2.1575 H         1 <0>         0.0725
     54 H18        -1.3723   -1.6047   -0.9499 H         1 <0>         0.1520
     55 H19        -1.2569    3.3205   -0.3782 H         1 <0>         0.1400
     56 H20        -4.4995    4.1926   -0.7662 H         1 <0>         0.1079
     57 H21        -2.8337    4.1546   -1.4373 H         1 <0>         0.0600
     58 H22        -3.0952    3.9573    0.3289 H         1 <0>         0.0585
     59 H23         3.0649   -0.6582   -0.1860 H         1 <0>         0.1683
     60 H24         0.3333    4.0863    0.3052 H         1 <0>         0.4433
     61 H25         2.6888    4.7264    1.8464 H         1 <0>         0.1497
     62 H26         4.5888    4.9585   -2.7013 H         1 <0>         0.1559
     63 H27         5.0369    6.3367    3.7191 H         1 <0>         0.1117
     64 H28         4.3977    4.7388    3.2044 H         1 <0>         0.0607
     65 H29         3.3898    6.2132    3.0130 H         1 <0>         0.0594
     66 H30        -8.2365   -6.5985   -0.7241 H         1 <0>         0.4406
@<TRIPOS>BOND
     1    1    2 1
     2    1   37 1
     3    1   38 1
     4    1   39 1
     5    2    7 1
     6    2    3 1
     7    2   66 1
     8    3    4 1
     9    3   40 1
    10    3   41 1
    11    4    5 1
    12    4   42 1
    13    4   43 1
    14    5    6 1
    15    5    8 1
    16    6    7 1
    17    6   44 1
    18    6   45 1
    19    7   46 1
    20    7   47 1
    21    8    9 1
    22    8   48 1
    23    8   49 1
    24    9   10 1
    25    9   50 1
    26    9   51 1
    27   10   11 1
    28   10   52 1
    29   10   53 1
    30   11   12 1
    31   12   17 ar
    32   12   13 ar
    33   13   14 ar
    34   13   54 1
    35   14   23 ar
    36   14   15 ar
    37   15   16 ar
    38   15   20 ar
    39   16   17 ar
    40   16   55 1
    41   17   18 1
    42   18   19 1
    43   19   56 1
    44   19   57 1
    45   19   58 1
    46   20   21 ar
    47   20   26 1
    48   21   22 ar
    49   21   24 1
    50   22   23 ar
    51   22   59 1
    52   24   25 3
    53   26   27 1
    54   26   60 1
    55   27   32 ar
    56   27   28 ar
    57   28   29 ar
    58   28   61 1
    59   29   30 ar
    60   29   35 1
    61   30   31 ar
    62   30   34 1
    63   31   32 ar
    64   31   62 1
    65   32   33 1
    66   35   36 1
    67   36   63 1
    68   36   64 1
    69   36   65 1
@<TRIPOS>MOLECULE
ZINC22448983
   66    69     0     0     0
SMALL
USER_CHARGES
4-[(2,4-dichloro-5-methoxy-phenyl)amino]-6-methoxy-7-[3-(4-methylpiperazin-1-yl)propoxy]quinoline-3-carbonitrile
@<TRIPOS>ATOM
      1 C1        -10.0137   -6.5102   -1.8158 C.3       1 <0>         0.0169
      2 N1         -8.6540   -6.0169   -1.5593 N.3       1 <0>        -0.5441
      3 C2         -7.7903   -6.2205   -2.7307 C.3       1 <0>         0.0228
      4 C3         -6.3670   -5.7678   -2.3965 C.3       1 <0>         0.0009
      5 N2         -6.3862   -4.3530   -1.9994 N.4       1 <0>        -0.3998
      6 C4         -7.2499   -4.1494   -0.8281 C.3       1 <0>        -0.0049
      7 C5         -8.6733   -4.6021   -1.1623 C.3       1 <0>         0.0237
      8 C6         -5.0265   -3.8597   -1.7430 C.3       1 <0>        -0.0032
      9 C7         -5.0583   -2.3389   -1.5783 C.3       1 <0>        -0.1498
     10 C8         -3.6421   -1.8251   -1.3112 C.3       1 <0>         0.0546
     11 O1         -3.6719   -0.4047   -1.1574 O.3       1 <0>        -0.2954
     12 C9         -2.4875    0.2141   -0.9129 C.ar      1 <0>         0.1508
     13 C10        -1.3345   -0.5326   -0.8253 C.ar      1 <0>        -0.1739
     14 C11        -0.1099    0.1042   -0.5728 C.ar      1 <0>         0.1865
     15 C12        -0.0839    1.5107   -0.4123 C.ar      1 <0>        -0.1289
     16 C13        -1.2740    2.2476   -0.5007 C.ar      1 <0>        -0.1461
     17 C14        -2.4527    1.6062   -0.7522 C.ar      1 <0>         0.1109
     18 O2         -3.6043    2.3237   -0.8425 O.3       1 <0>        -0.3036
     19 C15        -3.5023    3.7385   -0.6693 C.3       1 <0>         0.0176
     20 C16         1.1518    2.1498   -0.1579 C.ar      1 <0>         0.3244
     21 C17         2.2996    1.3468   -0.0768 C.ar      1 <0>        -0.1637
     22 C18         2.1804   -0.0418   -0.2488 C.ar      1 <0>         0.2201
     23 N3          1.0238   -0.6069   -0.4836 N.ar      1 <0>        -0.5059
     24 C19         3.5791    1.9370    0.1785 C.1       1 <0>         0.2491
     25 N4          4.5940    2.4052    0.3811 N.1       1 <0>        -0.4000
     26 N5          1.2264    3.5186    0.0048 N.pl3     1 <0>        -0.6785
     27 C20         2.4372    4.1835   -0.2122 C.ar      1 <0>         0.1791
     28 C21         3.1043    4.7773    0.8508 C.ar      1 <0>        -0.1908
     29 C22         4.3041    5.4350    0.6325 C.ar      1 <0>         0.1720
     30 C23         4.8372    5.4992   -0.6482 C.ar      1 <0>        -0.0462
     31 C24         4.1721    4.9075   -1.7063 C.ar      1 <0>        -0.0515
     32 C25         2.9774    4.2459   -1.4914 C.ar      1 <0>        -0.0696
     33 Cl1         2.1481    3.4984   -2.8208 Cl        1 <0>        -0.0433
     34 Cl2         6.3403    6.3238   -0.9213 Cl        1 <0>        -0.0302
     35 O3          4.9590    6.0176    1.6716 O.3       1 <0>        -0.2936
     36 C26         4.4145    5.8149    2.9772 C.3       1 <0>         0.0200
     37 H1         -9.9701   -7.5691   -2.1104 H         1 <0>         0.0846
     38 H2        -10.4701   -5.9227   -2.6260 H         1 <0>         0.0401
     39 H3        -10.6190   -6.4082   -0.9030 H         1 <0>         0.0850
     40 H4         -7.7832   -7.2870   -3.0001 H         1 <0>         0.1245
     41 H5         -8.1745   -5.6313   -3.5764 H         1 <0>         0.0612
     42 H6         -5.9734   -6.3765   -1.5691 H         1 <0>         0.1366
     43 H7         -5.7253   -5.8927   -3.2811 H         1 <0>         0.1378
     44 H8         -6.8657   -4.7386    0.0176 H         1 <0>         0.1367
     45 H9         -7.2570   -3.0829   -0.5587 H         1 <0>         0.1381
     46 H10        -9.0676   -3.9944   -1.9901 H         1 <0>         0.0613
     47 H11        -9.3157   -4.4781   -0.2780 H         1 <0>         0.1241
     48 H12        -4.6368   -4.3201   -0.8231 H         1 <0>         0.1339
     49 H13        -4.3751   -4.1233   -2.5893 H         1 <0>         0.1372
     50 H14        -5.4480   -1.8786   -2.4982 H         1 <0>         0.1006
     51 H15        -5.7097   -2.0753   -0.7320 H         1 <0>         0.0999
     52 H16        -3.2525   -2.2855   -0.3913 H         1 <0>         0.0789
     53 H17        -2.9907   -2.0887   -2.1575 H         1 <0>         0.0790
     54 H18        -1.3723   -1.6047   -0.9499 H         1 <0>         0.1517
     55 H19        -1.2569    3.3205   -0.3782 H         1 <0>         0.1413
     56 H20        -4.4995    4.1926   -0.7662 H         1 <0>         0.1090
     57 H21        -2.8337    4.1546   -1.4373 H         1 <0>         0.0608
     58 H22        -3.0952    3.9573    0.3289 H         1 <0>         0.0597
     59 H23         3.0649   -0.6582   -0.1860 H         1 <0>         0.1696
     60 H24         0.3333    4.0863    0.3052 H         1 <0>         0.4436
     61 H25         2.6888    4.7264    1.8464 H         1 <0>         0.1501
     62 H26         4.5888    4.9585   -2.7013 H         1 <0>         0.1563
     63 H27         5.0369    6.3367    3.7191 H         1 <0>         0.1123
     64 H28         4.3977    4.7388    3.2044 H         1 <0>         0.0608
     65 H29         3.3898    6.2132    3.0130 H         1 <0>         0.0596
     66 H30        -6.8037   -3.7713   -2.8345 H         1 <0>         0.4393
@<TRIPOS>BOND
     1    1    2 1
     2    1   37 1
     3    1   38 1
     4    1   39 1
     5    2    7 1
     6    2    3 1
     7    3    4 1
     8    3   40 1
     9    3   41 1
    10    4    5 1
    11    4   42 1
    12    4   43 1
    13    5    6 1
    14    5    8 1
    15    5   66 1
    16    6    7 1
    17    6   44 1
    18    6   45 1
    19    7   46 1
    20    7   47 1
    21    8    9 1
    22    8   48 1
    23    8   49 1
    24    9   10 1
    25    9   50 1
    26    9   51 1
    27   10   11 1
    28   10   52 1
    29   10   53 1
    30   11   12 1
    31   12   17 ar
    32   12   13 ar
    33   13   14 ar
    34   13   54 1
    35   14   23 ar
    36   14   15 ar
    37   15   16 ar
    38   15   20 ar
    39   16   17 ar
    40   16   55 1
    41   17   18 1
    42   18   19 1
    43   19   56 1
    44   19   57 1
    45   19   58 1
    46   20   21 ar
    47   20   26 1
    48   21   22 ar
    49   21   24 1
    50   22   23 ar
    51   22   59 1
    52   24   25 3
    53   26   27 1
    54   26   60 1
    55   27   32 ar
    56   27   28 ar
    57   28   29 ar
    58   28   61 1
    59   29   30 ar
    60   29   35 1
    61   30   31 ar
    62   30   34 1
    63   31   32 ar
    64   31   62 1
    65   32   33 1
    66   35   36 1
    67   36   63 1
    68   36   64 1
    69   36   65 1
@<TRIPOS>MOLECULE
ZINC13687745
   34    37     0     0     0
SMALL
USER_CHARGES
bis(5-hydroxy-1H-indol-2-yl)methanone
@<TRIPOS>ATOM
      1 C1          1.1202   -0.5694    1.2946 C.ar      1 <0>        -0.1011
      2 C2         -0.0685    0.1178    1.1973 C.ar      1 <0>        -0.1191
      3 C3         -0.0679    1.4637    0.8438 C.ar      1 <0>         0.1120
      4 C4          1.1543    2.1154    0.5871 C.ar      1 <0>        -0.1064
      5 C5          2.3569    1.4030    0.6905 C.ar      1 <0>        -0.0834
      6 C6          2.3323    0.0703    1.0422 C.ar      1 <0>         0.0787
      7 O1          3.4973   -0.6238    1.1439 O.3       1 <0>        -0.4957
      8 C7          0.8464    3.4566    0.2565 C.2       1 <0>        -0.0893
      9 C8         -0.5058    3.5980    0.3140 C.2       1 <0>        -0.0128
     10 N1         -1.0726    2.3890    0.6654 N.pl3     1 <0>        -0.5813
     11 H1         -2.0218    2.2195    0.7709 H         1 <0>         0.4085
     12 C9         -1.2453    4.8383    0.0405 C.2       1 <0>         0.4824
     13 O2         -0.6430    5.8868   -0.1057 O.2       1 <0>        -0.4165
     14 C10        -2.7116    4.8135   -0.0567 C.2       1 <0>        -0.0129
     15 C11        -3.5148    5.9080   -0.1504 C.2       1 <0>        -0.0892
     16 C12        -4.8537    5.4554   -0.2242 C.ar      1 <0>        -0.1064
     17 C13        -6.0861    6.1142   -0.3315 C.ar      1 <0>        -0.0834
     18 C14        -7.2508    5.3784   -0.3839 C.ar      1 <0>         0.0787
     19 C15        -7.2076    3.9865   -0.3301 C.ar      1 <0>        -0.1011
     20 C16        -6.0044    3.3262   -0.2247 C.ar      1 <0>        -0.1191
     21 C17        -4.8162    4.0482   -0.1708 C.ar      1 <0>         0.1120
     22 N2         -3.4936    3.6757   -0.0734 N.pl3     1 <0>        -0.5813
     23 H2         -3.1658    2.7642   -0.0230 H         1 <0>         0.4085
     24 O3         -8.4482    6.0143   -0.4890 O.3       1 <0>        -0.4956
     25 H3          1.1134   -1.6138    1.5694 H         1 <0>         0.1380
     26 H4         -1.0021   -0.3877    1.3958 H         1 <0>         0.1299
     27 H5          3.2980    1.8958    0.4960 H         1 <0>         0.1365
     28 H6          3.7750   -1.0488    0.3209 H         1 <0>         0.3901
     29 H7          1.5573    4.2295    0.0041 H         1 <0>         0.1623
     30 H8         -3.1889    6.9375   -0.1654 H         1 <0>         0.1624
     31 H9         -6.1232    7.1927   -0.3733 H         1 <0>         0.1365
     32 H10        -8.1265    3.4207   -0.3720 H         1 <0>         0.1380
     33 H11        -5.9827    2.2472   -0.1842 H         1 <0>         0.1299
     34 H12        -8.8548    6.2304    0.3614 H         1 <0>         0.3901
@<TRIPOS>BOND
     1    1    6 ar
     2    1    2 ar
     3    1   25 1
     4    2    3 ar
     5    2   26 1
     6    3   10 1
     7    3    4 ar
     8    4    5 ar
     9    4    8 1
    10    5    6 ar
    11    5   27 1
    12    6    7 1
    13    7   28 1
    14    8    9 2
    15    8   29 1
    16    9   10 1
    17    9   12 1
    18   10   11 1
    19   12   13 2
    20   12   14 1
    21   14   22 1
    22   14   15 2
    23   15   16 1
    24   15   30 1
    25   16   21 ar
    26   16   17 ar
    27   17   18 ar
    28   17   31 1
    29   18   19 ar
    30   18   24 1
    31   19   20 ar
    32   19   32 1
    33   20   21 ar
    34   20   33 1
    35   21   22 1
    36   22   23 1
    37   24   34 1
@<TRIPOS>MOLECULE
ZINC02047743
   45    48     0     0     0
SMALL
USER_CHARGES
6-(2,6-dichlorophenyl)-8-methyl-2-[(3-methylsulfanylphenyl)amino]pyrido[6,5-d]pyrimidin-7-one
@<TRIPOS>ATOM
      1 C1         -3.2149    9.9478    6.3397 C.3       1 <0>         0.0697
      2 N1         -2.5718   10.5969    5.1946 N.am      1 <0>        -0.5056
      3 C2         -2.0976    9.8322    4.1588 C.ar      1 <0>         0.4667
      4 C3         -1.4757   10.4419    3.0477 C.ar      1 <0>        -0.2757
      5 C4         -1.3364   11.8476    2.9932 C.2       1 <0>         0.0302
      6 C5         -1.8127   12.6024    4.0314 C.2       1 <0>        -0.1631
      7 C6         -2.4525   11.9382    5.1691 C.2       1 <0>         0.5568
      8 O1         -2.8794   12.6023    6.0968 O.2       1 <0>        -0.5010
      9 C7         -1.6815   14.0779    4.0044 C.ar      1 <0>        -0.0104
     10 C8         -0.5524   14.6911    4.5489 C.ar      1 <0>        -0.0065
     11 C9         -0.4345   16.0668    4.5170 C.ar      1 <0>        -0.1064
     12 C10        -1.4368   16.8371    3.9553 C.ar      1 <0>        -0.0873
     13 C11        -2.5608   16.2358    3.4182 C.ar      1 <0>        -0.1064
     14 C12        -2.6891   14.8608    3.4397 C.ar      1 <0>        -0.0064
     15 Cl1        -4.1011   14.1082    2.7661 Cl        1 <0>        -0.0503
     16 Cl2         0.7038   13.7265    5.2597 Cl        1 <0>        -0.0500
     17 C13        -1.0042    9.6238    2.0101 C.ar      1 <0>         0.2643
     18 N2         -1.1563    8.3171    2.1171 N.ar      1 <0>        -0.5670
     19 C14        -1.7515    7.7784    3.1755 C.ar      1 <0>         0.6097
     20 N3         -2.2123    8.5091    4.1791 N.ar      1 <0>        -0.5950
     21 N4         -1.8899    6.4048    3.2340 N.pl3     1 <0>        -0.6257
     22 C15        -1.5197    5.6178    2.1394 C.ar      1 <0>         0.1772
     23 C16        -1.6834    6.1025    0.8470 C.ar      1 <0>        -0.1138
     24 C17        -1.3176    5.3259   -0.2354 C.ar      1 <0>        -0.0792
     25 C18        -0.7826    4.0675   -0.0375 C.ar      1 <0>        -0.1466
     26 C19        -0.6215    3.5742    1.2521 C.ar      1 <0>        -0.0629
     27 C20        -0.9883    4.3524    2.3421 C.ar      1 <0>        -0.1252
     28 S1          0.0539    1.9663    1.5035 S.3       1 <0>        -0.1153
     29 C21         0.3690    1.3552   -0.1751 C.3       1 <0>        -0.1440
     30 H1         -2.4636    9.7144    7.0942 H         1 <0>         0.0748
     31 H2         -3.9613   10.6184    6.7655 H         1 <0>         0.0924
     32 H3         -3.6983    9.0276    6.0115 H         1 <0>         0.0952
     33 H4         -0.8618   12.3189    2.1453 H         1 <0>         0.1508
     34 H5          0.4406   16.5425    4.9347 H         1 <0>         0.1438
     35 H6         -1.3415   17.9127    3.9363 H         1 <0>         0.1454
     36 H7         -3.3400   16.8429    2.9814 H         1 <0>         0.1438
     37 H8         -0.5227   10.0538    1.1443 H         1 <0>         0.1886
     38 H9         -2.2438    5.9866    4.0344 H         1 <0>         0.4277
     39 H10        -2.0974    7.0873    0.6888 H         1 <0>         0.1382
     40 H11        -1.4455    5.7052   -1.2385 H         1 <0>         0.1308
     41 H12        -0.4935    3.4647   -0.8857 H         1 <0>         0.1250
     42 H13        -0.8598    3.9737    3.3453 H         1 <0>         0.1313
     43 H14         0.7936    0.3527   -0.1231 H         1 <0>         0.1105
     44 H15         1.0700    2.0210   -0.6785 H         1 <0>         0.0855
     45 H16        -0.5673    1.3248   -0.7324 H         1 <0>         0.0854
@<TRIPOS>BOND
     1    1    2 1
     2    1   30 1
     3    1   31 1
     4    1   32 1
     5    2    7 am
     6    2    3 1
     7    3   20 ar
     8    3    4 ar
     9    4    5 1
    10    4   17 ar
    11    5    6 2
    12    5   33 1
    13    6    7 1
    14    6    9 1
    15    7    8 2
    16    9   14 ar
    17    9   10 ar
    18   10   11 ar
    19   10   16 1
    20   11   12 ar
    21   11   34 1
    22   12   13 ar
    23   12   35 1
    24   13   14 ar
    25   13   36 1
    26   14   15 1
    27   17   18 ar
    28   17   37 1
    29   18   19 ar
    30   19   20 ar
    31   19   21 1
    32   21   22 1
    33   21   38 1
    34   22   27 ar
    35   22   23 ar
    36   23   24 ar
    37   23   39 1
    38   24   25 ar
    39   24   40 1
    40   25   26 ar
    41   25   41 1
    42   26   27 ar
    43   26   28 1
    44   27   42 1
    45   28   29 1
    46   29   43 1
    47   29   44 1
    48   29   45 1
@<TRIPOS>MOLECULE
ZINC13130939
   40    42     0     0     0
SMALL
USER_CHARGES

@<TRIPOS>ATOM
      1 C1          0.0411    1.4484   -0.9047 C.ar      1 <0>        -0.1299
      2 C2          1.2157    2.1433   -0.6898 C.ar      1 <0>        -0.0642
      3 C3          2.4071    1.4537   -0.4670 C.ar      1 <0>        -0.0679
      4 C4          2.4125    0.0624   -0.4614 C.ar      1 <0>        -0.0092
      5 C5          1.2253   -0.6340   -0.6787 C.ar      1 <0>        -0.1457
      6 C6          0.0385    0.0681   -0.9006 C.ar      1 <0>        -0.0678
      7 C7          1.2220   -2.1126   -0.6749 C.2       1 <0>         0.5629
      8 O1          2.2558   -2.7222   -0.4820 O.2       1 <0>        -0.5322
      9 N1          0.0727   -2.7845   -0.8852 N.am      1 <0>        -0.8507
     10 C8          3.6669    2.2024   -0.2370 C.ar      1 <0>         0.2491
     11 C9          3.6550    3.5912   -0.1321 C.ar      1 <0>        -0.2721
     12 C10         4.8664    4.2464    0.0841 C.ar      1 <0>         0.4331
     13 N2          5.9813    3.5264    0.1816 N.ar      1 <0>        -0.5675
     14 C11         5.9508    2.2132    0.0767 C.ar      1 <0>         0.3475
     15 N3          4.8275    1.5557   -0.1220 N.ar      1 <0>        -0.5460
     16 N4          4.9090    5.6278    0.1954 N.pl3     1 <0>        -0.6506
     17 C12         6.1419    6.2851    0.2859 C.ar      1 <0>         0.1432
     18 C13         7.2388    5.8043   -0.4169 C.ar      1 <0>        -0.0763
     19 C14         8.4544    6.4532   -0.3271 C.ar      1 <0>        -0.1004
     20 C15         8.5800    7.5850    0.4649 C.ar      1 <0>         0.0871
     21 C16         7.4848    8.0660    1.1673 C.ar      1 <0>        -0.1678
     22 C17         6.2670    7.4216    1.0741 C.ar      1 <0>        -0.1071
     23 O2          9.7776    8.2232    0.5532 O.3       1 <0>        -0.3094
     24 C18         9.8352    9.3823    1.3869 C.3       1 <0>         0.6036
     25 F1          9.4991    9.0305    2.6986 F         1 <0>        -0.1650
     26 F2         11.1306    9.9102    1.3630 F         1 <0>        -0.1304
     27 F3          8.9321   10.3412    0.9154 F         1 <0>        -0.1655
     28 H1         -0.8796    1.9874   -1.0722 H         1 <0>         0.1377
     29 H2          1.2111    3.2232   -0.6946 H         1 <0>         0.1340
     30 H3          3.3331   -0.4755   -0.2897 H         1 <0>         0.1531
     31 H4         -0.8827   -0.4698   -1.0693 H         1 <0>         0.1313
     32 H5         -0.7522   -2.2981   -1.0391 H         1 <0>         0.4007
     33 H6          0.0706   -3.7545   -0.8827 H         1 <0>         0.4076
     34 H7          2.7321    4.1457   -0.2164 H         1 <0>         0.1469
     35 H8          6.8742    1.6594    0.1607 H         1 <0>         0.2027
     36 H9          4.0846    6.1388    0.2106 H         1 <0>         0.4229
     37 H10         7.1412    4.9228   -1.0333 H         1 <0>         0.1466
     38 H11         9.3077    6.0791   -0.8733 H         1 <0>         0.1432
     39 H12         7.5835    8.9473    1.7837 H         1 <0>         0.1371
     40 H13         5.4133    7.7988    1.6174 H         1 <0>         0.1355
@<TRIPOS>BOND
     1    1    6 ar
     2    1    2 ar
     3    1   28 1
     4    2    3 ar
     5    2   29 1
     6    3    4 ar
     7    3   10 1
     8    4    5 ar
     9    4   30 1
    10    5    6 ar
    11    5    7 1
    12    6   31 1
    13    7    8 2
    14    7    9 am
    15    9   32 1
    16    9   33 1
    17   10   15 ar
    18   10   11 ar
    19   11   12 ar
    20   11   34 1
    21   12   13 ar
    22   12   16 1
    23   13   14 ar
    24   14   15 ar
    25   14   35 1
    26   16   17 1
    27   16   36 1
    28   17   22 ar
    29   17   18 ar
    30   18   19 ar
    31   18   37 1
    32   19   20 ar
    33   19   38 1
    34   20   21 ar
    35   20   23 1
    36   21   22 ar
    37   21   39 1
    38   22   40 1
    39   23   24 1
    40   24   25 1
    41   24   26 1
    42   24   27 1
@<TRIPOS>MOLECULE
ZINC19632618
   69    73     0     0     0
SMALL
USER_CHARGES

@<TRIPOS>ATOM
      1 C1         -0.1643    1.5374    0.2772 C.3       1 <0>        -0.1166
      2 C2          0.0708    0.1281   -0.2021 C.ar      1 <0>        -0.1228
      3 C3         -0.6192   -0.3521   -1.2987 C.ar      1 <0>        -0.0806
      4 C4         -0.4070   -1.6434   -1.7410 C.ar      1 <0>        -0.1294
      5 C5          0.5017   -2.4641   -1.0837 C.ar      1 <0>         0.1504
      6 C6          1.1965   -1.9850    0.0175 C.ar      1 <0>        -0.1394
      7 C7          0.9852   -0.6852    0.4558 C.ar      1 <0>         0.1826
      8 N1          1.6874   -0.1967    1.5617 N.pl3     1 <0>        -0.6314
      9 C8          2.1285   -1.0695    2.5429 C.ar      1 <0>         0.5659
     10 N2          1.7764   -2.3456    2.4776 N.ar      1 <0>        -0.5577
     11 C9          2.1776   -3.2107    3.3953 C.ar      1 <0>         0.1910
     12 C10         2.9764   -2.7714    4.4364 C.ar      1 <0>        -0.2706
     13 C11         3.3313   -1.4207    4.4789 C.ar      1 <0>         0.2697
     14 N3          2.8950   -0.6087    3.5185 N.ar      1 <0>        -0.5576
     15 C12         4.1856   -0.9008    5.5740 C.ar      1 <0>        -0.1200
     16 C13         4.4510    0.4679    5.6793 C.ar      1 <0>        -0.0267
     17 C14         5.2541    0.9026    6.7193 C.ar      1 <0>        -0.1772
     18 C15         5.7636   -0.0222    7.6129 C.ar      1 <0>         0.1192
     19 N4          5.4957   -1.3077    7.4879 N.ar      1 <0>        -0.4844
     20 C16         4.7320   -1.7677    6.5181 C.ar      1 <0>         0.1336
     21 N5          0.7153   -3.7716   -1.5315 N.am      1 <0>        -0.6649
     22 C17         0.7404   -4.0356   -2.8529 C.2       1 <0>         0.5545
     23 O1          0.4912   -3.1555   -3.6535 O.2       1 <0>        -0.5086
     24 C18         1.0709   -5.3955   -3.3287 C.ar      1 <0>        -0.1216
     25 C19         1.3519   -6.4100   -2.4119 C.ar      1 <0>        -0.0841
     26 C20         1.6592   -7.6771   -2.8626 C.ar      1 <0>        -0.1244
     27 C21         1.6892   -7.9435   -4.2200 C.ar      1 <0>        -0.0692
     28 C22         1.4117   -6.9425   -5.1341 C.ar      1 <0>        -0.0994
     29 C23         1.0978   -5.6724   -4.6966 C.ar      1 <0>        -0.0536
     30 C24         2.0262   -9.3299   -4.7050 C.3       1 <0>         0.0939
     31 N6          0.7933  -10.1196   -4.8258 N.3       1 <0>        -0.5345
     32 C25         0.1866  -10.3538   -3.5078 C.3       1 <0>         0.0185
     33 C26        -1.1228  -11.1262   -3.6823 C.3       1 <0>        -0.0025
     34 N7         -0.8513  -12.4061   -4.3498 N.4       1 <0>        -0.3884
     35 C27        -0.2685  -12.1554   -5.6746 C.3       1 <0>        -0.0024
     36 C28         1.0481  -11.3916   -5.5166 C.3       1 <0>         0.0250
     37 C29        -2.1059  -13.1551   -4.5009 C.3       1 <0>        -0.0460
     38 H1          0.5251    2.2130   -0.2290 H         1 <0>         0.0728
     39 H2         -1.1901    1.8307    0.0540 H         1 <0>         0.0743
     40 H3          0.0021    1.5877    1.3533 H         1 <0>         0.0627
     41 H4         -1.3262    0.2836   -1.8111 H         1 <0>         0.1320
     42 H5         -0.9481   -2.0158   -2.5982 H         1 <0>         0.1349
     43 H6          1.9030   -2.6209    0.5302 H         1 <0>         0.1479
     44 H7          1.8658    0.7534    1.6418 H         1 <0>         0.4260
     45 H8          1.8844   -4.2483    3.3325 H         1 <0>         0.1734
     46 H9          3.3172   -3.4566    5.1985 H         1 <0>         0.1507
     47 H10         4.0401    1.1680    4.9670 H         1 <0>         0.1466
     48 H11         5.4807    1.9525    6.8318 H         1 <0>         0.1437
     49 H12         6.3909    0.3135    8.4254 H         1 <0>         0.1633
     50 H13         4.5316   -2.8268    6.4514 H         1 <0>         0.1617
     51 H14         0.8453   -4.4884   -0.8911 H         1 <0>         0.4084
     52 H15         1.3291   -6.2032   -1.3521 H         1 <0>         0.1294
     53 H16         1.8771   -8.4627   -2.1544 H         1 <0>         0.1265
     54 H17         1.4372   -7.1570   -6.1922 H         1 <0>         0.1340
     55 H18         0.8770   -4.8931   -5.4110 H         1 <0>         0.1424
     56 H19         2.5135   -9.2661   -5.6779 H         1 <0>         0.1008
     57 H20         2.6973   -9.8107   -3.9933 H         1 <0>         0.0595
     58 H21         0.8718  -10.9344   -2.8900 H         1 <0>         0.0618
     59 H22        -0.0167   -9.3975   -3.0259 H         1 <0>         0.1265
     60 H23        -1.5673  -11.3133   -2.7048 H         1 <0>         0.1359
     61 H24        -1.8127  -10.5393   -4.2887 H         1 <0>         0.1379
     62 H25        -0.0795  -13.1056   -6.1741 H         1 <0>         0.1367
     63 H26        -0.9627  -11.5633   -6.2708 H         1 <0>         0.1381
     64 H27         1.4733  -11.1924   -6.5003 H         1 <0>         0.1253
     65 H28         1.7474  -11.9892   -4.9320 H         1 <0>         0.0621
     66 H29        -2.8061  -12.5737   -5.1008 H         1 <0>         0.1233
     67 H30        -1.9046  -14.1049   -4.9963 H         1 <0>         0.1246
     68 H31        -2.5379  -13.3423   -3.5179 H         1 <0>         0.1243
     69 H32        -0.2036  -12.9443   -3.7940 H         1 <0>         0.4222
@<TRIPOS>BOND
     1    1    2 1
     2    1   38 1
     3    1   39 1
     4    1   40 1
     5    2    7 ar
     6    2    3 ar
     7    3    4 ar
     8    3   41 1
     9    4    5 ar
    10    4   42 1
    11    5    6 ar
    12    5   21 1
    13    6    7 ar
    14    6   43 1
    15    7    8 1
    16    8    9 1
    17    8   44 1
    18    9   14 ar
    19    9   10 ar
    20   10   11 ar
    21   11   12 ar
    22   11   45 1
    23   12   13 ar
    24   12   46 1
    25   13   14 ar
    26   13   15 1
    27   15   20 ar
    28   15   16 ar
    29   16   17 ar
    30   16   47 1
    31   17   18 ar
    32   17   48 1
    33   18   19 ar
    34   18   49 1
    35   19   20 ar
    36   20   50 1
    37   21   22 am
    38   21   51 1
    39   22   23 2
    40   22   24 1
    41   24   29 ar
    42   24   25 ar
    43   25   26 ar
    44   25   52 1
    45   26   27 ar
    46   26   53 1
    47   27   28 ar
    48   27   30 1
    49   28   29 ar
    50   28   54 1
    51   29   55 1
    52   30   31 1
    53   30   56 1
    54   30   57 1
    55   31   36 1
    56   31   32 1
    57   32   33 1
    58   32   58 1
    59   32   59 1
    60   33   34 1
    61   33   60 1
    62   33   61 1
    63   34   35 1
    64   34   37 1
    65   34   69 1
    66   35   36 1
    67   35   62 1
    68   35   63 1
    69   36   64 1
    70   36   65 1
    71   37   66 1
    72   37   67 1
    73   37   68 1
@<TRIPOS>MOLECULE
ZINC19632618
   69    73     0     0     0
SMALL
USER_CHARGES

@<TRIPOS>ATOM
      1 C1         -0.1643    1.5374    0.2772 C.3       1 <0>        -0.1179
      2 C2          0.0708    0.1281   -0.2021 C.ar      1 <0>        -0.1195
      3 C3         -0.6192   -0.3521   -1.2987 C.ar      1 <0>        -0.0803
      4 C4         -0.4070   -1.6434   -1.7410 C.ar      1 <0>        -0.1287
      5 C5          0.5017   -2.4641   -1.0837 C.ar      1 <0>         0.1452
      6 C6          1.1965   -1.9850    0.0175 C.ar      1 <0>        -0.1374
      7 C7          0.9852   -0.6852    0.4558 C.ar      1 <0>         0.1839
      8 N1          1.6874   -0.1967    1.5617 N.pl3     1 <0>        -0.6318
      9 C8          2.1285   -1.0695    2.5429 C.ar      1 <0>         0.5654
     10 N2          1.7764   -2.3456    2.4776 N.ar      1 <0>        -0.5590
     11 C9          2.1776   -3.2107    3.3953 C.ar      1 <0>         0.1907
     12 C10         2.9764   -2.7714    4.4364 C.ar      1 <0>        -0.2695
     13 C11         3.3313   -1.4207    4.4789 C.ar      1 <0>         0.2707
     14 N3          2.8950   -0.6087    3.5185 N.ar      1 <0>        -0.5571
     15 C12         4.1856   -0.9008    5.5740 C.ar      1 <0>        -0.1213
     16 C13         4.4510    0.4679    5.6793 C.ar      1 <0>        -0.0264
     17 C14         5.2541    0.9026    6.7193 C.ar      1 <0>        -0.1772
     18 C15         5.7636   -0.0222    7.6129 C.ar      1 <0>         0.1201
     19 N4          5.4957   -1.3077    7.4879 N.ar      1 <0>        -0.4842
     20 C16         4.7320   -1.7677    6.5181 C.ar      1 <0>         0.1342
     21 N5          0.7153   -3.7716   -1.5315 N.am      1 <0>        -0.6603
     22 C17         0.7404   -4.0356   -2.8529 C.2       1 <0>         0.5491
     23 O1          0.4912   -3.1555   -3.6535 O.2       1 <0>        -0.5015
     24 C18         1.0709   -5.3955   -3.3287 C.ar      1 <0>        -0.0938
     25 C19         1.3519   -6.4100   -2.4119 C.ar      1 <0>        -0.0834
     26 C20         1.6592   -7.6771   -2.8626 C.ar      1 <0>        -0.1009
     27 C21         1.6892   -7.9435   -4.2200 C.ar      1 <0>        -0.1382
     28 C22         1.4117   -6.9425   -5.1341 C.ar      1 <0>        -0.0966
     29 C23         1.0978   -5.6724   -4.6966 C.ar      1 <0>        -0.0538
     30 C24         2.0262   -9.3299   -4.7050 C.3       1 <0>         0.0425
     31 N6          0.7933  -10.1196   -4.8258 N.4       1 <0>        -0.3856
     32 C25         0.1989  -10.3052   -3.4955 C.3       1 <0>        -0.0078
     33 C26        -1.0954  -11.1117   -3.6230 C.3       1 <0>         0.0256
     34 N7         -0.7986  -12.4159   -4.2323 N.3       1 <0>        -0.5431
     35 C27        -0.1799  -12.2456   -5.5546 C.3       1 <0>         0.0239
     36 C28         1.1068  -11.4297   -5.4112 C.3       1 <0>        -0.0024
     37 C29        -2.0090  -13.2436   -4.3201 C.3       1 <0>         0.0192
     38 H1          0.5251    2.2130   -0.2290 H         1 <0>         0.0738
     39 H2         -1.1901    1.8307    0.0540 H         1 <0>         0.0752
     40 H3          0.0021    1.5877    1.3533 H         1 <0>         0.0636
     41 H4         -1.3262    0.2836   -1.8111 H         1 <0>         0.1330
     42 H5         -0.9481   -2.0158   -2.5982 H         1 <0>         0.1345
     43 H6          1.9030   -2.6209    0.5302 H         1 <0>         0.1487
     44 H7          1.8658    0.7534    1.6418 H         1 <0>         0.4265
     45 H8          1.8844   -4.2483    3.3325 H         1 <0>         0.1737
     46 H9          3.3172   -3.4566    5.1985 H         1 <0>         0.1513
     47 H10         4.0401    1.1680    4.9670 H         1 <0>         0.1465
     48 H11         5.4807    1.9525    6.8318 H         1 <0>         0.1439
     49 H12         6.3909    0.3135    8.4254 H         1 <0>         0.1636
     50 H13         4.5316   -2.8268    6.4514 H         1 <0>         0.1618
     51 H14         0.8453   -4.4884   -0.8911 H         1 <0>         0.4091
     52 H15         1.3291   -6.2032   -1.3521 H         1 <0>         0.1399
     53 H16         1.8771   -8.4627   -2.1544 H         1 <0>         0.1405
     54 H17         1.4372   -7.1570   -6.1922 H         1 <0>         0.1409
     55 H18         0.8770   -4.8931   -5.4110 H         1 <0>         0.1513
     56 H19         2.5135   -9.2661   -5.6779 H         1 <0>         0.1411
     57 H20         2.6973   -9.8107   -3.9933 H         1 <0>         0.1402
     58 H21         0.8998  -10.8418   -2.8560 H         1 <0>         0.1385
     59 H22        -0.0212   -9.3320   -3.0568 H         1 <0>         0.1352
     60 H23        -1.5289  -11.2624   -2.6343 H         1 <0>         0.1235
     61 H24        -1.8016  -10.5690   -4.2513 H         1 <0>         0.0601
     62 H25         0.0544  -13.2235   -5.9751 H         1 <0>         0.1247
     63 H26        -0.8711  -11.7216   -6.2147 H         1 <0>         0.0606
     64 H27         1.5598  -11.2902   -6.3927 H         1 <0>         0.1372
     65 H28         1.8030  -11.9606   -4.7619 H         1 <0>         0.1392
     66 H29        -2.7542  -12.7340   -4.9308 H         1 <0>         0.0396
     67 H30        -1.7610  -14.2028   -4.7745 H         1 <0>         0.0842
     68 H31        -2.4099  -13.4082   -3.3199 H         1 <0>         0.0844
     69 H32         0.1396   -9.6332   -5.4209 H         1 <0>         0.4206
@<TRIPOS>BOND
     1    1    2 1
     2    1   38 1
     3    1   39 1
     4    1   40 1
     5    2    7 ar
     6    2    3 ar
     7    3    4 ar
     8    3   41 1
     9    4    5 ar
    10    4   42 1
    11    5    6 ar
    12    5   21 1
    13    6    7 ar
    14    6   43 1
    15    7    8 1
    16    8    9 1
    17    8   44 1
    18    9   14 ar
    19    9   10 ar
    20   10   11 ar
    21   11   12 ar
    22   11   45 1
    23   12   13 ar
    24   12   46 1
    25   13   14 ar
    26   13   15 1
    27   15   20 ar
    28   15   16 ar
    29   16   17 ar
    30   16   47 1
    31   17   18 ar
    32   17   48 1
    33   18   19 ar
    34   18   49 1
    35   19   20 ar
    36   20   50 1
    37   21   22 am
    38   21   51 1
    39   22   23 2
    40   22   24 1
    41   24   29 ar
    42   24   25 ar
    43   25   26 ar
    44   25   52 1
    45   26   27 ar
    46   26   53 1
    47   27   28 ar
    48   27   30 1
    49   28   29 ar
    50   28   54 1
    51   29   55 1
    52   30   31 1
    53   30   56 1
    54   30   57 1
    55   31   36 1
    56   31   32 1
    57   31   69 1
    58   32   33 1
    59   32   58 1
    60   32   59 1
    61   33   34 1
    62   33   60 1
    63   33   61 1
    64   34   35 1
    65   34   37 1
    66   35   36 1
    67   35   62 1
    68   35   63 1
    69   36   64 1
    70   36   65 1
    71   37   66 1
    72   37   67 1
    73   37   68 1
@<TRIPOS>MOLECULE
ZINC19632618
   68    72     0     0     0
SMALL
USER_CHARGES

@<TRIPOS>ATOM
      1 C1         -0.1643    1.5374    0.2772 C.3       1 <0>        -0.1139
      2 C2          0.0708    0.1281   -0.2021 C.ar      1 <0>        -0.1276
      3 C3         -0.6192   -0.3521   -1.2987 C.ar      1 <0>        -0.0809
      4 C4         -0.4070   -1.6434   -1.7410 C.ar      1 <0>        -0.1296
      5 C5          0.5017   -2.4641   -1.0837 C.ar      1 <0>         0.1575
      6 C6          1.1965   -1.9850    0.0175 C.ar      1 <0>        -0.1408
      7 C7          0.9852   -0.6852    0.4558 C.ar      1 <0>         0.1805
      8 N1          1.6874   -0.1967    1.5617 N.pl3     1 <0>        -0.6310
      9 C8          2.1285   -1.0695    2.5429 C.ar      1 <0>         0.5658
     10 N2          1.7764   -2.3456    2.4776 N.ar      1 <0>        -0.5548
     11 C9          2.1776   -3.2107    3.3953 C.ar      1 <0>         0.1930
     12 C10         2.9764   -2.7714    4.4364 C.ar      1 <0>        -0.2707
     13 C11         3.3313   -1.4207    4.4789 C.ar      1 <0>         0.2660
     14 N3          2.8950   -0.6087    3.5185 N.ar      1 <0>        -0.5591
     15 C12         4.1856   -0.9008    5.5740 C.ar      1 <0>        -0.1161
     16 C13         4.4510    0.4679    5.6793 C.ar      1 <0>        -0.0277
     17 C14         5.2541    0.9026    6.7193 C.ar      1 <0>        -0.1780
     18 C15         5.7636   -0.0222    7.6129 C.ar      1 <0>         0.1167
     19 N4          5.4957   -1.3077    7.4879 N.ar      1 <0>        -0.4846
     20 C16         4.7320   -1.7677    6.5181 C.ar      1 <0>         0.1331
     21 N5          0.7153   -3.7716   -1.5315 N.am      1 <0>        -0.6684
     22 C17         0.7404   -4.0356   -2.8529 C.2       1 <0>         0.5607
     23 O1          0.4912   -3.1555   -3.6535 O.2       1 <0>        -0.5149
     24 C18         1.0709   -5.3955   -3.3287 C.ar      1 <0>        -0.1367
     25 C19         1.3519   -6.4100   -2.4119 C.ar      1 <0>        -0.0845
     26 C20         1.6592   -7.6771   -2.8626 C.ar      1 <0>        -0.1214
     27 C21         1.6892   -7.9435   -4.2200 C.ar      1 <0>        -0.0481
     28 C22         1.4117   -6.9425   -5.1341 C.ar      1 <0>        -0.1045
     29 C23         1.0978   -5.6724   -4.6966 C.ar      1 <0>        -0.0549
     30 C24         2.0262   -9.3299   -4.7050 C.3       1 <0>         0.0887
     31 N6          0.7933  -10.1196   -4.8258 N.3       1 <0>        -0.5346
     32 C25         0.1854  -10.3517   -3.5082 C.3       1 <0>         0.0528
     33 C26        -1.1341  -11.1069   -3.6840 C.3       1 <0>         0.0560
     34 N7         -0.8794  -12.3787   -4.3748 N.3       1 <0>        -0.5467
     35 C27        -0.2715  -12.1466   -5.6924 C.3       1 <0>         0.0557
     36 C28         1.0481  -11.3914   -5.5165 C.3       1 <0>         0.0569
     37 C29        -2.1122  -13.1683   -4.4955 C.3       1 <0>         0.0243
     38 H1          0.5251    2.2130   -0.2290 H         1 <0>         0.0707
     39 H2         -1.1901    1.8307    0.0540 H         1 <0>         0.0727
     40 H3          0.0021    1.5877    1.3533 H         1 <0>         0.0612
     41 H4         -1.3262    0.2836   -1.8111 H         1 <0>         0.1306
     42 H5         -0.9481   -2.0158   -2.5982 H         1 <0>         0.1361
     43 H6          1.9030   -2.6209    0.5302 H         1 <0>         0.1478
     44 H7          1.8658    0.7534    1.6418 H         1 <0>         0.4247
     45 H8          1.8844   -4.2483    3.3325 H         1 <0>         0.1749
     46 H9          3.3172   -3.4566    5.1985 H         1 <0>         0.1504
     47 H10         4.0401    1.1680    4.9670 H         1 <0>         0.1465
     48 H11         5.4807    1.9525    6.8318 H         1 <0>         0.1424
     49 H12         6.3909    0.3135    8.4254 H         1 <0>         0.1620
     50 H13         4.5316   -2.8268    6.4514 H         1 <0>         0.1624
     51 H14         0.8453   -4.4884   -0.8911 H         1 <0>         0.4098
     52 H15         1.3291   -6.2032   -1.3521 H         1 <0>         0.1256
     53 H16         1.8771   -8.4627   -2.1544 H         1 <0>         0.1277
     54 H17         1.4372   -7.1570   -6.1922 H         1 <0>         0.1323
     55 H18         0.8770   -4.8931   -5.4110 H         1 <0>         0.1380
     56 H19         2.5135   -9.2661   -5.6779 H         1 <0>         0.0885
     57 H20         2.6973   -9.8107   -3.9933 H         1 <0>         0.0490
     58 H21         0.8640  -10.9435   -2.8938 H         1 <0>         0.0436
     59 H22        -0.0051   -9.3950   -3.0219 H         1 <0>         0.0840
     60 H23        -1.5725  -11.3056   -2.7060 H         1 <0>         0.0799
     61 H24        -1.8225  -10.5033   -4.2756 H         1 <0>         0.0432
     62 H25        -0.0810  -13.1033   -6.1787 H         1 <0>         0.0811
     63 H26        -0.9501  -11.5548   -6.3068 H         1 <0>         0.0437
     64 H27         1.4864  -11.1926   -6.4945 H         1 <0>         0.0821
     65 H28         1.7364  -11.9950   -4.9250 H         1 <0>         0.0450
     66 H29        -2.8511  -12.6037   -5.0641 H         1 <0>         0.0271
     67 H30        -1.8953  -14.1043   -5.0104 H         1 <0>         0.0693
     68 H31        -2.5051  -13.3830   -3.5017 H         1 <0>         0.0693
@<TRIPOS>BOND
     1    1    2 1
     2    1   38 1
     3    1   39 1
     4    1   40 1
     5    2    7 ar
     6    2    3 ar
     7    3    4 ar
     8    3   41 1
     9    4    5 ar
    10    4   42 1
    11    5    6 ar
    12    5   21 1
    13    6    7 ar
    14    6   43 1
    15    7    8 1
    16    8    9 1
    17    8   44 1
    18    9   14 ar
    19    9   10 ar
    20   10   11 ar
    21   11   12 ar
    22   11   45 1
    23   12   13 ar
    24   12   46 1
    25   13   14 ar
    26   13   15 1
    27   15   20 ar
    28   15   16 ar
    29   16   17 ar
    30   16   47 1
    31   17   18 ar
    32   17   48 1
    33   18   19 ar
    34   18   49 1
    35   19   20 ar
    36   20   50 1
    37   21   22 am
    38   21   51 1
    39   22   23 2
    40   22   24 1
    41   24   29 ar
    42   24   25 ar
    43   25   26 ar
    44   25   52 1
    45   26   27 ar
    46   26   53 1
    47   27   28 ar
    48   27   30 1
    49   28   29 ar
    50   28   54 1
    51   29   55 1
    52   30   31 1
    53   30   56 1
    54   30   57 1
    55   31   36 1
    56   31   32 1
    57   32   33 1
    58   32   58 1
    59   32   59 1
    60   33   34 1
    61   33   60 1
    62   33   61 1
    63   34   35 1
    64   34   37 1
    65   35   36 1
    66   35   62 1
    67   35   63 1
    68   36   64 1
    69   36   65 1
    70   37   66 1
    71   37   67 1
    72   37   68 1
