@<TRIPOS>MOLECULE
ZINC03871576
   30    32     0     0     0
SMALL
USER_CHARGES

@<TRIPOS>ATOM
      1 C1         -0.0169    1.3935    0.0097 C.ar      1 <0>        -0.0604
      2 C2          1.1676    2.0963    0.0022 C.ar      1 <0>        -0.1497
      3 C3          2.3803    1.4179   -0.0135 C.ar      1 <0>         0.1360
      4 C4          2.4038    0.0284   -0.0212 C.ar      1 <0>        -0.1474
      5 C5          1.2241   -0.6823   -0.0133 C.ar      1 <0>        -0.0612
      6 C6          0.0021   -0.0041    0.0020 C.ar      1 <0>        -0.0853
      7 C7         -1.2639   -0.7610    0.0105 C.2       1 <0>         0.2092
      8 C8         -1.2134   -2.1203    0.0083 C.2       1 <0>        -0.3116
      9 C9         -2.4177   -2.8631    0.0169 C.2       1 <0>         0.4226
     10 O1         -2.4099   -4.0836    0.0156 O.2       1 <0>        -0.4538
     11 C10        -3.6809   -2.1061    0.0279 C.ar      1 <0>        -0.2659
     12 C11        -4.9199   -2.7591    0.0374 C.ar      1 <0>         0.2192
     13 C12        -6.0832   -2.0121    0.0480 C.ar      1 <0>        -0.2049
     14 C13        -6.0212   -0.6227    0.0493 C.ar      1 <0>         0.1922
     15 C14        -4.7984    0.0300    0.0400 C.ar      1 <0>        -0.1830
     16 C15        -3.6212   -0.7020    0.0293 C.ar      1 <0>         0.1830
     17 O2         -2.4220   -0.0821    0.0257 O.3       1 <0>        -0.2182
     18 O3         -7.1695    0.1013    0.0593 O.3       1 <0>        -0.4872
     19 O4         -4.9782   -4.1150    0.0356 O.3       1 <0>        -0.4722
     20 O5          3.5455    2.1145   -0.0218 O.3       1 <0>        -0.4965
     21 H1         -0.9589    1.9215    0.0260 H         1 <0>         0.1404
     22 H2          1.1538    3.1762    0.0081 H         1 <0>         0.1393
     23 H3          3.3485   -0.4949   -0.0338 H         1 <0>         0.1414
     24 H4          1.2432   -1.7622   -0.0196 H         1 <0>         0.1415
     25 H5         -0.2608   -2.6290   -0.0002 H         1 <0>         0.1637
     26 H6         -7.0423   -2.5086    0.0550 H         1 <0>         0.1502
     27 H7         -4.7627    1.1094    0.0411 H         1 <0>         0.1534
     28 H8         -7.4952    0.3100    0.9456 H         1 <0>         0.4037
     29 H9         -4.9875   -4.5094    0.9185 H         1 <0>         0.4031
     30 H10         3.8920    2.3119    0.8591 H         1 <0>         0.3984
@<TRIPOS>BOND
     1    1    6 ar
     2    1    2 ar
     3    1   21 1
     4    2    3 ar
     5    2   22 1
     6    3    4 ar
     7    3   20 1
     8    4    5 ar
     9    4   23 1
    10    5    6 ar
    11    5   24 1
    12    6    7 1
    13    7   17 1
    14    7    8 2
    15    8    9 1
    16    8   25 1
    17    9   10 2
    18    9   11 1
    19   11   16 ar
    20   11   12 ar
    21   12   13 ar
    22   12   19 1
    23   13   14 ar
    24   13   26 1
    25   14   15 ar
    26   14   18 1
    27   15   16 ar
    28   15   27 1
    29   16   17 1
    30   18   28 1
    31   19   29 1
    32   20   30 1
@<TRIPOS>MOLECULE
ZINC03871576
   29    31     0     0     0
SMALL
USER_CHARGES

@<TRIPOS>ATOM
      1 C1         -0.0169    1.3945    0.0097 C.ar      1 <0>        -0.0666
      2 C2          1.1672    2.0969    0.0022 C.ar      1 <0>        -0.1480
      3 C3          2.3804    1.4183   -0.0135 C.ar      1 <0>         0.1175
      4 C4          2.4042    0.0284   -0.0212 C.ar      1 <0>        -0.1471
      5 C5          1.2251   -0.6825   -0.0138 C.ar      1 <0>        -0.0696
      6 C6          0.0021   -0.0041    0.0020 C.ar      1 <0>        -0.0607
      7 C7         -1.2623   -0.7603    0.0105 C.2       1 <0>         0.1733
      8 C8         -1.2238   -2.1392    0.0085 C.2       1 <0>        -0.2675
      9 C9         -2.4161   -2.8666    0.0170 C.2       1 <0>         0.3649
     10 C10        -3.6370   -2.1554    0.0275 C.2       1 <0>        -0.3407
     11 C11        -4.8707   -2.8387    0.0369 C.2       1 <0>         0.2653
     12 C12        -6.0384   -2.1317    0.0475 C.2       1 <0>        -0.3780
     13 C13        -6.0158   -0.7277    0.0485 C.2       1 <0>         0.3615
     14 O1         -7.1627   -0.0461    0.0589 O.2       1 <0>        -0.6669
     15 C14        -4.7977   -0.0391    0.0393 C.2       1 <0>        -0.3147
     16 C15        -3.6098   -0.7430    0.0291 C.2       1 <0>         0.2111
     17 O2         -2.4272   -0.0920    0.0257 O.3       1 <0>        -0.2196
     18 O3         -4.8969   -4.1953    0.0351 O.3       1 <0>        -0.4477
     19 O4         -2.4024   -4.2178    0.0147 O.3       1 <0>        -0.5784
     20 O5          3.5452    2.1149   -0.0218 O.3       1 <0>        -0.4988
     21 H1         -0.9589    1.9225    0.0260 H         1 <0>         0.1416
     22 H2          1.1536    3.1768    0.0081 H         1 <0>         0.1349
     23 H3          3.3490   -0.4946   -0.0334 H         1 <0>         0.1360
     24 H4          1.2446   -1.7623   -0.0201 H         1 <0>         0.1407
     25 H5         -0.2747   -2.6546   -0.0001 H         1 <0>         0.1464
     26 H6         -6.9835   -2.6543    0.0547 H         1 <0>         0.1160
     27 H7         -4.7867    1.0408    0.0398 H         1 <0>         0.1203
     28 H8         -5.7877   -4.5715    0.0420 H         1 <0>         0.3828
     29 H9          3.8917    2.3124    0.8591 H         1 <0>         0.3921
@<TRIPOS>BOND
     1    1    6 ar
     2    1    2 ar
     3    1   21 1
     4    2    3 ar
     5    2   22 1
     6    3    4 ar
     7    3   20 1
     8    4    5 ar
     9    4   23 1
    10    5    6 ar
    11    5   24 1
    12    6    7 1
    13    7   17 1
    14    7    8 2
    15    8    9 1
    16    8   25 1
    17    9   10 2
    18    9   19 1
    19   10   16 1
    20   10   11 1
    21   11   12 2
    22   11   18 1
    23   12   13 1
    24   12   26 1
    25   13   14 2
    26   13   15 1
    27   15   16 2
    28   15   27 1
    29   16   17 1
    30   18   28 1
    31   20   29 1
@<TRIPOS>MOLECULE
ZINC19418959
   53    56     0     0     0
SMALL
USER_CHARGES

@<TRIPOS>ATOM
      1 C1          0.4204    1.5427   -0.3194 C.3       1 <0>        -0.0460
      2 N1          0.3487    0.0771   -0.2504 N.4       1 <0>        -0.3881
      3 C2          0.9699   -0.5001   -1.4498 C.3       1 <0>        -0.0029
      4 C3          0.8787   -2.0264   -1.3873 C.3       1 <0>         0.0253
      5 N2          1.5653   -2.5063   -0.1797 N.3       1 <0>        -0.5381
      6 C4          0.9701   -1.9172    1.0281 C.3       1 <0>         0.0200
      7 C5          1.0605   -0.3919    0.9458 C.3       1 <0>        -0.0028
      8 C6          1.5488   -3.9737   -0.1128 C.3       1 <0>         0.0563
      9 C7          2.4763   -4.4435    1.0097 C.3       1 <0>        -0.1490
     10 C8          2.4590   -5.9719    1.0794 C.3       1 <0>         0.1115
     11 N3          3.3471   -6.4217    2.1542 N.pl3     1 <0>        -0.5624
     12 C9          2.7947   -6.5759    3.4230 C.ar      1 <0>         0.1921
     13 C10         1.6439   -5.8634    3.7445 C.ar      1 <0>        -0.1625
     14 C11         1.0657   -5.9970    4.9923 C.ar      1 <0>        -0.0785
     15 C12         1.6269   -6.8403    5.9324 C.ar      1 <0>        -0.1323
     16 C13         2.7718   -7.5521    5.6246 C.ar      1 <0>        -0.0529
     17 C14         3.3588   -7.4215    4.3741 C.ar      1 <0>        -0.1573
     18 S1          4.8225   -8.3286    4.0036 S.3       1 <0>         0.0431
     19 C15         5.4784   -7.5174    2.5843 C.ar      1 <0>        -0.1233
     20 C16         4.6781   -6.6680    1.8281 C.ar      1 <0>         0.1899
     21 C17         5.2223   -6.0407    0.7125 C.ar      1 <0>        -0.1146
     22 C18         6.5389   -6.2664    0.3573 C.ar      1 <0>        -0.1463
     23 C19         7.3258   -7.1180    1.1085 C.ar      1 <0>        -0.0830
     24 C20         6.7996   -7.7356    2.2221 C.ar      1 <0>        -0.0588
     25 C21         7.1179   -5.5814   -0.8538 C.3       1 <0>         0.5109
     26 F1          7.6743   -4.3552   -0.4745 F         1 <0>        -0.1740
     27 F2          8.1112   -6.3901   -1.4165 F         1 <0>        -0.1704
     28 F3          6.1057   -5.3632   -1.7946 F         1 <0>        -0.1785
     29 H1          1.4638    1.8534   -0.3722 H         1 <0>         0.1234
     30 H2         -0.1078    1.8910   -1.2070 H         1 <0>         0.1248
     31 H3         -0.0417    1.9713    0.5699 H         1 <0>         0.1244
     32 H4          0.4490   -0.1411   -2.3374 H         1 <0>         0.1368
     33 H5          2.0168   -0.2004   -1.4968 H         1 <0>         0.1381
     34 H6         -0.1685   -2.3271   -1.3541 H         1 <0>         0.0616
     35 H7          1.3528   -2.4555   -2.2701 H         1 <0>         0.1249
     36 H8         -0.0756   -2.2162    1.1011 H         1 <0>         0.0619
     37 H9          1.5109   -2.2667    1.9076 H         1 <0>         0.1238
     38 H10         2.1070   -0.0926    0.8865 H         1 <0>         0.1379
     39 H11         0.6068    0.0475    1.8341 H         1 <0>         0.1360
     40 H12         0.5337   -4.3169    0.0871 H         1 <0>         0.0515
     41 H13         1.8908   -4.3847   -1.0626 H         1 <0>         0.0934
     42 H14         3.4913   -4.1004    0.8098 H         1 <0>         0.0856
     43 H15         2.1342   -4.0326    1.9596 H         1 <0>         0.0755
     44 H16         1.4439   -6.3150    1.2793 H         1 <0>         0.0895
     45 H17         2.8011   -6.3828    0.1296 H         1 <0>         0.0899
     46 H18         1.2002   -5.2020    3.0150 H         1 <0>         0.1272
     47 H19         0.1723   -5.4402    5.2339 H         1 <0>         0.1308
     48 H20         1.1719   -6.9431    6.9065 H         1 <0>         0.1354
     49 H21         3.2102   -8.2112    6.3594 H         1 <0>         0.1375
     50 H22         4.6131   -5.3736    0.1208 H         1 <0>         0.1431
     51 H23         8.3536   -7.2935    0.8271 H         1 <0>         0.1481
     52 H24         7.4163   -8.4005    2.8086 H         1 <0>         0.1492
     53 H25        -0.6172   -0.2102   -0.2010 H         1 <0>         0.4223
@<TRIPOS>BOND
     1    1    2 1
     2    1   29 1
     3    1   30 1
     4    1   31 1
     5    2    7 1
     6    2    3 1
     7    2   53 1
     8    3    4 1
     9    3   32 1
    10    3   33 1
    11    4    5 1
    12    4   34 1
    13    4   35 1
    14    5    6 1
    15    5    8 1
    16    6    7 1
    17    6   36 1
    18    6   37 1
    19    7   38 1
    20    7   39 1
    21    8    9 1
    22    8   40 1
    23    8   41 1
    24    9   10 1
    25    9   42 1
    26    9   43 1
    27   10   11 1
    28   10   44 1
    29   10   45 1
    30   11   20 1
    31   11   12 1
    32   12   17 ar
    33   12   13 ar
    34   13   14 ar
    35   13   46 1
    36   14   15 ar
    37   14   47 1
    38   15   16 ar
    39   15   48 1
    40   16   17 ar
    41   16   49 1
    42   17   18 1
    43   18   19 1
    44   19   24 ar
    45   19   20 ar
    46   20   21 ar
    47   21   22 ar
    48   21   50 1
    49   22   23 ar
    50   22   25 1
    51   23   24 ar
    52   23   51 1
    53   24   52 1
    54   25   26 1
    55   25   27 1
    56   25   28 1
@<TRIPOS>MOLECULE
ZINC19418959
   53    56     0     0     0
SMALL
USER_CHARGES

@<TRIPOS>ATOM
      1 C1          0.4328    1.5258   -0.3011 C.3       1 <0>         0.0191
      2 N1          0.3593    0.0600   -0.2373 N.3       1 <0>        -0.5429
      3 C2          0.8896   -0.5479   -1.4659 C.3       1 <0>         0.0236
      4 C3          0.7405   -2.0687   -1.3844 C.3       1 <0>        -0.0021
      5 N2          1.4724   -2.5705   -0.2140 N.4       1 <0>        -0.3864
      6 C4          0.9155   -1.9734    1.0070 C.3       1 <0>        -0.0074
      7 C5          1.0660   -0.4518    0.9454 C.3       1 <0>         0.0248
      8 C6          1.3441   -4.0323   -0.1464 C.3       1 <0>        -0.0072
      9 C7          2.2069   -4.5677    0.9981 C.3       1 <0>        -0.1860
     10 C8          2.0732   -6.0902    1.0685 C.3       1 <0>         0.1181
     11 N3          2.8994   -6.6028    2.1644 N.pl3     1 <0>        -0.5624
     12 C9          2.3073   -6.7118    3.4198 C.ar      1 <0>         0.1854
     13 C10         1.2060   -5.9141    3.7135 C.ar      1 <0>        -0.1634
     14 C11         0.5902   -6.0007    4.9473 C.ar      1 <0>        -0.0766
     15 C12         1.0642   -6.8815    5.9011 C.ar      1 <0>        -0.1271
     16 C13         2.1593   -7.6780    5.6210 C.ar      1 <0>        -0.0512
     17 C14         2.7837   -7.5950    4.3846 C.ar      1 <0>        -0.1555
     18 S1          4.1834   -8.6105    4.0495 S.3       1 <0>         0.0508
     19 C15         4.9317   -7.8544    2.6456 C.ar      1 <0>        -0.1201
     20 C16         4.2155   -6.9492    1.8701 C.ar      1 <0>         0.1860
     21 C17         4.8314   -6.3674    0.7671 C.ar      1 <0>        -0.1187
     22 C18         6.1353   -6.6922    0.4434 C.ar      1 <0>        -0.1465
     23 C19         6.8381   -7.5986    1.2136 C.ar      1 <0>        -0.0782
     24 C20         6.2409   -8.1721    2.3149 C.ar      1 <0>        -0.0564
     25 C21         6.7925   -6.0557   -0.7542 C.3       1 <0>         0.5107
     26 F1          7.4304   -4.8737   -0.3627 F         1 <0>        -0.1734
     27 F2          7.7352   -6.9381   -1.2927 F         1 <0>        -0.1677
     28 F3          5.8220   -5.7644   -1.7188 F         1 <0>        -0.1812
     29 H1          1.4765    1.8352   -0.3565 H         1 <0>         0.0399
     30 H2         -0.0981    1.8781   -1.1855 H         1 <0>         0.0846
     31 H3         -0.0256    1.9517    0.5914 H         1 <0>         0.0847
     32 H4          0.3342   -0.1736   -2.3259 H         1 <0>         0.1251
     33 H5          1.9434   -0.2910   -1.5732 H         1 <0>         0.0609
     34 H6         -0.3146   -2.3258   -1.2908 H         1 <0>         0.1393
     35 H7          1.1462   -2.5225   -2.2886 H         1 <0>         0.1373
     36 H8         -0.1405   -2.2310    1.0883 H         1 <0>         0.1397
     37 H9          1.4508   -2.3566    1.8757 H         1 <0>         0.1346
     38 H10         2.1227   -0.1933    0.8778 H         1 <0>         0.0606
     39 H11         0.6393   -0.0074    1.8446 H         1 <0>         0.1243
     40 H12         0.3016   -4.2978    0.0297 H         1 <0>         0.1367
     41 H13         1.6765   -4.4702   -1.0876 H         1 <0>         0.1368
     42 H14         3.2494   -4.3022    0.8220 H         1 <0>         0.0947
     43 H15         1.8745   -4.1298    1.9393 H         1 <0>         0.0988
     44 H16         1.0308   -6.3556    1.2446 H         1 <0>         0.1004
     45 H17         2.4057   -6.5280    0.1273 H         1 <0>         0.0974
     46 H18         0.8307   -5.2231    2.9732 H         1 <0>         0.1250
     47 H19        -0.2642   -5.3778    5.1674 H         1 <0>         0.1340
     48 H20         0.5800   -6.9473    6.8642 H         1 <0>         0.1380
     49 H21         2.5295   -8.3664    6.3664 H         1 <0>         0.1394
     50 H22         4.2881   -5.6578    0.1607 H         1 <0>         0.1365
     51 H23         7.8561   -7.8515    0.9568 H         1 <0>         0.1503
     52 H24         6.7918   -8.8800    2.9163 H         1 <0>         0.1515
     53 H25         2.4470   -2.3223   -0.2952 H         1 <0>         0.4212
@<TRIPOS>BOND
     1    1    2 1
     2    1   29 1
     3    1   30 1
     4    1   31 1
     5    2    7 1
     6    2    3 1
     7    3    4 1
     8    3   32 1
     9    3   33 1
    10    4    5 1
    11    4   34 1
    12    4   35 1
    13    5    6 1
    14    5    8 1
    15    5   53 1
    16    6    7 1
    17    6   36 1
    18    6   37 1
    19    7   38 1
    20    7   39 1
    21    8    9 1
    22    8   40 1
    23    8   41 1
    24    9   10 1
    25    9   42 1
    26    9   43 1
    27   10   11 1
    28   10   44 1
    29   10   45 1
    30   11   20 1
    31   11   12 1
    32   12   17 ar
    33   12   13 ar
    34   13   14 ar
    35   13   46 1
    36   14   15 ar
    37   14   47 1
    38   15   16 ar
    39   15   48 1
    40   16   17 ar
    41   16   49 1
    42   17   18 1
    43   18   19 1
    44   19   24 ar
    45   19   20 ar
    46   20   21 ar
    47   21   22 ar
    48   21   50 1
    49   22   23 ar
    50   22   25 1
    51   23   24 ar
    52   23   51 1
    53   24   52 1
    54   25   26 1
    55   25   27 1
    56   25   28 1
@<TRIPOS>MOLECULE
ZINC06525249
   31    33     0     0     0
SMALL
USER_CHARGES

@<TRIPOS>ATOM
      1 C1         -0.0167    1.3839    0.0097 C.ar      1 <0>        -0.1505
      2 C2          1.1667    2.0938    0.0022 C.ar      1 <0>        -0.0642
      3 C3          2.3840    1.4172   -0.0131 C.ar      1 <0>        -0.0636
      4 C4          2.4022    0.0186   -0.0208 C.ar      1 <0>         0.1415
      5 C5          1.2106   -0.6854   -0.0132 C.ar      1 <0>        -0.1723
      6 C6          0.0021   -0.0041    0.0020 C.ar      1 <0>         0.1307
      7 O1         -1.1667   -0.6976    0.0095 O.3       1 <0>        -0.4974
      8 O2          3.5866   -0.6472   -0.0362 O.3       1 <0>        -0.4889
      9 C7          3.6574    2.1776   -0.0217 C.2       1 <0>        -0.2250
     10 C8          4.4249    2.2661    1.0953 C.2       1 <0>         0.1229
     11 O3          5.5840    2.9284    1.1242 O.3       1 <0>        -0.2142
     12 C9          5.9247    3.8037    0.1581 C.ar      1 <0>         0.1760
     13 C10         6.9588    4.7076    0.3571 C.ar      1 <0>        -0.1820
     14 C11         7.3070    5.5972   -0.6464 C.ar      1 <0>         0.1912
     15 C12         6.6315    5.5981   -1.8625 C.ar      1 <0>        -0.2028
     16 C13         5.5961    4.7083   -2.0806 C.ar      1 <0>         0.2177
     17 C14         5.2346    3.8116   -1.0677 C.ar      1 <0>        -0.2608
     18 C15         4.1286    2.8540   -1.2461 C.2       1 <0>         0.4337
     19 O4          3.6302    2.6362   -2.3374 O.2       1 <0>        -0.4351
     20 O5          4.9359    4.7040   -3.2661 O.3       1 <0>        -0.4761
     21 O6          8.3187    6.4785   -0.4403 O.3       1 <0>        -0.4880
     22 H1         -0.9600    1.9097    0.0260 H         1 <0>         0.1364
     23 H2          1.1489    3.1736    0.0078 H         1 <0>         0.1326
     24 H3          1.2215   -1.7653   -0.0195 H         1 <0>         0.1392
     25 H4         -1.5134   -0.8936   -0.8717 H         1 <0>         0.3963
     26 H5          3.9382   -0.8447    0.8427 H         1 <0>         0.3906
     27 H6          4.0833    1.7809    1.9978 H         1 <0>         0.1986
     28 H7          7.4928    4.7178    1.2958 H         1 <0>         0.1538
     29 H8          6.9161    6.2949   -2.6370 H         1 <0>         0.1504
     30 H9          5.3192    4.1119   -3.9276 H         1 <0>         0.4054
     31 H10         9.1887    6.1466   -0.7010 H         1 <0>         0.4040
@<TRIPOS>BOND
     1    1    6 ar
     2    1    2 ar
     3    1   22 1
     4    2    3 ar
     5    2   23 1
     6    3    4 ar
     7    3    9 1
     8    4    5 ar
     9    4    8 1
    10    5    6 ar
    11    5   24 1
    12    6    7 1
    13    7   25 1
    14    8   26 1
    15    9   18 1
    16    9   10 2
    17   10   11 1
    18   10   27 1
    19   11   12 1
    20   12   17 ar
    21   12   13 ar
    22   13   14 ar
    23   13   28 1
    24   14   15 ar
    25   14   21 1
    26   15   16 ar
    27   15   29 1
    28   16   17 ar
    29   16   20 1
    30   17   18 1
    31   18   19 2
    32   20   30 1
    33   21   31 1
