@<TRIPOS>MOLECULE
ZINC03813668
   24    24     0     0     0
SMALL
USER_CHARGES
5-(hydroxymethyl)piperidine-3,4-diol
@<TRIPOS>ATOM
      1 C1         -0.0127    1.0858    0.0080 C.3       1 <0>         0.0019
      2 C2         -0.7286    1.5791    1.2674 C.3       1 <0>        -0.1023
      3 H1         -0.7316    2.6691    1.2810 H         1 <0>         0.1126
      4 C3         -2.1703    1.0639    1.2644 C.3       1 <0>         0.1089
      5 H2         -2.1688   -0.0258    1.2907 H         1 <0>         0.0820
      6 C4         -2.8727    1.5441   -0.0087 C.3       1 <0>         0.0566
      7 H3         -2.9100    2.6334   -0.0156 H         1 <0>         0.0901
      8 C5         -2.0949    1.0518   -1.2313 C.3       1 <0>        -0.0409
      9 O1         -4.2019    1.0209   -0.0465 O.3       1 <0>        -0.5391
     10 O2         -2.8602    1.5683    2.4096 O.3       1 <0>        -0.5462
     11 C6         -0.0015    1.0541    2.5071 C.3       1 <0>         0.0845
     12 O3          1.3073    1.6242    2.5688 O.3       1 <0>        -0.5791
     13 H4          0.0021   -0.0041    0.0020 H         1 <0>         0.1346
     14 H5          1.0099    1.4629    0.0003 H         1 <0>         0.1504
     15 H6         -2.5844    1.4040   -2.1392 H         1 <0>         0.1385
     16 H7         -2.0703   -0.0380   -1.2313 H         1 <0>         0.1401
     17 H8         -4.7056    1.2828   -0.8292 H         1 <0>         0.4002
     18 H9         -3.7828    1.2851    2.4693 H         1 <0>         0.4024
     19 H10        -0.5609    1.3308    3.4008 H         1 <0>         0.0787
     20 H11         0.0774   -0.0315    2.4494 H         1 <0>         0.0582
     21 H12         1.8268    1.3350    3.3314 H         1 <0>         0.4003
     22 N1         -0.7177    1.5794   -1.1903 N.4       1 <0>        -0.5113
     23 H13        -0.2128    1.2727   -2.0301 H         1 <0>         0.4429
     24 H14        -0.7491    2.6054   -1.1656 H         1 <0>         0.4358
@<TRIPOS>BOND
     1    1    2 1
     2    1   13 1
     3    1   14 1
     4    1   22 1
     5    2    3 1
     6    2    4 1
     7    2   11 1
     8    4    5 1
     9    4    6 1
    10    4   10 1
    11    6    7 1
    12    6    8 1
    13    6    9 1
    14    8   15 1
    15    8   16 1
    16    8   22 1
    17    9   17 1
    18   10   18 1
    19   11   12 1
    20   11   19 1
    21   11   20 1
    22   12   21 1
    23   22   23 1
    24   22   24 1
