@<TRIPOS>MOLECULE
ZINC29128429
   49    51     0     0     0
SMALL
USER_CHARGES
(2R)-N-[(1R)-1-[5-[5-chloro-3-fluoro-2-(5-methyl-1,2,4-oxadiazol-3-yl)phenyl]-3-fluoro-2-pyridyl]ethyl]-3,3,3-trifluoro-2-hydroxy-2-methyl-propanamide
@<TRIPOS>ATOM
      1 C1          1.0000    5.2729    4.6995 C.3       1 <0>        -0.0705
      2 C2          0.5876    4.4042    3.5391 C.2       1 <0>         0.1924
      3 N1         -0.5550    4.4502    2.9009 N.2       1 <0>        -0.4646
      4 C3         -0.4775    3.4934    1.9477 C.2       1 <0>         0.2042
      5 N2          0.7004    2.9340    2.0575 N.2       1 <0>        -0.3629
      6 O1          1.3214    3.4457    2.9650 O.3       1 <0>         0.0854
      7 C4         -1.5271    3.1480    0.9602 C.ar      1 <0>        -0.0448
      8 C5         -1.3040    2.1294    0.0198 C.ar      1 <0>         0.0272
      9 C6         -2.2991    1.8100   -0.8987 C.ar      1 <0>        -0.1080
     10 C7         -3.4985    2.4970   -0.8863 C.ar      1 <0>         0.0140
     11 C8         -3.7184    3.5054    0.0369 C.ar      1 <0>        -0.1454
     12 C9         -2.7397    3.8362    0.9563 C.ar      1 <0>         0.1657
     13 F1         -2.9610    4.8211    1.8542 F         1 <0>        -0.1027
     14 Cl1        -4.7364    2.0929   -2.0343 Cl        1 <0>        -0.0355
     15 C10        -0.0169    1.3937    0.0097 C.ar      1 <0>        -0.0907
     16 C11         0.0021   -0.0041    0.0020 C.ar      1 <0>        -0.0790
     17 C12         1.2314   -0.6442   -0.0132 C.ar      1 <0>         0.0568
     18 C13         2.3900    0.1156   -0.0201 C.ar      1 <0>         0.1101
     19 N3          2.3383    1.4334   -0.0126 N.ar      1 <0>        -0.4484
     20 C14         1.1935    2.0847    0.0019 C.ar      1 <0>         0.1743
     21 C15         3.7297   -0.5743   -0.0371 C.3       1 <0>         0.1961
     22 H1          3.6112   -1.6258    0.2634 H         1 <0>         0.1093
     23 C16         4.3404   -0.4679   -1.4359 C.3       1 <0>        -0.1579
     24 N4          4.6205    0.0649    0.9345 N.am      1 <0>        -0.7060
     25 C17         5.6440   -0.6301    1.4693 C.2       1 <0>         0.5381
     26 O2          5.8276   -1.7845    1.1462 O.2       1 <0>        -0.5157
     27 C18         6.5604    0.0274    2.4689 C.3       1 <0>         0.0925
     28 C19         7.6591    0.7918    1.7277 C.3       1 <0>        -0.1853
     29 C20         7.1953   -1.0424    3.3595 C.3       1 <0>         0.4392
     30 F2          7.9299   -1.9321    2.5682 F         1 <0>        -0.1631
     31 F3          8.0460   -0.4321    4.2874 F         1 <0>        -0.1807
     32 F4          6.1907   -1.7414    4.0372 F         1 <0>        -0.1713
     33 O3          5.8101    0.9362    3.2771 O.3       1 <0>        -0.5542
     34 F5          1.2991   -1.9935   -0.0215 F         1 <0>        -0.1210
     35 H2          0.1833    5.9673    4.9461 H         1 <0>         0.1097
     36 H3          1.8988    5.8457    4.4274 H         1 <0>         0.1051
     37 H4          1.2189    4.6397    5.5719 H         1 <0>         0.1044
     38 H5         -2.1344    1.0247   -1.6216 H         1 <0>         0.1534
     39 H6         -4.6588    4.0364    0.0387 H         1 <0>         0.1601
     40 H7         -0.9174   -0.5706    0.0081 H         1 <0>         0.1543
     41 H8          1.1927    3.1647    0.0073 H         1 <0>         0.1571
     42 H9          5.3183   -0.9715   -1.4483 H         1 <0>         0.0738
     43 H10         4.4704    0.5921   -1.6995 H         1 <0>         0.0704
     44 H11         3.6715   -0.9478   -2.1655 H         1 <0>         0.0700
     45 H12         4.4540    1.1120    1.2275 H         1 <0>         0.4411
     46 H13         8.3280    1.2717    2.4573 H         1 <0>         0.0884
     47 H14         7.2026    1.5610    1.0874 H         1 <0>         0.0949
     48 H15         8.2366    0.0923    1.1055 H         1 <0>         0.0885
     49 H16         6.3125    1.5126    4.0679 H         1 <0>         0.4312
@<TRIPOS>BOND
     1    1    2 1
     2    1   35 1
     3    1   36 1
     4    1   37 1
     5    2    6 1
     6    2    3 2
     7    3    4 1
     8    4    5 2
     9    4    7 1
    10    5    6 1
    11    7   12 ar
    12    7    8 ar
    13    8    9 ar
    14    8   15 1
    15    9   10 ar
    16    9   38 1
    17   10   11 ar
    18   10   14 1
    19   11   12 ar
    20   11   39 1
    21   12   13 1
    22   15   20 ar
    23   15   16 ar
    24   16   17 ar
    25   16   40 1
    26   17   18 ar
    27   17   34 1
    28   18   19 ar
    29   18   21 1
    30   19   20 ar
    31   20   41 1
    32   21   22 1
    33   21   23 1
    34   21   24 1
    35   23   42 1
    36   23   43 1
    37   23   44 1
    38   24   25 am
    39   24   45 1
    40   25   26 2
    41   25   27 1
    42   27   28 1
    43   27   29 1
    44   27   33 1
    45   28   46 1
    46   28   47 1
    47   28   48 1
    48   29   30 1
    49   29   31 1
    50   29   32 1
    51   33   49 1
