@<TRIPOS>MOLECULE
ZINC03830569
   22    23     0     0     0
SMALL
USER_CHARGES

@<TRIPOS>ATOM
      1 C1         -0.0184    1.5046    0.0103 C.3       1 <0>        -0.2401
      2 C2          1.5102    1.5017   -0.0043 C.3       1 <0>         0.2457
      3 H1          1.9714    1.8821   -0.9158 H         1 <0>         0.1677
      4 N1          1.3538    0.0351    0.0781 N.am      1 <0>        -0.5228
      5 C3          0.0021   -0.0041    0.0020 C.2       1 <0>         0.5093
      6 O1         -0.8356   -0.8795   -0.0500 O.2       1 <0>        -0.4571
      7 C4          1.9721   -0.3241    1.3791 C.3       1 <0>         0.0278
      8 H2          1.4071   -1.1156    1.8714 H         1 <0>         0.1025
      9 C5          1.8699    0.9816    2.1603 C.2       1 <0>         0.0499
     10 C6          1.6006    1.1484    3.4386 C.2       1 <0>        -0.1753
     11 C7          1.5456    2.5367    4.0222 C.3       1 <0>         0.1205
     12 O2          0.3937    2.6563    4.8593 O.3       1 <0>        -0.5722
     13 O3          2.1252    1.9564    1.2083 O.3       1 <0>        -0.2947
     14 C8          3.4112   -0.7316    1.1941 C.2       1 <0>         0.5203
     15 O4          4.0686   -0.2522    0.2861 O.co2     1 <0>        -0.6613
     16 O5          3.9179   -1.5407    1.9525 O.co2     1 <0>        -0.6816
     17 H3         -0.4393    1.9244    0.9240 H         1 <0>         0.1193
     18 H4         -0.4566    1.9341   -0.8906 H         1 <0>         0.1107
     19 H5          1.4192    0.2902    4.0687 H         1 <0>         0.1430
     20 H6          2.4439    2.7187    4.6122 H         1 <0>         0.0571
     21 H7          1.4862    3.2677    3.2159 H         1 <0>         0.0547
     22 H8          0.2942    3.5262    5.2696 H         1 <0>         0.3766
@<TRIPOS>BOND
     1    1    5 1
     2    1    2 1
     3    1   17 1
     4    1   18 1
     5    2    3 1
     6    2   13 1
     7    2    4 1
     8    4    5 am
     9    4    7 1
    10    5    6 2
    11    7    8 1
    12    7    9 1
    13    7   14 1
    14    9   10 2
    15    9   13 1
    16   10   11 1
    17   10   19 1
    18   11   12 1
    19   11   20 1
    20   11   21 1
    21   12   22 1
    22   14   15 2
    23   14   16 1
