@<TRIPOS>MOLECULE
ZINC03818556
   47    48     0     0     0
SMALL
USER_CHARGES
5-[4-cyclohexyl-1-(hydroxycarbamoylmethyl)butyl]-1,2,4-oxadiazole-3-carboxamide
@<TRIPOS>ATOM
      1 C1        -11.9403    0.1158    4.5232 C.3       1 <0>        -0.1214
      2 C2        -11.7248   -1.3511    4.1455 C.3       1 <0>        -0.1205
      3 C3        -10.2286   -1.6174    3.9676 C.3       1 <0>        -0.1154
      4 C4         -9.6791   -0.7190    2.8578 C.3       1 <0>        -0.0867
      5 C5         -9.8946    0.7479    3.2355 C.3       1 <0>        -0.1172
      6 C6        -11.3907    1.0143    3.4133 C.3       1 <0>        -0.1212
      7 C7         -8.1829   -0.9854    2.6800 C.3       1 <0>        -0.1160
      8 C8         -7.6595   -0.1797    1.4893 C.3       1 <0>        -0.1231
      9 C9         -6.1634   -0.4461    1.3115 C.3       1 <0>        -0.1190
     10 C10        -5.6125    0.4569    0.2060 C.3       1 <0>         0.0229
     11 H1         -5.8538    1.4956    0.4313 H         1 <0>         0.1334
     12 C11        -6.2416    0.0659   -1.1327 C.3       1 <0>        -0.1322
     13 C12        -5.8052    1.0401   -2.1965 C.2       1 <0>         0.5108
     14 O1         -5.1516    2.0159   -1.8937 O.2       1 <0>        -0.5000
     15 N1         -6.1411    0.8270   -3.4842 N.am      1 <0>        -0.5973
     16 O2         -5.7310    1.7424   -4.4837 O.3       1 <0>        -0.3163
     17 C13        -4.1164    0.2951    0.1242 C.2       1 <0>         0.1925
     18 N2         -3.2219    1.2364    0.2928 N.2       1 <0>        -0.4124
     19 C14        -2.0234    0.6322    0.1278 C.2       1 <0>         0.1307
     20 N3         -2.2582   -0.6264   -0.1333 N.2       1 <0>        -0.3502
     21 O3         -3.4528   -0.8363   -0.1340 O.3       1 <0>         0.0953
     22 C15        -0.6905    1.2791    0.2199 C.2       1 <0>         0.6159
     23 O4         -0.6070    2.4660    0.4651 O.2       1 <0>        -0.4950
     24 N4          0.4271    0.5497    0.0315 N.am      1 <0>        -0.8323
     25 H2        -13.0061    0.3056    4.6498 H         1 <0>         0.0594
     26 H3        -11.4195    0.3311    5.4562 H         1 <0>         0.0606
     27 H4        -12.2455   -1.5663    3.2124 H         1 <0>         0.0605
     28 H5        -12.1163   -1.9911    4.9361 H         1 <0>         0.0601
     29 H6        -10.0751   -2.6625    3.6986 H         1 <0>         0.0607
     30 H7         -9.7079   -1.4022    4.9007 H         1 <0>         0.0613
     31 H8        -10.1998   -0.9343    1.9248 H         1 <0>         0.0699
     32 H9         -9.3738    0.9631    4.1686 H         1 <0>         0.0615
     33 H10        -9.5030    1.3879    2.4449 H         1 <0>         0.0644
     34 H11       -11.9114    0.7990    2.4803 H         1 <0>         0.0603
     35 H12       -11.5442    2.0593    3.6824 H         1 <0>         0.0604
     36 H13        -8.0221   -2.0481    2.4985 H         1 <0>         0.0649
     37 H14        -7.6508   -0.6864    3.5831 H         1 <0>         0.0645
     38 H15        -7.8203    0.8830    1.6708 H         1 <0>         0.0733
     39 H16        -8.1916   -0.4787    0.5862 H         1 <0>         0.0691
     40 H17        -6.0102   -1.4900    1.0380 H         1 <0>         0.0806
     41 H18        -5.6432   -0.2352    2.2458 H         1 <0>         0.0802
     42 H19        -5.9194   -0.9389   -1.4060 H         1 <0>         0.1107
     43 H20        -7.3278    0.0875   -1.0438 H         1 <0>         0.1279
     44 H21        -6.6638    0.0466   -3.7263 H         1 <0>         0.4086
     45 H22        -6.0190    1.5056   -5.3759 H         1 <0>         0.3886
     46 H23         0.3604   -0.3980   -0.1643 H         1 <0>         0.4093
     47 H24         1.2979    0.9733    0.0877 H         1 <0>         0.4176
@<TRIPOS>BOND
     1    1    6 1
     2    1    2 1
     3    1   25 1
     4    1   26 1
     5    2    3 1
     6    2   27 1
     7    2   28 1
     8    3    4 1
     9    3   29 1
    10    3   30 1
    11    4    5 1
    12    4    7 1
    13    4   31 1
    14    5    6 1
    15    5   32 1
    16    5   33 1
    17    6   34 1
    18    6   35 1
    19    7    8 1
    20    7   36 1
    21    7   37 1
    22    8    9 1
    23    8   38 1
    24    8   39 1
    25    9   10 1
    26    9   40 1
    27    9   41 1
    28   10   11 1
    29   10   12 1
    30   10   17 1
    31   12   13 1
    32   12   42 1
    33   12   43 1
    34   13   14 2
    35   13   15 am
    36   15   16 1
    37   15   44 1
    38   16   45 1
    39   17   21 1
    40   17   18 2
    41   18   19 1
    42   19   20 2
    43   19   22 1
    44   20   21 1
    45   22   23 2
    46   22   24 am
    47   24   46 1
    48   24   47 1
