@<TRIPOS>MOLECULE
ZINC32547730
   34    36     0     0     0
SMALL
USER_CHARGES
6-(3,5-dimethylisoxazol-4-yl)-3-methyl-1,4-dihydroquinazolin-2-one
@<TRIPOS>ATOM
      1 C1          7.1430    0.6391   -2.3945 C.3       1 <0>        -0.0805
      2 C2          7.2654   -0.0874   -1.0799 C.2       1 <0>         0.0350
      3 C3          6.2794   -0.1737   -0.0572 C.2       1 <0>        -0.1657
      4 C4          6.8818   -0.9276    0.9095 C.2       1 <0>        -0.0133
      5 O1          8.0995   -1.2348    0.4412 O.3       1 <0>         0.1011
      6 N1          8.2928   -0.7606   -0.6534 N.2       1 <0>        -0.3649
      7 C5          6.2938   -1.3349    2.2360 C.3       1 <0>        -0.0785
      8 C6          4.9192    0.4210   -0.0419 C.ar      1 <0>        -0.0384
      9 C7          4.7617    1.8057   -0.0330 C.ar      1 <0>        -0.0592
     10 C8          3.4993    2.3604   -0.0184 C.ar      1 <0>        -0.1556
     11 C9          2.3789    1.5383   -0.0125 C.ar      1 <0>         0.1883
     12 C10         2.5402    0.1561   -0.0215 C.ar      1 <0>        -0.1411
     13 C11         3.7945   -0.4046   -0.0360 C.ar      1 <0>        -0.0494
     14 C12         1.2976   -0.7044   -0.0142 C.3       1 <0>         0.1517
     15 N2          0.0021   -0.0041    0.0020 N.am      1 <0>        -0.6256
     16 C13        -0.0162    1.3411    0.0094 C.2       1 <0>         0.7042
     17 O2         -1.0929    1.9059    0.0175 O.2       1 <0>        -0.5797
     18 N3          1.0957    2.0871    0.0028 N.am      1 <0>        -0.6782
     19 C14        -1.2511   -0.7628    0.0095 C.3       1 <0>         0.0988
     20 H1          6.1521    1.1121   -2.4611 H         1 <0>         0.0826
     21 H2          7.2643   -0.0762   -3.2214 H         1 <0>         0.0807
     22 H3          7.9233    1.4116   -2.4605 H         1 <0>         0.0810
     23 H4          7.0260   -1.9393    2.7915 H         1 <0>         0.0866
     24 H5          5.3825   -1.9272    2.0667 H         1 <0>         0.0920
     25 H6          6.0438   -0.4355    2.8179 H         1 <0>         0.0932
     26 H7          5.6311    2.4463   -0.0379 H         1 <0>         0.1311
     27 H8          3.3813    3.4340   -0.0118 H         1 <0>         0.1352
     28 H9          3.9092   -1.4784   -0.0433 H         1 <0>         0.1333
     29 H10         1.2827   -1.3346   -0.9157 H         1 <0>         0.0788
     30 H11         1.3000   -1.3443    0.8805 H         1 <0>         0.0791
     31 H12         0.9646    3.1792    0.0100 H         1 <0>         0.4518
     32 H13        -2.1018   -0.0655    0.0215 H         1 <0>         0.0962
     33 H14        -1.2878   -1.4014    0.9044 H         1 <0>         0.0647
     34 H15        -1.3047   -1.3912   -0.8918 H         1 <0>         0.0646
@<TRIPOS>BOND
     1    1    2 1
     2    1   20 1
     3    1   21 1
     4    1   22 1
     5    2    6 2
     6    2    3 1
     7    3    4 2
     8    3    8 1
     9    4    5 1
    10    4    7 1
    11    5    6 1
    12    7   23 1
    13    7   24 1
    14    7   25 1
    15    8   13 ar
    16    8    9 ar
    17    9   10 ar
    18    9   26 1
    19   10   11 ar
    20   10   27 1
    21   11   18 1
    22   11   12 ar
    23   12   13 ar
    24   12   14 1
    25   13   28 1
    26   14   15 1
    27   14   29 1
    28   14   30 1
    29   15   16 am
    30   15   19 1
    31   16   17 2
    32   16   18 am
    33   18   31 1
    34   19   32 1
    35   19   33 1
    36   19   34 1
