@<TRIPOS>MOLECULE
ZINC49070819
   53    55     0     0     0
SMALL
USER_CHARGES

@<TRIPOS>ATOM
      1 C1         -0.0187    1.5258    0.0104 C.3       1 <0>        -0.1607
      2 C2          0.0021   -0.0041    0.0020 C.3       1 <0>        -0.1144
      3 C3          0.7421   -0.5109    1.2415 C.3       1 <0>        -0.0618
      4 C4          2.1775    0.0187    1.2307 C.3       1 <0>        -0.1556
      5 C5          0.0259   -0.0175    2.5003 C.3       1 <0>        -0.1534
      6 C6          0.7628   -2.0407    1.2331 C.3       1 <0>        -0.0574
      7 C7          1.4917   -2.5400    2.4540 C.2       1 <0>         0.0768
      8 C8          2.8227   -2.6959    2.5865 C.2       1 <0>        -0.0017
      9 N1          3.0652   -3.1605    3.8211 N.pl3     1 <0>        -0.4694
     10 C9          1.9350   -3.2985    4.4588 C.cat     1 <0>         0.3253
     11 N2          0.9285   -2.9165    3.6434 N.pl3     1 <0>        -0.5070
     12 H1         -0.0171   -2.9118    3.8596 H         1 <0>         0.4620
     13 C10         1.7793   -3.7962    5.8726 C.3       1 <0>        -0.0731
     14 C11         1.8364   -2.6118    6.8395 C.3       1 <0>        -0.0756
     15 C12         1.6806   -3.1095    8.2534 C.ar      1 <0>        -0.0971
     16 C13         0.4195   -3.2148    8.8118 C.ar      1 <0>        -0.1143
     17 C14         0.2709   -3.6701   10.1062 C.ar      1 <0>        -0.0765
     18 C15         1.3945   -4.0240   10.8508 C.ar      1 <0>        -0.0321
     19 C16         2.6626   -3.9158   10.2831 C.ar      1 <0>        -0.0983
     20 C17         2.7989   -3.4648    8.9859 C.ar      1 <0>        -0.1125
     21 C18         1.2412   -4.5135   12.2428 C.ar      1 <0>         0.1528
     22 C19         2.3706   -4.8596   12.9817 C.ar      1 <0>        -0.1605
     23 C20         2.2118   -5.3147   14.2791 C.ar      1 <0>        -0.0708
     24 C21         0.9270   -5.4088   14.7955 C.ar      1 <0>        -0.1664
     25 C22        -0.1491   -5.0483   14.0061 C.ar      1 <0>         0.1070
     26 N3          0.0304   -4.6129   12.7755 N.ar      1 <0>        -0.4776
     27 H2          1.0039    1.9031    0.0027 H         1 <0>         0.0599
     28 H3         -0.5459    1.8868   -0.8726 H         1 <0>         0.0609
     29 H4         -0.5289    1.8773    0.9072 H         1 <0>         0.0584
     30 H5         -1.0205   -0.3814    0.0098 H         1 <0>         0.0679
     31 H6          0.5123   -0.3556   -0.8948 H         1 <0>         0.0704
     32 H7          2.1627    1.1086    1.2367 H         1 <0>         0.0716
     33 H8          2.7046   -0.3424    2.1137 H         1 <0>         0.0500
     34 H9          2.6876   -0.3328    0.3339 H         1 <0>         0.0652
     35 H10        -0.9967   -0.3948    2.5081 H         1 <0>         0.0610
     36 H11         0.5531   -0.3786    3.3834 H         1 <0>         0.0428
     37 H12         0.0111    1.0724    2.5063 H         1 <0>         0.0743
     38 H13        -0.2598   -2.4180    1.2409 H         1 <0>         0.0982
     39 H14         1.2730   -2.3923    0.3363 H         1 <0>         0.1149
     40 H15         3.5649   -2.4839    1.8311 H         1 <0>         0.2239
     41 H16         0.8200   -4.3034    5.9757 H         1 <0>         0.1251
     42 H17         2.5852   -4.4928    6.1035 H         1 <0>         0.1256
     43 H18         2.7956   -2.1046    6.7365 H         1 <0>         0.0859
     44 H19         1.0304   -1.9152    6.6087 H         1 <0>         0.0861
     45 H20        -0.4505   -2.9400    8.2339 H         1 <0>         0.1264
     46 H21        -0.7142   -3.7516   10.5413 H         1 <0>         0.1401
     47 H22         3.5367   -4.1887   10.8557 H         1 <0>         0.1317
     48 H23         3.7808   -3.3851    8.5433 H         1 <0>         0.1271
     49 H24         3.3560   -4.7744   12.5481 H         1 <0>         0.1373
     50 H25         3.0684   -5.5908   14.8761 H         1 <0>         0.1404
     51 H26         0.7694   -5.7607   15.8044 H         1 <0>         0.1410
     52 H27        -1.1502   -5.1204   14.4049 H         1 <0>         0.1623
     53 H28         3.9423   -3.3625    4.1829 H         1 <0>         0.4641
@<TRIPOS>BOND
     1    1    2 1
     2    1   27 1
     3    1   28 1
     4    1   29 1
     5    2    3 1
     6    2   30 1
     7    2   31 1
     8    3    4 1
     9    3    5 1
    10    3    6 1
    11    4   32 1
    12    4   33 1
    13    4   34 1
    14    5   35 1
    15    5   36 1
    16    5   37 1
    17    6    7 1
    18    6   38 1
    19    6   39 1
    20    7   11 1
    21    7    8 2
    22    8    9 1
    23    8   40 1
    24    9   10 2
    25    9   53 1
    26   10   11 1
    27   10   13 1
    28   11   12 1
    29   13   14 1
    30   13   41 1
    31   13   42 1
    32   14   15 1
    33   14   43 1
    34   14   44 1
    35   15   20 ar
    36   15   16 ar
    37   16   17 ar
    38   16   45 1
    39   17   18 ar
    40   17   46 1
    41   18   19 ar
    42   18   21 1
    43   19   20 ar
    44   19   47 1
    45   20   48 1
    46   21   26 ar
    47   21   22 ar
    48   22   23 ar
    49   22   49 1
    50   23   24 ar
    51   23   50 1
    52   24   25 ar
    53   24   51 1
    54   25   26 ar
    55   25   52 1
