@<TRIPOS>MOLECULE
ZINC49070819
   53    55     0     0     0
SMALL
USER_CHARGES

@<TRIPOS>ATOM
      1 C1         -0.0187    1.5258    0.0104 C.3       1 <0>        -0.1607
      2 C2          0.0021   -0.0041    0.0020 C.3       1 <0>        -0.1144
      3 C3          0.7421   -0.5109    1.2415 C.3       1 <0>        -0.0618
      4 C4          2.1775    0.0187    1.2307 C.3       1 <0>        -0.1556
      5 C5          0.0259   -0.0175    2.5003 C.3       1 <0>        -0.1534
      6 C6          0.7628   -2.0407    1.2331 C.3       1 <0>        -0.0574
      7 C7          1.4917   -2.5400    2.4540 C.2       1 <0>         0.0768
      8 C8          2.8227   -2.6959    2.5865 C.2       1 <0>        -0.0017
      9 N1          3.0652   -3.1605    3.8211 N.pl3     1 <0>        -0.4694
     10 C9          1.9350   -3.2985    4.4588 C.cat     1 <0>         0.3253
     11 N2          0.9285   -2.9165    3.6434 N.pl3     1 <0>        -0.5070
     12 H1         -0.0171   -2.9118    3.8596 H         1 <0>         0.4620
     13 C10         1.7793   -3.7962    5.8726 C.3       1 <0>        -0.0731
     14 C11         1.8364   -2.6118    6.8395 C.3       1 <0>        -0.0756
     15 C12         1.6806   -3.1095    8.2534 C.ar      1 <0>        -0.0971
     16 C13         0.4195   -3.2148    8.8118 C.ar      1 <0>        -0.1143
     17 C14         0.2709   -3.6701   10.1062 C.ar      1 <0>        -0.0765
     18 C15         1.3945   -4.0240   10.8508 C.ar      1 <0>        -0.0321
     19 C16         2.6626   -3.9158   10.2831 C.ar      1 <0>        -0.0983
     20 C17         2.7989   -3.4648    8.9859 C.ar      1 <0>        -0.1125
     21 C18         1.2412   -4.5135   12.2428 C.ar      1 <0>         0.1528
     22 C19         2.3706   -4.8596   12.9817 C.ar      1 <0>        -0.1605
     23 C20         2.2118   -5.3147   14.2791 C.ar      1 <0>        -0.0708
     24 C21         0.9270   -5.4088   14.7955 C.ar      1 <0>        -0.1664
     25 C22        -0.1491   -5.0483   14.0061 C.ar      1 <0>         0.1070
     26 N3          0.0304   -4.6129   12.7755 N.ar      1 <0>        -0.4776
     27 H2          1.0039    1.9031    0.0027 H         1 <0>         0.0599
     28 H3         -0.5459    1.8868   -0.8726 H         1 <0>         0.0609
     29 H4         -0.5289    1.8773    0.9072 H         1 <0>         0.0584
     30 H5         -1.0205   -0.3814    0.0098 H         1 <0>         0.0679
     31 H6          0.5123   -0.3556   -0.8948 H         1 <0>         0.0704
     32 H7          2.1627    1.1086    1.2367 H         1 <0>         0.0716
     33 H8          2.7046   -0.3424    2.1137 H         1 <0>         0.0500
     34 H9          2.6876   -0.3328    0.3339 H         1 <0>         0.0652
     35 H10        -0.9967   -0.3948    2.5081 H         1 <0>         0.0610
     36 H11         0.5531   -0.3786    3.3834 H         1 <0>         0.0428
     37 H12         0.0111    1.0724    2.5063 H         1 <0>         0.0743
     38 H13        -0.2598   -2.4180    1.2409 H         1 <0>         0.0982
     39 H14         1.2730   -2.3923    0.3363 H         1 <0>         0.1149
     40 H15         3.5649   -2.4839    1.8311 H         1 <0>         0.2239
     41 H16         0.8200   -4.3034    5.9757 H         1 <0>         0.1251
     42 H17         2.5852   -4.4928    6.1035 H         1 <0>         0.1256
     43 H18         2.7956   -2.1046    6.7365 H         1 <0>         0.0859
     44 H19         1.0304   -1.9152    6.6087 H         1 <0>         0.0861
     45 H20        -0.4505   -2.9400    8.2339 H         1 <0>         0.1264
     46 H21        -0.7142   -3.7516   10.5413 H         1 <0>         0.1401
     47 H22         3.5367   -4.1887   10.8557 H         1 <0>         0.1317
     48 H23         3.7808   -3.3851    8.5433 H         1 <0>         0.1271
     49 H24         3.3560   -4.7744   12.5481 H         1 <0>         0.1373
     50 H25         3.0684   -5.5908   14.8761 H         1 <0>         0.1404
     51 H26         0.7694   -5.7607   15.8044 H         1 <0>         0.1410
     52 H27        -1.1502   -5.1204   14.4049 H         1 <0>         0.1623
     53 H28         3.9423   -3.3625    4.1829 H         1 <0>         0.4641
@<TRIPOS>BOND
     1    1    2 1
     2    1   27 1
     3    1   28 1
     4    1   29 1
     5    2    3 1
     6    2   30 1
     7    2   31 1
     8    3    4 1
     9    3    5 1
    10    3    6 1
    11    4   32 1
    12    4   33 1
    13    4   34 1
    14    5   35 1
    15    5   36 1
    16    5   37 1
    17    6    7 1
    18    6   38 1
    19    6   39 1
    20    7   11 1
    21    7    8 2
    22    8    9 1
    23    8   40 1
    24    9   10 2
    25    9   53 1
    26   10   11 1
    27   10   13 1
    28   11   12 1
    29   13   14 1
    30   13   41 1
    31   13   42 1
    32   14   15 1
    33   14   43 1
    34   14   44 1
    35   15   20 ar
    36   15   16 ar
    37   16   17 ar
    38   16   45 1
    39   17   18 ar
    40   17   46 1
    41   18   19 ar
    42   18   21 1
    43   19   20 ar
    44   19   47 1
    45   20   48 1
    46   21   26 ar
    47   21   22 ar
    48   22   23 ar
    49   22   49 1
    50   23   24 ar
    51   23   50 1
    52   24   25 ar
    53   24   51 1
    54   25   26 ar
    55   25   52 1
@<TRIPOS>MOLECULE
ZINC19815469
   48    50     0     0     0
SMALL
USER_CHARGES

@<TRIPOS>ATOM
      1 C1         -0.0187    1.5258    0.0104 C.3       1 <0>        -0.1579
      2 C2          0.0021   -0.0041    0.0020 C.3       1 <0>         0.1512
      3 C3          0.7421   -0.5109    1.2415 C.3       1 <0>        -0.1613
      4 N1         -1.3723   -0.5112    0.0124 N.pl3     1 <0>        -0.7117
      5 C4         -1.6483   -1.7575   -0.4943 C.2       1 <0>         0.6880
      6 O1         -0.6524   -2.5158   -1.0024 O.3       1 <0>        -0.7328
      7 N2         -2.8688   -2.2078   -0.4851 N.2       1 <0>        -1.1035
      8 S1         -3.2016   -3.7105   -1.0961 S.o2      1 <0>         2.6607
      9 O2         -2.9433   -3.6477   -2.4920 O.2       1 <0>        -0.9848
     10 O3         -2.5575   -4.6473   -0.2436 O.2       1 <0>        -0.9869
     11 C5         -4.9344   -3.9742   -0.9160 C.ar      1 <0>        -0.7261
     12 C6         -5.7409   -4.1061   -2.0269 C.ar      1 <0>         0.2585
     13 N3         -7.0396   -4.3042   -1.9006 N.ar      1 <0>        -0.5064
     14 C7         -7.6215   -4.3845   -0.7184 C.ar      1 <0>         0.1690
     15 C8         -6.8858   -4.2631    0.4413 C.ar      1 <0>        -0.2141
     16 C9         -5.5088   -4.0581    0.3520 C.ar      1 <0>         0.3866
     17 N4         -4.7293   -3.9360    1.4984 N.pl3     1 <0>        -0.6512
     18 C10        -5.3526   -4.0273    2.8211 C.3       1 <0>         0.1173
     19 H1         -6.1804   -4.7361    2.8021 H         1 <0>         0.1001
     20 C11        -5.8446   -2.6363    3.2821 C.3       1 <0>        -0.1382
     21 C12        -5.0416   -2.3467    4.5870 C.3       1 <0>        -0.0985
     22 H2         -4.9819   -1.3006    4.8875 H         1 <0>         0.1060
     23 C13        -5.6435   -3.3254    5.6411 C.3       1 <0>        -0.1251
     24 C14        -5.1667   -4.7254    5.1915 C.3       1 <0>        -0.1169
     25 C15        -4.2993   -4.4502    3.8903 C.3       1 <0>        -0.1115
     26 H3         -3.6057   -5.2360    3.5911 H         1 <0>         0.1145
     27 C16        -3.6795   -3.0507    4.2517 C.3       1 <0>        -0.1303
     28 H4          1.0039    1.9031    0.0027 H         1 <0>         0.0672
     29 H5         -0.5459    1.8868   -0.8726 H         1 <0>         0.0583
     30 H6         -0.5289    1.8773    0.9072 H         1 <0>         0.0554
     31 H7          0.5123   -0.3556   -0.8948 H         1 <0>         0.0848
     32 H8          0.2319   -0.1594    2.1383 H         1 <0>         0.0486
     33 H9          0.7568   -1.6008    1.2356 H         1 <0>         0.0622
     34 H10         1.7647   -0.1336    1.2338 H         1 <0>         0.0569
     35 H11        -2.0874    0.0333    0.3772 H         1 <0>         0.3930
     36 H12        -5.3042   -4.0461   -3.0129 H         1 <0>         0.2174
     37 H13        -8.6875   -4.5471   -0.6589 H         1 <0>         0.2042
     38 H14        -7.3681   -4.3298    1.4053 H         1 <0>         0.1781
     39 H15        -3.7734   -3.7905    1.4217 H         1 <0>         0.4326
     40 H16        -5.6228   -1.8845    2.5247 H         1 <0>         0.0821
     41 H17        -6.9140   -2.6618    3.4918 H         1 <0>         0.0795
     42 H18        -5.2611   -3.0950    6.6355 H         1 <0>         0.0695
     43 H19        -6.7322   -3.2731    5.6302 H         1 <0>         0.0675
     44 H20        -4.5500   -5.1833    5.9648 H         1 <0>         0.0752
     45 H21        -6.0211   -5.3614    4.9595 H         1 <0>         0.0679
     46 H22        -3.1813   -2.5915    3.3979 H         1 <0>         0.0783
     47 H23        -3.0235   -3.1066    5.1204 H         1 <0>         0.0813
     48 H24        -7.5824   -4.3930   -2.6996 H         1 <0>         0.4458
@<TRIPOS>BOND
     1    1    2 1
     2    1   28 1
     3    1   29 1
     4    1   30 1
     5    2    3 1
     6    2    4 1
     7    2   31 1
     8    3   32 1
     9    3   33 1
    10    3   34 1
    11    4    5 1
    12    4   35 1
    13    5    6 1
    14    5    7 2
    15    7    8 1
    16    8    9 2
    17    8   10 2
    18    8   11 1
    19   11   16 ar
    20   11   12 ar
    21   12   13 ar
    22   12   36 1
    23   13   14 ar
    24   13   48 1
    25   14   15 ar
    26   14   37 1
    27   15   16 ar
    28   15   38 1
    29   16   17 1
    30   17   18 1
    31   17   39 1
    32   18   19 1
    33   18   25 1
    34   18   20 1
    35   20   21 1
    36   20   40 1
    37   20   41 1
    38   21   22 1
    39   21   27 1
    40   21   23 1
    41   23   24 1
    42   23   42 1
    43   23   43 1
    44   24   25 1
    45   24   44 1
    46   24   45 1
    47   25   26 1
    48   25   27 1
    49   27   46 1
    50   27   47 1
@<TRIPOS>MOLECULE
ZINC19815472
   48    50     0     0     0
SMALL
USER_CHARGES

@<TRIPOS>ATOM
      1 C1          0.4702    1.1184    0.2127 C.3       1 <0>        -0.1579
      2 C2          0.3461   -0.4047    0.1365 C.3       1 <0>         0.1514
      3 C3          1.0403   -1.0341    1.3460 C.3       1 <0>        -0.1612
      4 N1         -1.0700   -0.7799    0.1363 N.pl3     1 <0>        -0.7112
      5 C4         -1.4649   -1.9706   -0.4226 C.2       1 <0>         0.6885
      6 O1         -0.5474   -2.7960   -0.9723 O.3       1 <0>        -0.7330
      7 N2         -2.7225   -2.3038   -0.4228 N.2       1 <0>        -1.1025
      8 S1         -3.1986   -3.7396   -1.0967 S.o2      1 <0>         2.6600
      9 O2         -2.9417   -3.6389   -2.4907 O.2       1 <0>        -0.9849
     10 O3         -2.6422   -4.7702   -0.2920 O.2       1 <0>        -0.9877
     11 C5         -4.9478   -3.8464   -0.9134 C.ar      1 <0>        -0.7264
     12 C6         -5.7680   -3.8518   -2.0222 C.ar      1 <0>         0.2585
     13 N3         -7.0791   -3.9320   -1.8935 N.ar      1 <0>        -0.5064
     14 C7         -7.6607   -4.0100   -0.7110 C.ar      1 <0>         0.1684
     15 C8         -6.9117   -4.0106    0.4465 C.ar      1 <0>        -0.2131
     16 C9         -5.5219   -3.9326    0.3545 C.ar      1 <0>         0.3860
     17 N4         -4.7293   -3.9360    1.4984 N.pl3     1 <0>        -0.6482
     18 C10        -5.3526   -4.0273    2.8211 C.3       1 <0>         0.1177
     19 H1         -6.2021   -4.7097    2.7937 H         1 <0>         0.0994
     20 C11        -4.3199   -4.4943    3.8723 C.3       1 <0>        -0.1320
     21 C12        -4.2419   -3.3211    4.8965 C.3       1 <0>        -0.1002
     22 H2         -3.8396   -3.5715    5.8781 H         1 <0>         0.1064
     23 C13        -3.5058   -2.1810    4.1288 C.3       1 <0>        -0.1271
     24 C14        -4.5229   -1.7052    3.0663 C.3       1 <0>        -0.1300
     25 C15        -5.8041   -2.6164    3.3078 C.3       1 <0>        -0.1197
     26 H3         -6.7478   -2.2519    2.9020 H         1 <0>         0.1057
     27 C16        -5.7253   -2.8093    4.8649 C.3       1 <0>        -0.1200
     28 H4          1.5239    1.3975    0.2128 H         1 <0>         0.0670
     29 H5         -0.0243    1.5668   -0.6490 H         1 <0>         0.0582
     30 H6         -0.0004    1.4759    1.1285 H         1 <0>         0.0553
     31 H7          0.8168   -0.7622   -0.7793 H         1 <0>         0.0847
     32 H8          0.5697   -0.6766    2.2618 H         1 <0>         0.0485
     33 H9          0.9519   -2.1191    1.2917 H         1 <0>         0.0620
     34 H10         2.0940   -0.7549    1.3461 H         1 <0>         0.0566
     35 H11        -1.7288   -0.1873    0.5310 H         1 <0>         0.3929
     36 H12        -5.3319   -3.7891   -3.0082 H         1 <0>         0.2170
     37 H13        -8.7371   -4.0738   -0.6495 H         1 <0>         0.2040
     38 H14        -7.3939   -4.0746    1.4107 H         1 <0>         0.1787
     39 H15        -3.7643   -3.8780    1.4200 H         1 <0>         0.4322
     40 H16        -4.6627   -5.4051    4.3632 H         1 <0>         0.0854
     41 H17        -3.3485   -4.6559    3.4050 H         1 <0>         0.0840
     42 H18        -3.2560   -1.3655    4.8076 H         1 <0>         0.0686
     43 H19        -2.6062   -2.5657    3.6482 H         1 <0>         0.0704
     44 H20        -4.7731   -0.6560    3.2228 H         1 <0>         0.0687
     45 H21        -4.1233   -1.8561    2.0635 H         1 <0>         0.0856
     46 H22        -6.4264   -3.5658    5.2175 H         1 <0>         0.0739
     47 H23        -5.8443   -1.8673    5.4001 H         1 <0>         0.0798
     48 H24        -7.6313   -3.9333   -2.6910 H         1 <0>         0.4456
@<TRIPOS>BOND
     1    1    2 1
     2    1   28 1
     3    1   29 1
     4    1   30 1
     5    2    3 1
     6    2    4 1
     7    2   31 1
     8    3   32 1
     9    3   33 1
    10    3   34 1
    11    4    5 1
    12    4   35 1
    13    5    6 1
    14    5    7 2
    15    7    8 1
    16    8    9 2
    17    8   10 2
    18    8   11 1
    19   11   16 ar
    20   11   12 ar
    21   12   13 ar
    22   12   36 1
    23   13   14 ar
    24   13   48 1
    25   14   15 ar
    26   14   37 1
    27   15   16 ar
    28   15   38 1
    29   16   17 1
    30   17   18 1
    31   17   39 1
    32   18   19 1
    33   18   25 1
    34   18   20 1
    35   20   21 1
    36   20   40 1
    37   20   41 1
    38   21   22 1
    39   21   27 1
    40   21   23 1
    41   23   24 1
    42   23   42 1
    43   23   43 1
    44   24   25 1
    45   24   44 1
    46   24   45 1
    47   25   26 1
    48   25   27 1
    49   27   46 1
    50   27   47 1
