@<TRIPOS>MOLECULE
ZINC04040838
   29    31     0     0     0
SMALL
USER_CHARGES

@<TRIPOS>ATOM
      1 C1          1.0383    1.5285   -3.0374 C.ar      1 <0>        -0.0947
      2 C2          2.3594    1.8451   -3.3271 C.ar      1 <0>        -0.0413
      3 C3          3.3968    1.1114   -2.7956 C.ar      1 <0>        -0.0983
      4 C4          3.1174    0.0345   -1.9543 C.ar      1 <0>         0.1067
      5 C5          1.7690   -0.2872   -1.6662 C.ar      1 <0>        -0.1881
      6 C6          0.7360    0.4673   -2.2103 C.ar      1 <0>        -0.0093
      7 C7          1.5352   -1.4428   -0.7836 C.2       1 <0>         0.5287
      8 O1          0.5051   -1.5822   -0.1520 O.2       1 <0>        -0.3447
      9 O2          2.5532   -2.3435   -0.7253 O.3       1 <0>        -0.2635
     10 C8          3.8074   -1.8556   -0.7970 C.cat     1 <0>         0.7015
     11 N1          4.0921   -0.7234   -1.3934 N.pl3     1 <0>        -0.5244
     12 N2          4.8264   -2.5719   -0.2228 N.pl3     1 <0>        -0.6068
     13 C9          4.8686   -3.9634   -0.3625 C.ar      1 <0>         0.1209
     14 C10         3.9652   -4.6067   -1.1983 C.ar      1 <0>        -0.1267
     15 C11         4.0097   -5.9803   -1.3345 C.ar      1 <0>        -0.0737
     16 C12         4.9524   -6.7159   -0.6396 C.ar      1 <0>        -0.0919
     17 C13         5.8538   -6.0794    0.1936 C.ar      1 <0>        -0.0718
     18 C14         5.8185   -4.7044    0.3302 C.ar      1 <0>        -0.0471
     19 Cl1         6.9547   -3.9049    1.3712 Cl        1 <0>        -0.0391
     20 H1          0.2408    2.1215   -3.4601 H         1 <0>         0.1614
     21 H2          2.5762    2.6785   -3.9789 H         1 <0>         0.1621
     22 H3          4.4196    1.3679   -3.0289 H         1 <0>         0.1622
     23 H4         -0.2926    0.2251   -1.9874 H         1 <0>         0.1650
     24 H5          5.5177   -2.1137    0.2802 H         1 <0>         0.4537
     25 H6          3.2282   -4.0333   -1.7409 H         1 <0>         0.1390
     26 H7          3.3072   -6.4808   -1.9844 H         1 <0>         0.1504
     27 H8          4.9843   -7.7900   -0.7476 H         1 <0>         0.1522
     28 H9          6.5884   -6.6567    0.7352 H         1 <0>         0.1563
     29 H10         5.0136   -0.4234   -1.4344 H         1 <0>         0.4612
@<TRIPOS>BOND
     1    1    6 ar
     2    1    2 ar
     3    1   20 1
     4    2    3 ar
     5    2   21 1
     6    3    4 ar
     7    3   22 1
     8    4   11 1
     9    4    5 ar
    10    5    6 ar
    11    5    7 1
    12    6   23 1
    13    7    8 2
    14    7    9 1
    15    9   10 1
    16   10   11 2
    17   10   12 1
    18   11   29 1
    19   12   13 1
    20   12   24 1
    21   13   18 ar
    22   13   14 ar
    23   14   15 ar
    24   14   25 1
    25   15   16 ar
    26   15   26 1
    27   16   17 ar
    28   16   27 1
    29   17   18 ar
    30   17   28 1
    31   18   19 1
@<TRIPOS>MOLECULE
ZINC00410207
   26    28     0     0     0
SMALL
USER_CHARGES
3-(2-iodophenyl)-4-oxa-2-azabicyclo[4.4.0]deca-2,7,9,11-tetraen-5-one
@<TRIPOS>ATOM
      1 C1          0.0282    4.1301    0.0249 C.ar      1 <0>        -0.1304
      2 C2         -1.1806    3.4467    0.0323 C.ar      1 <0>        -0.0668
      3 C3         -1.2131    2.0699    0.0305 C.ar      1 <0>        -0.0969
      4 C4         -0.0163    1.3506    0.0095 C.ar      1 <0>         0.1556
      5 C5          1.2126    2.0500    0.0015 C.ar      1 <0>        -0.2269
      6 C6          1.2228    3.4425    0.0093 C.ar      1 <0>        -0.0331
      7 C7          2.4534    1.2611   -0.0141 C.2       1 <0>         0.5287
      8 O1          3.5441    1.7994   -0.0216 O.2       1 <0>        -0.4356
      9 O2          2.3353   -0.0854   -0.0202 O.3       1 <0>        -0.3043
     10 C8          1.1256   -0.6706   -0.0123 C.2       1 <0>         0.3971
     11 N1          0.0021   -0.0041    0.0020 N.2       1 <0>        -0.4880
     12 C9          1.0629   -2.1460   -0.0196 C.ar      1 <0>        -0.0426
     13 C10         2.2396   -2.8981   -0.0348 C.ar      1 <0>        -0.0671
     14 C11         2.1737   -4.2756   -0.0417 C.ar      1 <0>        -0.1100
     15 C12         0.9454   -4.9133   -0.0334 C.ar      1 <0>        -0.0808
     16 C13        -0.2243   -4.1753   -0.0183 C.ar      1 <0>        -0.0920
     17 C14        -0.1735   -2.7958   -0.0055 C.ar      1 <0>        -0.0571
     18 I1         -1.9462   -1.6798    0.0262 I         1 <0>         0.0205
     19 H1          0.0324    5.2101    0.0310 H         1 <0>         0.1393
     20 H2         -2.1070    4.0018    0.0441 H         1 <0>         0.1400
     21 H3         -2.1592    1.5492    0.0407 H         1 <0>         0.1417
     22 H4          2.1597    3.9797    0.0036 H         1 <0>         0.1425
     23 H5          3.1989   -2.4021   -0.0417 H         1 <0>         0.1440
     24 H6          3.0830   -4.8582   -0.0531 H         1 <0>         0.1405
     25 H7          0.9000   -5.9924   -0.0384 H         1 <0>         0.1401
     26 H8         -1.1795   -4.6793   -0.0123 H         1 <0>         0.1414
@<TRIPOS>BOND
     1    1    6 ar
     2    1    2 ar
     3    1   19 1
     4    2    3 ar
     5    2   20 1
     6    3    4 ar
     7    3   21 1
     8    4   11 1
     9    4    5 ar
    10    5    6 ar
    11    5    7 1
    12    6   22 1
    13    7    8 2
    14    7    9 1
    15    9   10 1
    16   10   11 2
    17   10   12 1
    18   12   17 ar
    19   12   13 ar
    20   13   14 ar
    21   13   23 1
    22   14   15 ar
    23   14   24 1
    24   15   16 ar
    25   15   25 1
    26   16   17 ar
    27   16   26 1
    28   17   18 1
@<TRIPOS>MOLECULE
ZINC03778392
   49    52     0     0     0
SMALL
USER_CHARGES
(6-amidino-2-naphthyl) 4-(4,5-dihydro-1H-imidazol-2-ylamino)benzoate
@<TRIPOS>ATOM
      1 C1          6.7793    2.0604   -3.5073 C.ar      1 <0>        -0.0034
      2 C2          5.8742    1.0705   -3.8148 C.ar      1 <0>        -0.1339
      3 C3          4.5223    1.3764   -3.9418 C.ar      1 <0>         0.1718
      4 C4          4.0818    2.6848   -3.7646 C.ar      1 <0>        -0.2022
      5 C5          4.9807    3.6788   -3.4517 C.ar      1 <0>        -0.0129
      6 C6          6.3396    3.3750   -3.3228 C.ar      1 <0>        -0.1277
      7 C7          7.3062    4.4380   -2.9929 C.2       1 <0>         0.5084
      8 O1          8.4867    4.1723   -2.8808 O.2       1 <0>        -0.4673
      9 O2          6.8806    5.7044   -2.8154 O.3       1 <0>        -0.2880
     10 C8          7.8330    6.6536   -2.6208 C.ar      1 <0>         0.1249
     11 C9          8.7272    6.9579   -3.6527 C.ar      1 <0>        -0.1157
     12 C10         9.6870    7.9062   -3.4875 C.ar      1 <0>        -0.0687
     13 C11         9.7953    8.5880   -2.2616 C.ar      1 <0>        -0.0652
     14 C12        10.7803    9.5671   -2.0639 C.ar      1 <0>        -0.0147
     15 C13        10.8590   10.2182   -0.8453 C.ar      1 <0>        -0.1474
     16 C14         9.9619    9.9055    0.1908 C.ar      1 <0>        -0.0859
     17 C15         9.0024    8.9609    0.0189 C.ar      1 <0>        -0.0780
     18 C16         8.8958    8.2811   -1.2087 C.ar      1 <0>        -0.0006
     19 C17         7.9109    7.3008   -1.4087 C.ar      1 <0>        -0.1097
     20 C18        11.8957   11.2522   -0.6314 C.cat     1 <0>         0.5982
     21 N1         11.9791   11.9041    0.5800 N.pl3     1 <0>        -0.7768
     22 N2          3.6088    0.3718   -4.2528 N.pl3     1 <0>        -0.6321
     23 C19         2.2925    0.4944   -3.8666 C.cat     1 <0>         0.7162
     24 C20         0.4249    1.3158   -2.8800 C.3       1 <0>         0.0664
     25 C21         0.0419    0.0445   -3.6635 C.3       1 <0>         0.0824
     26 N3          1.3220   -0.3920   -4.2458 N.pl3     1 <0>        -0.6815
     27 H1          7.8281    1.8222   -3.4082 H         1 <0>         0.1607
     28 H2          6.2131    0.0551   -3.9574 H         1 <0>         0.1561
     29 H3          3.0327    2.9194   -3.8682 H         1 <0>         0.1479
     30 H4          4.6377    4.6929   -3.3100 H         1 <0>         0.1591
     31 H5          8.6515    6.4350   -4.5945 H         1 <0>         0.1417
     32 H6         10.3676    8.1332   -4.2947 H         1 <0>         0.1498
     33 H7         11.4717    9.8113   -2.8569 H         1 <0>         0.1444
     34 H8         10.0376   10.4230    1.1356 H         1 <0>         0.1399
     35 H9          8.3201    8.7317    0.8240 H         1 <0>         0.1525
     36 H10         7.2186    7.0565   -0.6166 H         1 <0>         0.1524
     37 H11        13.4438   12.2095   -1.5444 H         1 <0>         0.4467
     38 H12        11.3583   11.6850    1.2924 H         1 <0>         0.4437
     39 H13        12.6586   12.5819    0.7203 H         1 <0>         0.4329
     40 H14         3.8998   -0.4140   -4.7413 H         1 <0>         0.4478
     41 H15         0.2217    1.1897   -1.8165 H         1 <0>         0.1269
     42 H16        -0.1123    2.1799   -3.2707 H         1 <0>         0.1273
     43 H17        -0.6784    0.2763   -4.4480 H         1 <0>         0.1239
     44 H18        -0.3531   -0.7157   -2.9897 H         1 <0>         0.1231
     45 H19         1.4538   -1.1726   -4.8063 H         1 <0>         0.4568
     46 N4         12.7126   11.5050   -1.6430 N.pl3     1 <0>        -0.7603
     47 H20        12.6098   10.9919   -2.5264 H         1 <0>         0.4588
     48 N5          1.8710    1.4602   -3.1139 N.pl3     1 <0>        -0.6593
     49 H21         2.4576    2.2137   -2.7367 H         1 <0>         0.4710
@<TRIPOS>BOND
     1    1    6 ar
     2    1    2 ar
     3    1   27 1
     4    2    3 ar
     5    2   28 1
     6    3    4 ar
     7    3   22 1
     8    4    5 ar
     9    4   29 1
    10    5    6 ar
    11    5   30 1
    12    6    7 1
    13    7    8 2
    14    7    9 1
    15    9   10 1
    16   10   19 ar
    17   10   11 ar
    18   11   12 ar
    19   11   31 1
    20   12   13 ar
    21   12   32 1
    22   13   18 ar
    23   13   14 ar
    24   14   15 ar
    25   14   33 1
    26   15   16 ar
    27   15   20 1
    28   16   17 ar
    29   16   34 1
    30   17   18 ar
    31   17   35 1
    32   18   19 ar
    33   19   36 1
    34   20   21 1
    35   20   46 2
    36   21   38 1
    37   21   39 1
    38   22   23 1
    39   22   40 1
    40   23   26 1
    41   23   48 2
    42   24   25 1
    43   24   41 1
    44   24   42 1
    45   24   48 1
    46   25   26 1
    47   25   43 1
    48   25   44 1
    49   26   45 1
    50   37   46 1
    51   46   47 1
    52   48   49 1
@<TRIPOS>MOLECULE
ZINC00070198
   26    28     0     0     0
SMALL
USER_CHARGES

@<TRIPOS>ATOM
      1 C1         -0.0166    1.3754    0.0096 C.ar      1 <0>        -0.1303
      2 C2          1.1690    2.0984    0.0022 C.ar      1 <0>        -0.0687
      3 C3          2.3891    1.4586   -0.0099 C.ar      1 <0>        -0.0957
      4 C4          2.4346    0.0644   -0.0154 C.ar      1 <0>         0.1439
      5 C5          1.2224   -0.6678   -0.0133 C.ar      1 <0>        -0.2267
      6 C6          0.0021   -0.0041    0.0020 C.ar      1 <0>        -0.0338
      7 C7          1.3330   -2.1373   -0.0338 C.2       1 <0>         0.5315
      8 O1          0.4391   -2.8635    0.3571 O.2       1 <0>        -0.4227
      9 O2          2.5060   -2.6235   -0.5214 O.3       1 <0>        -0.3129
     10 C8          3.6221   -1.9147   -0.2523 C.2       1 <0>         0.3913
     11 N1          3.6012   -0.6255   -0.0203 N.2       1 <0>        -0.4758
     12 C9          4.9187   -2.6203   -0.2176 C.ar      1 <0>        -0.0441
     13 C10         4.9771   -3.9935   -0.4657 C.ar      1 <0>        -0.0651
     14 C11         6.1914   -4.6462   -0.4316 C.ar      1 <0>        -0.1126
     15 C12         7.3511   -3.9443   -0.1519 C.ar      1 <0>        -0.0794
     16 C13         7.3017   -2.5844    0.0953 C.ar      1 <0>        -0.1005
     17 C14         6.0937   -1.9163    0.0580 C.ar      1 <0>        -0.0386
     18 Br1         6.0288   -0.0555    0.3879 Br        1 <0>         0.0063
     19 H1         -0.9618    1.8977    0.0260 H         1 <0>         0.1391
     20 H2          1.1341    3.1779    0.0055 H         1 <0>         0.1395
     21 H3          3.3040    2.0324   -0.0154 H         1 <0>         0.1424
     22 H4         -0.9225   -0.5622    0.0080 H         1 <0>         0.1412
     23 H5          4.0732   -4.5430   -0.6834 H         1 <0>         0.1452
     24 H6          6.2376   -5.7081   -0.6233 H         1 <0>         0.1411
     25 H7          8.2991   -4.4610   -0.1263 H         1 <0>         0.1410
     26 H8          8.2104   -2.0430    0.3133 H         1 <0>         0.1444
@<TRIPOS>BOND
     1    1    6 ar
     2    1    2 ar
     3    1   19 1
     4    2    3 ar
     5    2   20 1
     6    3    4 ar
     7    3   21 1
     8    4   11 1
     9    4    5 ar
    10    5    6 ar
    11    5    7 1
    12    6   22 1
    13    7    8 2
    14    7    9 1
    15    9   10 1
    16   10   11 2
    17   10   12 1
    18   12   17 ar
    19   12   13 ar
    20   13   14 ar
    21   13   23 1
    22   14   15 ar
    23   14   24 1
    24   15   16 ar
    25   15   25 1
    26   16   17 ar
    27   16   26 1
    28   17   18 1
@<TRIPOS>MOLECULE
ZINC05024318
   26    28     0     0     0
SMALL
USER_CHARGES
4-chloro-9-(2-iodophenyl)-8-oxa-10-azabicyclo[4.4.0]deca-2,4,9,11-tetraen-7-one
@<TRIPOS>ATOM
      1 C1         -0.1465   -4.1949   -0.0195 C.ar      1 <0>        -0.1101
      2 C2          1.0314   -4.9215   -0.0356 C.ar      1 <0>        -0.0785
      3 C3          2.2524   -4.2718   -0.0438 C.ar      1 <0>        -0.0922
      4 C4          2.3037   -2.8923   -0.0413 C.ar      1 <0>        -0.0552
      5 C5          1.1187   -2.1530   -0.0202 C.ar      1 <0>        -0.0457
      6 C6         -0.1103   -2.8163   -0.0120 C.ar      1 <0>        -0.0651
      7 C7          1.1652   -0.6770   -0.0127 C.2       1 <0>         0.4055
      8 N1          2.3348   -0.0953   -0.0203 N.2       1 <0>        -0.4903
      9 C8          2.4533    1.2545   -0.0142 C.ar      1 <0>         0.1637
     10 C9          3.7004    1.8828   -0.0227 C.ar      1 <0>        -0.0844
     11 C10         3.7709    3.2580   -0.0173 C.ar      1 <0>        -0.0568
     12 C11         2.6154    4.0300   -0.0022 C.ar      1 <0>        -0.0522
     13 C12         1.3722    3.4321    0.0069 C.ar      1 <0>        -0.0223
     14 C13         1.2795    2.0427    0.0008 C.ar      1 <0>        -0.2176
     15 C14        -0.0163    1.3474    0.0095 C.2       1 <0>         0.5320
     16 O1         -1.0642    1.9648    0.0178 O.2       1 <0>        -0.4284
     17 O2          0.0021   -0.0041    0.0020 O.3       1 <0>        -0.3009
     18 Cl1         2.7375    5.7617    0.0048 Cl        1 <0>        -0.0478
     19 I1          4.1541   -1.9101   -0.0617 I         1 <0>         0.0210
     20 H1         -1.0964   -4.7088   -0.0132 H         1 <0>         0.1413
     21 H2          0.9969   -6.0009   -0.0421 H         1 <0>         0.1408
     22 H3          3.1677   -4.8450   -0.0559 H         1 <0>         0.1421
     23 H4         -1.0304   -2.2508    0.0005 H         1 <0>         0.1447
     24 H5          4.6052    1.2931   -0.0338 H         1 <0>         0.1517
     25 H6          4.7360    3.7426   -0.0243 H         1 <0>         0.1512
     26 H7          0.4776    4.0370    0.0191 H         1 <0>         0.1535
@<TRIPOS>BOND
     1    1    6 ar
     2    1    2 ar
     3    1   20 1
     4    2    3 ar
     5    2   21 1
     6    3    4 ar
     7    3   22 1
     8    4    5 ar
     9    4   19 1
    10    5    6 ar
    11    5    7 1
    12    6   23 1
    13    7   17 1
    14    7    8 2
    15    8    9 1
    16    9   14 ar
    17    9   10 ar
    18   10   11 ar
    19   10   24 1
    20   11   12 ar
    21   11   25 1
    22   12   13 ar
    23   12   18 1
    24   13   14 ar
    25   13   26 1
    26   14   15 1
    27   15   16 2
    28   15   17 1
@<TRIPOS>MOLECULE
ZINC27736734
   29    31     0     0     0
SMALL
USER_CHARGES
2-(2-iodophenyl)-6-methyl-3,1-benzoxazin-4-one
@<TRIPOS>ATOM
      1 C1         -2.5067    0.9816    0.0192 C.3       1 <0>        -0.1194
      2 C2         -1.2126    1.7539    0.0173 C.ar      1 <0>        -0.0945
      3 C3         -1.2400    3.1423    0.0298 C.ar      1 <0>        -0.0684
      4 C4         -0.0716    3.8713    0.0225 C.ar      1 <0>        -0.0910
      5 C5          1.1569    3.2074    0.0077 C.ar      1 <0>         0.1487
      6 C6          1.1807    1.7936    0.0004 C.ar      1 <0>        -0.2204
      7 C7         -0.0126    1.0758    0.0080 C.ar      1 <0>        -0.0358
      8 C8          2.4916    1.1275   -0.0147 C.2       1 <0>         0.5289
      9 O1          2.5837   -0.0853   -0.0212 O.2       1 <0>        -0.4358
     10 O2          3.5902    1.9149   -0.0206 O.3       1 <0>        -0.3041
     11 C9          3.4778    3.2540   -0.0128 C.2       1 <0>         0.3937
     12 N1          2.3321    3.8815    0.0006 N.2       1 <0>        -0.4857
     13 C10         4.7157    4.0592   -0.0193 C.ar      1 <0>        -0.0414
     14 C11         5.9622    3.4296   -0.0332 C.ar      1 <0>        -0.0677
     15 C12         7.1142    4.1877   -0.0392 C.ar      1 <0>        -0.1099
     16 C13         7.0375    5.5696   -0.0319 C.ar      1 <0>        -0.0815
     17 C14         5.8067    6.2005   -0.0182 C.ar      1 <0>        -0.0919
     18 C15         4.6452    5.4543   -0.0174 C.ar      1 <0>        -0.0576
     19 I1          2.7818    6.4117   -0.0053 I         1 <0>         0.0202
     20 H1         -3.3530    1.6843    0.0270 H         1 <0>         0.0722
     21 H2         -2.5516    0.3436    0.9141 H         1 <0>         0.0759
     22 H3         -2.5600    0.3533   -0.8821 H         1 <0>         0.0759
     23 H4         -2.1894    3.6569    0.0412 H         1 <0>         0.1396
     24 H5         -0.1053    4.9507    0.0279 H         1 <0>         0.1422
     25 H6          0.0021   -0.0041    0.0020 H         1 <0>         0.1422
     26 H7          6.0239    2.3513   -0.0389 H         1 <0>         0.1438
     27 H8          8.0787    3.7018   -0.0499 H         1 <0>         0.1404
     28 H9          7.9430    6.1582   -0.0374 H         1 <0>         0.1399
     29 H10         5.7541    7.2792   -0.0122 H         1 <0>         0.1413
@<TRIPOS>BOND
     1    1    2 1
     2    1   20 1
     3    1   21 1
     4    1   22 1
     5    2    7 ar
     6    2    3 ar
     7    3    4 ar
     8    3   23 1
     9    4    5 ar
    10    4   24 1
    11    5   12 1
    12    5    6 ar
    13    6    7 ar
    14    6    8 1
    15    7   25 1
    16    8    9 2
    17    8   10 1
    18   10   11 1
    19   11   12 2
    20   11   13 1
    21   13   18 ar
    22   13   14 ar
    23   14   15 ar
    24   14   26 1
    25   15   16 ar
    26   15   27 1
    27   16   17 ar
    28   16   28 1
    29   17   18 ar
    30   17   29 1
    31   18   19 1
@<TRIPOS>MOLECULE
ZINC00001763
   45    47     0     0     0
SMALL
USER_CHARGES

@<TRIPOS>ATOM
      1 C1          0.4307    0.2502    2.0676 C.ar      1 <0>        -0.0153
      2 C2          1.6219    0.9331    2.1617 C.ar      1 <0>        -0.1193
      3 C3          2.6604    0.6489    1.2801 C.ar      1 <0>         0.1435
      4 C4          2.4990   -0.3267    0.3008 C.ar      1 <0>        -0.1724
      5 C5          1.3106   -1.0136    0.2008 C.ar      1 <0>        -0.0246
      6 C6          0.2649   -0.7307    1.0849 C.ar      1 <0>        -0.1135
      7 C7         -1.0096   -1.4644    0.9809 C.2       1 <0>         0.5087
      8 O1         -1.9176   -1.2170    1.7498 O.2       1 <0>        -0.4667
      9 O2         -1.1677   -2.4095    0.0332 O.3       1 <0>        -0.2923
     10 C8         -2.3923   -2.9828   -0.0978 C.ar      1 <0>         0.1259
     11 C9         -3.4217   -2.2783   -0.7313 C.ar      1 <0>        -0.1152
     12 C10        -4.6566   -2.8272   -0.8764 C.ar      1 <0>        -0.0682
     13 C11        -4.9108   -4.1213   -0.3857 C.ar      1 <0>        -0.0654
     14 C12        -6.1763   -4.7102   -0.5232 C.ar      1 <0>        -0.0099
     15 C13        -6.3918   -5.9856   -0.0291 C.ar      1 <0>        -0.1471
     16 C14        -5.3542   -6.6900    0.6072 C.ar      1 <0>        -0.0871
     17 C15        -4.1234   -6.1364    0.7499 C.ar      1 <0>        -0.0773
     18 C16        -3.8721   -4.8419    0.2575 C.ar      1 <0>        -0.0011
     19 C17        -2.6050   -4.2525    0.3893 C.ar      1 <0>        -0.1091
     20 C18        -7.7236   -6.6117   -0.1711 C.cat     1 <0>         0.5988
     21 N1         -7.9368   -7.8384    0.3023 N.pl3     1 <0>        -0.7582
     22 N2         -8.7104   -5.9491   -0.7725 N.pl3     1 <0>        -0.7622
     23 N3          3.8650    1.3431    1.3778 N.pl3     1 <0>        -0.6394
     24 C19         5.0543    0.6734    1.2516 C.cat     1 <0>         0.7482
     25 N4          6.2001    1.3513    1.2200 N.pl3     1 <0>        -0.7807
     26 N5          5.0638   -0.6552    1.1604 N.pl3     1 <0>        -0.7908
     27 H1         -0.3734    0.4685    2.7547 H         1 <0>         0.1604
     28 H2          1.7507    1.6909    2.9204 H         1 <0>         0.1556
     29 H3          3.3071   -0.5447   -0.3817 H         1 <0>         0.1475
     30 H4          1.1857   -1.7701   -0.5598 H         1 <0>         0.1596
     31 H5         -3.2326   -1.2847   -1.1100 H         1 <0>         0.1435
     32 H6         -5.4416   -2.2709   -1.3671 H         1 <0>         0.1506
     33 H7         -6.9764   -4.1730   -1.0105 H         1 <0>         0.1463
     34 H8         -5.5392   -7.6838    0.9873 H         1 <0>         0.1398
     35 H9         -3.3365   -6.6892    1.2415 H         1 <0>         0.1528
     36 H10        -1.8032   -4.7903    0.8733 H         1 <0>         0.1514
     37 H11        -7.2183   -8.3209    0.7403 H         1 <0>         0.4450
     38 H12        -8.5551   -5.0558   -1.1173 H         1 <0>         0.4433
     39 H13        -9.5841   -6.3598   -0.8657 H         1 <0>         0.4357
     40 H14         3.8617    2.3003    1.5351 H         1 <0>         0.4483
     41 H15         6.1931    2.3190    1.2864 H         1 <0>         0.4449
     42 H16         4.2274   -1.1445    1.1178 H         1 <0>         0.4412
     43 H17         5.9073   -1.1336    1.1367 H         1 <0>         0.4432
     44 H18        -8.8106   -8.2492    0.2091 H         1 <0>         0.4352
     45 H19         7.0417    0.8773    1.1307 H         1 <0>         0.4465
@<TRIPOS>BOND
     1    1    6 ar
     2    1    2 ar
     3    1   27 1
     4    2    3 ar
     5    2   28 1
     6    3    4 ar
     7    3   23 1
     8    4    5 ar
     9    4   29 1
    10    5    6 ar
    11    5   30 1
    12    6    7 1
    13    7    8 2
    14    7    9 1
    15    9   10 1
    16   10   19 ar
    17   10   11 ar
    18   11   12 ar
    19   11   31 1
    20   12   13 ar
    21   12   32 1
    22   13   18 ar
    23   13   14 ar
    24   14   15 ar
    25   14   33 1
    26   15   16 ar
    27   15   20 1
    28   16   17 ar
    29   16   34 1
    30   17   18 ar
    31   17   35 1
    32   18   19 ar
    33   19   36 1
    34   20   21 2
    35   20   22 1
    36   21   37 1
    37   21   44 1
    38   22   38 1
    39   22   39 1
    40   23   24 1
    41   23   40 1
    42   24   25 2
    43   24   26 1
    44   25   41 1
    45   25   45 1
    46   26   42 1
    47   26   43 1
