@<TRIPOS>MOLECULE
ZINC26671979
   51    54     0     0     0
SMALL
USER_CHARGES

@<TRIPOS>ATOM
      1 C1         -0.0184    1.5028    0.0103 C.3       1 <0>        -0.1271
      2 C2          0.0021   -0.0041    0.0020 C.ar      1 <0>        -0.0543
      3 C3          0.0057   -0.6887   -1.1989 C.ar      1 <0>        -0.1216
      4 C4          0.0245   -2.0709   -1.2065 C.ar      1 <0>        -0.0875
      5 C5          0.0400   -2.7685   -0.0132 C.ar      1 <0>        -0.1516
      6 C6          0.0373   -2.0839    1.1877 C.ar      1 <0>        -0.0875
      7 C7          0.0229   -0.7016    1.1953 C.ar      1 <0>        -0.1216
      8 C8          0.0595   -4.2753   -0.0215 C.3       1 <0>         0.1398
      9 N1          1.4468   -4.7457   -0.0317 N.pl3     1 <0>        -0.5765
     10 C9          1.7062   -6.0477   -0.0403 C.2       1 <0>         0.5435
     11 N2          0.7964   -7.0214   -0.0463 N.2       1 <0>        -0.6041
     12 C10         1.3670   -8.2257   -0.0542 C.cat     1 <0>         0.5435
     13 N3          0.7240   -9.3871   -0.0620 N.pl3     1 <0>        -0.5766
     14 C11        -0.7408   -9.4134   -0.0616 C.3       1 <0>         0.1398
     15 C12        -1.2175  -10.8430   -0.0712 C.ar      1 <0>        -0.1515
     16 C13        -1.4312  -11.4923   -1.2728 C.ar      1 <0>        -0.0877
     17 C14        -1.8685  -12.8036   -1.2816 C.ar      1 <0>        -0.1215
     18 C15        -2.0917  -13.4658   -0.0889 C.ar      1 <0>        -0.0544
     19 C16        -1.8772  -12.8168    1.1127 C.ar      1 <0>        -0.1215
     20 C17        -1.4358  -11.5068    1.1215 C.ar      1 <0>        -0.0876
     21 C18        -2.5694  -14.8950   -0.0985 C.3       1 <0>        -0.1271
     22 C19         2.8411   -8.0524   -0.0536 C.ar      1 <0>        -0.1457
     23 C20         3.0577   -6.6610   -0.0511 C.ar      1 <0>        -0.1457
     24 C21         4.3463   -6.1646   -0.0556 C.ar      1 <0>        -0.0349
     25 C22         5.4232   -7.0438   -0.0663 C.ar      1 <0>        -0.0783
     26 C23         5.2110   -8.4067   -0.0725 C.ar      1 <0>        -0.0783
     27 C24         3.9178   -8.9170   -0.0591 C.ar      1 <0>        -0.0349
     28 H1          1.0042    1.8801    0.0026 H         1 <0>         0.0789
     29 H2         -0.5455    1.8639   -0.8728 H         1 <0>         0.0735
     30 H3         -0.5286    1.8543    0.9071 H         1 <0>         0.0735
     31 H4         -0.0064   -0.1436   -2.1312 H         1 <0>         0.1313
     32 H5          0.0266   -2.6057   -2.1448 H         1 <0>         0.1271
     33 H6          0.0491   -2.6289    2.1200 H         1 <0>         0.1270
     34 H7          0.0245   -0.1667    2.1335 H         1 <0>         0.1313
     35 H8         -0.4447   -4.6501    0.8693 H         1 <0>         0.1108
     36 H9         -0.4546   -4.6404   -0.9106 H         1 <0>         0.1109
     37 H10         2.1759   -4.1059   -0.0323 H         1 <0>         0.4363
     38 H11        -1.1130   -8.9123    0.8319 H         1 <0>         0.1109
     39 H12        -1.1136   -8.9001   -0.9480 H         1 <0>         0.1109
     40 H13        -1.2568  -10.9749   -2.2046 H         1 <0>         0.1270
     41 H14        -2.0361  -13.3106   -2.2203 H         1 <0>         0.1313
     42 H15        -2.0520  -13.3340    2.0445 H         1 <0>         0.1313
     43 H16        -1.2646  -11.0010    2.0602 H         1 <0>         0.1270
     44 H17        -1.7099  -15.5654   -0.0993 H         1 <0>         0.0790
     45 H18        -3.1750  -15.0817    0.7884 H         1 <0>         0.0735
     46 H19        -3.1689  -15.0718   -0.9915 H         1 <0>         0.0735
     47 H20         4.5168   -5.0982   -0.0511 H         1 <0>         0.1487
     48 H21         6.4317   -6.6575   -0.0702 H         1 <0>         0.1561
     49 H22         6.0543   -9.0813   -0.0813 H         1 <0>         0.1561
     50 H23         3.7560   -9.9848   -0.0656 H         1 <0>         0.1487
     51 H24         1.2240  -10.2183   -0.0678 H         1 <0>         0.4363
@<TRIPOS>BOND
     1    1    2 1
     2    1   28 1
     3    1   29 1
     4    1   30 1
     5    2    7 ar
     6    2    3 ar
     7    3    4 ar
     8    3   31 1
     9    4    5 ar
    10    4   32 1
    11    5    6 ar
    12    5    8 1
    13    6    7 ar
    14    6   33 1
    15    7   34 1
    16    8    9 1
    17    8   35 1
    18    8   36 1
    19    9   10 1
    20    9   37 1
    21   10   23 1
    22   10   11 2
    23   11   12 1
    24   12   13 2
    25   12   22 1
    26   13   14 1
    27   13   51 1
    28   14   15 1
    29   14   38 1
    30   14   39 1
    31   15   20 ar
    32   15   16 ar
    33   16   17 ar
    34   16   40 1
    35   17   18 ar
    36   17   41 1
    37   18   19 ar
    38   18   21 1
    39   19   20 ar
    40   19   42 1
    41   20   43 1
    42   21   44 1
    43   21   45 1
    44   21   46 1
    45   22   27 ar
    46   22   23 ar
    47   23   24 ar
    48   24   25 ar
    49   24   47 1
    50   25   26 ar
    51   25   48 1
    52   26   27 ar
    53   26   49 1
    54   27   50 1
@<TRIPOS>MOLECULE
ZINC26671979
   52    55     0     0     0
SMALL
USER_CHARGES

@<TRIPOS>ATOM
      1 C1         -0.0184    1.5028    0.0103 C.3       1 <0>        -0.1359
      2 C2          0.0021   -0.0041    0.0020 C.ar      1 <0>        -0.0309
      3 C3          0.0057   -0.6887   -1.1989 C.ar      1 <0>        -0.1193
      4 C4          0.0245   -2.0709   -1.2065 C.ar      1 <0>        -0.0802
      5 C5          0.0400   -2.7685   -0.0132 C.ar      1 <0>        -0.1776
      6 C6          0.0373   -2.0839    1.1877 C.ar      1 <0>        -0.0801
      7 C7          0.0229   -0.7016    1.1953 C.ar      1 <0>        -0.1193
      8 C8          0.0595   -4.2753   -0.0215 C.3       1 <0>         0.0964
      9 N1          1.4468   -4.7457   -0.0317 N.pl3     1 <0>        -0.5170
     10 C9          1.7011   -6.0222   -0.0401 C.cat     1 <0>         0.5769
     11 N2          0.7608   -7.0334   -0.0464 N.pl3     1 <0>        -0.6275
     12 C10         1.3947   -8.2602   -0.0545 C.cat     1 <0>         0.5769
     13 N3          0.8066   -9.4213   -0.0618 N.pl3     1 <0>        -0.5171
     14 C11        -0.6562   -9.5015   -0.0614 C.3       1 <0>         0.0964
     15 C12        -1.0800  -10.9476   -0.0707 C.ar      1 <0>        -0.1774
     16 C13        -1.2697  -11.6045   -1.2722 C.ar      1 <0>        -0.0804
     17 C14        -1.6585  -12.9311   -1.2808 C.ar      1 <0>        -0.1191
     18 C15        -1.8571  -13.6008   -0.0879 C.ar      1 <0>        -0.0310
     19 C16        -1.6665  -12.9442    1.1135 C.ar      1 <0>        -0.1191
     20 C17        -1.2736  -11.6189    1.1221 C.ar      1 <0>        -0.0802
     21 C18        -2.2819  -15.0467   -0.0973 C.3       1 <0>        -0.1359
     22 C19         2.8547   -8.0302   -0.0534 C.ar      1 <0>        -0.1295
     23 C20         3.0456   -6.6361   -0.0509 C.ar      1 <0>        -0.1294
     24 C21         4.3336   -6.1168   -0.0548 C.ar      1 <0>        -0.0053
     25 C22         5.4197   -6.9728   -0.0651 C.ar      1 <0>        -0.0493
     26 C23         5.2320   -8.3437   -0.0715 C.ar      1 <0>        -0.0494
     27 C24         3.9559   -8.8765   -0.0588 C.ar      1 <0>        -0.0052
     28 H1          1.0042    1.8801    0.0026 H         1 <0>         0.0865
     29 H2         -0.5455    1.8639   -0.8728 H         1 <0>         0.0795
     30 H3         -0.5286    1.8543    0.9071 H         1 <0>         0.0795
     31 H4         -0.0064   -0.1436   -2.1312 H         1 <0>         0.1391
     32 H5          0.0266   -2.6057   -2.1448 H         1 <0>         0.1298
     33 H6          0.0491   -2.6289    2.1200 H         1 <0>         0.1298
     34 H7          0.0245   -0.1667    2.1335 H         1 <0>         0.1391
     35 H8         -0.4447   -4.6501    0.8693 H         1 <0>         0.1319
     36 H9         -0.4546   -4.6404   -0.9106 H         1 <0>         0.1317
     37 H10         2.1759   -4.1059   -0.0323 H         1 <0>         0.4629
     38 H11        -1.0465   -9.0143    0.8321 H         1 <0>         0.1318
     39 H12        -1.0477   -9.0024   -0.9478 H         1 <0>         0.1318
     40 H13        -1.1145  -11.0813   -2.2041 H         1 <0>         0.1298
     41 H14        -1.8074  -13.4441   -2.2194 H         1 <0>         0.1391
     42 H15        -1.8221  -13.4674    2.0454 H         1 <0>         0.1391
     43 H16        -1.1211  -11.1069    2.0607 H         1 <0>         0.1298
     44 H17        -1.3983  -15.6850   -0.0980 H         1 <0>         0.0865
     45 H18        -2.8801  -15.2554    0.7897 H         1 <0>         0.0795
     46 H19        -2.8744  -15.2455   -0.9903 H         1 <0>         0.0795
     47 H20         4.4866   -5.0477   -0.0502 H         1 <0>         0.1665
     48 H21         6.4212   -6.5685   -0.0685 H         1 <0>         0.1763
     49 H22         6.0880   -9.0021   -0.0798 H         1 <0>         0.1763
     50 H23         3.8160   -9.9474   -0.0657 H         1 <0>         0.1666
     51 H24         1.3368  -10.2335   -0.0676 H         1 <0>         0.4629
     52 H25        -0.2002   -6.9018   -0.0447 H         1 <0>         0.4642
@<TRIPOS>BOND
     1    1    2 1
     2    1   28 1
     3    1   29 1
     4    1   30 1
     5    2    7 ar
     6    2    3 ar
     7    3    4 ar
     8    3   31 1
     9    4    5 ar
    10    4   32 1
    11    5    6 ar
    12    5    8 1
    13    6    7 ar
    14    6   33 1
    15    7   34 1
    16    8    9 1
    17    8   35 1
    18    8   36 1
    19    9   10 2
    20    9   37 1
    21   10   23 1
    22   10   11 1
    23   11   12 1
    24   11   52 1
    25   12   13 2
    26   12   22 1
    27   13   14 1
    28   13   51 1
    29   14   15 1
    30   14   38 1
    31   14   39 1
    32   15   20 ar
    33   15   16 ar
    34   16   17 ar
    35   16   40 1
    36   17   18 ar
    37   17   41 1
    38   18   19 ar
    39   18   21 1
    40   19   20 ar
    41   19   42 1
    42   20   43 1
    43   21   44 1
    44   21   45 1
    45   21   46 1
    46   22   27 ar
    47   22   23 ar
    48   23   24 ar
    49   24   25 ar
    50   24   47 1
    51   25   26 ar
    52   25   48 1
    53   26   27 ar
    54   26   49 1
    55   27   50 1
@<TRIPOS>MOLECULE
ZINC26671979
   52    55     0     0     0
SMALL
USER_CHARGES

@<TRIPOS>ATOM
      1 C1         -0.0184    1.5028    0.0103 C.3       1 <0>        -0.1358
      2 C2          0.0021   -0.0041    0.0020 C.ar      1 <0>        -0.0309
      3 C3          0.0057   -0.6887   -1.1989 C.ar      1 <0>        -0.1192
      4 C4          0.0245   -2.0709   -1.2065 C.ar      1 <0>        -0.0802
      5 C5          0.0400   -2.7685   -0.0132 C.ar      1 <0>        -0.1760
      6 C6          0.0373   -2.0839    1.1877 C.ar      1 <0>        -0.0800
      7 C7          0.0229   -0.7016    1.1953 C.ar      1 <0>        -0.1192
      8 C8          0.0595   -4.2753   -0.0215 C.3       1 <0>         0.0981
      9 N1          1.4468   -4.7457   -0.0317 N.pl3     1 <0>        -0.5297
     10 C9          1.7062   -6.0477   -0.0403 C.cat     1 <0>         0.5736
     11 N2          0.7964   -7.0214   -0.0463 N.pl3     1 <0>        -0.5996
     12 C10         1.3670   -8.2257   -0.0542 C.2       1 <0>         0.5791
     13 N3          0.7240   -9.3871   -0.0620 N.pl3     1 <0>        -0.5300
     14 C11        -0.7408   -9.4134   -0.0616 C.3       1 <0>         0.1076
     15 C12        -1.2327  -10.0140   -1.3533 C.ar      1 <0>        -0.1736
     16 C13        -1.4726   -9.2019   -2.4459 C.ar      1 <0>        -0.0934
     17 C14        -1.9238   -9.7528   -3.6308 C.ar      1 <0>        -0.1172
     18 C15        -2.1347  -11.1158   -3.7231 C.ar      1 <0>        -0.0345
     19 C16        -1.8940  -11.9280   -2.6307 C.ar      1 <0>        -0.1137
     20 C17        -1.4387  -11.3777   -1.4472 C.ar      1 <0>        -0.0790
     21 C18        -2.6276  -11.7162   -5.0144 C.3       1 <0>        -0.1355
     22 C19         2.8411   -8.0524   -0.0536 C.ar      1 <0>        -0.1350
     23 C20         3.0577   -6.6610   -0.0511 C.ar      1 <0>        -0.1347
     24 C21         4.3463   -6.1646   -0.0556 C.ar      1 <0>         0.0045
     25 C22         5.4232   -7.0438   -0.0663 C.ar      1 <0>        -0.0507
     26 C23         5.2110   -8.4067   -0.0725 C.ar      1 <0>        -0.0514
     27 C24         3.9178   -8.9170   -0.0591 C.ar      1 <0>         0.0055
     28 H1          1.0042    1.8801    0.0026 H         1 <0>         0.0865
     29 H2         -0.5455    1.8639   -0.8728 H         1 <0>         0.0795
     30 H3         -0.5286    1.8543    0.9071 H         1 <0>         0.0795
     31 H4         -0.0064   -0.1436   -2.1312 H         1 <0>         0.1390
     32 H5          0.0266   -2.6057   -2.1448 H         1 <0>         0.1295
     33 H6          0.0491   -2.6289    2.1200 H         1 <0>         0.1298
     34 H7          0.0245   -0.1667    2.1335 H         1 <0>         0.1391
     35 H8         -0.4447   -4.6501    0.8693 H         1 <0>         0.1298
     36 H9         -0.4546   -4.6404   -0.9106 H         1 <0>         0.1290
     37 H10         2.1759   -4.1059   -0.0323 H         1 <0>         0.4625
     38 H11        -1.0932  -10.0150    0.7762 H         1 <0>         0.1529
     39 H12        -1.1224   -8.3970    0.0350 H         1 <0>         0.1063
     40 H13        -1.3078   -8.1370   -2.3738 H         1 <0>         0.1156
     41 H14        -2.1119   -9.1182   -4.4842 H         1 <0>         0.1366
     42 H15        -2.0591  -12.9929   -2.7027 H         1 <0>         0.1409
     43 H16        -1.2470  -12.0127   -0.5949 H         1 <0>         0.1355
     44 H17        -1.7753  -11.9902   -5.6363 H         1 <0>         0.0859
     45 H18        -3.2207  -12.6050   -4.7989 H         1 <0>         0.0807
     46 H19        -3.2432  -10.9878   -5.5422 H         1 <0>         0.0785
     47 H20         4.5168   -5.0982   -0.0511 H         1 <0>         0.1677
     48 H21         6.4317   -6.6575   -0.0702 H         1 <0>         0.1772
     49 H22         6.0543   -9.0813   -0.0813 H         1 <0>         0.1772
     50 H23         3.7560   -9.9848   -0.0656 H         1 <0>         0.1681
     51 H24         1.2240  -10.2183   -0.0678 H         1 <0>         0.4635
     52 H25        -0.1620   -6.8722   -0.0447 H         1 <0>         0.4603
@<TRIPOS>BOND
     1    1    2 1
     2    1   28 1
     3    1   29 1
     4    1   30 1
     5    2    7 ar
     6    2    3 ar
     7    3    4 ar
     8    3   31 1
     9    4    5 ar
    10    4   32 1
    11    5    6 ar
    12    5    8 1
    13    6    7 ar
    14    6   33 1
    15    7   34 1
    16    8    9 1
    17    8   35 1
    18    8   36 1
    19    9   10 1
    20    9   37 1
    21   10   23 1
    22   10   11 2
    23   11   12 1
    24   11   52 1
    25   12   13 2
    26   12   22 1
    27   13   14 1
    28   13   51 1
    29   14   15 1
    30   14   38 1
    31   14   39 1
    32   15   20 ar
    33   15   16 ar
    34   16   17 ar
    35   16   40 1
    36   17   18 ar
    37   17   41 1
    38   18   19 ar
    39   18   21 1
    40   19   20 ar
    41   19   42 1
    42   20   43 1
    43   21   44 1
    44   21   45 1
    45   21   46 1
    46   22   27 ar
    47   22   23 ar
    48   23   24 ar
    49   24   25 ar
    50   24   47 1
    51   25   26 ar
    52   25   48 1
    53   26   27 ar
    54   26   49 1
    55   27   50 1
@<TRIPOS>MOLECULE
ZINC26671979
   50    53     0     0     0
SMALL
USER_CHARGES

@<TRIPOS>ATOM
      1 C1         -0.0607    1.4806   -0.0169 C.3       1 <0>        -0.1168
      2 C2         -0.0312   -0.0261   -0.0209 C.ar      1 <0>        -0.0830
      3 C3         -0.0212   -0.7141   -1.2198 C.ar      1 <0>        -0.1207
      4 C4          0.0058   -2.0961   -1.2235 C.ar      1 <0>        -0.0928
      5 C5          0.0232   -2.7902   -0.0281 C.ar      1 <0>        -0.0885
      6 C6          0.0141   -2.1022    1.1708 C.ar      1 <0>        -0.1076
      7 C7         -0.0086   -0.7201    1.1744 C.ar      1 <0>        -0.1200
      8 C8          0.0517   -4.2970   -0.0321 C.3       1 <0>         0.0865
      9 N1          1.4419   -4.7591   -0.0384 N.2       1 <0>        -0.5207
     10 C9          1.9129   -5.4190    0.9798 C.2       1 <0>         0.4245
     11 N2          1.2105   -5.7538    2.1206 N.pl3     1 <0>        -0.6695
     12 C10         2.0300   -6.4523    2.9852 C.2       1 <0>         0.4231
     13 N3          1.6867   -6.9176    4.1512 N.2       1 <0>        -0.5400
     14 C11         2.6241   -7.7449    4.9147 C.3       1 <0>         0.0997
     15 C12         1.9451   -8.2547    6.1598 C.ar      1 <0>        -0.0776
     16 C13         1.9976   -7.5163    7.3273 C.ar      1 <0>        -0.0981
     17 C14         1.3748   -7.9838    8.4694 C.ar      1 <0>        -0.1219
     18 C15         0.6992   -9.1896    8.4439 C.ar      1 <0>        -0.0836
     19 C16         0.6459   -9.9275    7.2762 C.ar      1 <0>        -0.1218
     20 C17         1.2651   -9.4579    6.1330 C.ar      1 <0>        -0.0987
     21 C18         0.0210   -9.6998    9.6893 C.3       1 <0>        -0.1167
     22 C19         3.3635   -6.5813    2.3610 C.ar      1 <0>        -0.1141
     23 C20         3.2887   -5.9433    1.1091 C.ar      1 <0>        -0.0515
     24 C21         4.4058   -5.9100    0.2846 C.ar      1 <0>        -0.0556
     25 C22         5.5827   -6.5071    0.6975 C.ar      1 <0>        -0.1015
     26 C23         5.6553   -7.1379    1.9270 C.ar      1 <0>        -0.0995
     27 C24         4.5544   -7.1722    2.7632 C.ar      1 <0>        -0.0799
     28 H1          0.9596    1.8640   -0.0238 H         1 <0>         0.0713
     29 H2         -0.5883    1.8360   -0.9020 H         1 <0>         0.0674
     30 H3         -0.5747    1.8316    0.8779 H         1 <0>         0.0665
     31 H4         -0.0348   -0.1718   -2.1537 H         1 <0>         0.1236
     32 H5          0.0129   -2.6336   -2.1602 H         1 <0>         0.1245
     33 H6          0.0274   -2.6445    2.1047 H         1 <0>         0.1147
     34 H7         -0.0119   -0.1825    2.1111 H         1 <0>         0.1218
     35 H8         -0.4519   -4.6722    0.8588 H         1 <0>         0.0464
     36 H9         -0.4585   -4.6677   -0.9211 H         1 <0>         0.0981
     37 H10         2.9443   -8.5891    4.3040 H         1 <0>         0.0746
     38 H11         3.4924   -7.1477    5.1930 H         1 <0>         0.0752
     39 H12         2.5255   -6.5743    7.3472 H         1 <0>         0.1192
     40 H13         1.4164   -7.4073    9.3817 H         1 <0>         0.1218
     41 H14         0.1184  -10.8697    7.2564 H         1 <0>         0.1218
     42 H15         1.2203  -10.0326    5.2197 H         1 <0>         0.1189
     43 H16        -1.0052   -9.3336    9.7202 H         1 <0>         0.0708
     44 H17         0.0178  -10.7897    9.6807 H         1 <0>         0.0665
     45 H18         0.5600   -9.3449   10.5678 H         1 <0>         0.0665
     46 H19         4.3554   -5.4195   -0.6763 H         1 <0>         0.1404
     47 H20         6.4511   -6.4813    0.0559 H         1 <0>         0.1385
     48 H21         6.5799   -7.6011    2.2384 H         1 <0>         0.1376
     49 H22         4.6168   -7.6676    3.7208 H         1 <0>         0.1349
     50 H23         0.2816   -5.5314    2.2895 H         1 <0>         0.4256
@<TRIPOS>BOND
     1    1    2 1
     2    1   28 1
     3    1   29 1
     4    1   30 1
     5    2    7 ar
     6    2    3 ar
     7    3    4 ar
     8    3   31 1
     9    4    5 ar
    10    4   32 1
    11    5    6 ar
    12    5    8 1
    13    6    7 ar
    14    6   33 1
    15    7   34 1
    16    8    9 1
    17    8   35 1
    18    8   36 1
    19    9   10 2
    20   10   23 1
    21   10   11 1
    22   11   12 1
    23   11   50 1
    24   12   13 2
    25   12   22 1
    26   13   14 1
    27   14   15 1
    28   14   37 1
    29   14   38 1
    30   15   20 ar
    31   15   16 ar
    32   16   17 ar
    33   16   39 1
    34   17   18 ar
    35   17   40 1
    36   18   19 ar
    37   18   21 1
    38   19   20 ar
    39   19   41 1
    40   20   42 1
    41   21   43 1
    42   21   44 1
    43   21   45 1
    44   22   27 ar
    45   22   23 ar
    46   23   24 ar
    47   24   25 ar
    48   24   46 1
    49   25   26 ar
    50   25   47 1
    51   26   27 ar
    52   26   48 1
    53   27   49 1
