@<TRIPOS>MOLECULE
ZINC01611080
   31    32     0     0     0
SMALL
USER_CHARGES
[5-(4-amino-2-oxo-pyrimidin-1-yl)tetrahydrofuran-2-yl]methoxyphosphonic acid
@<TRIPOS>ATOM
      1 C1         -6.6264    0.8010    5.7066 C.2       1 <0>        -0.3330
      2 C2         -5.5894    1.6421    5.4816 C.2       1 <0>         0.2066
      3 N1         -4.3809    1.1278    5.1184 N.am      1 <0>        -0.5195
      4 C3         -4.2173   -0.2022    4.9956 C.2       1 <0>         0.6410
      5 O1         -3.1271   -0.6454    4.6745 O.2       1 <0>        -0.4858
      6 N2         -5.2260   -1.0426    5.2193 N.2       1 <0>        -0.5691
      7 C4         -6.4218   -0.5874    5.5697 C.2       1 <0>         0.4537
      8 N3         -7.4562   -1.4649    5.7986 N.pl3     1 <0>        -0.7605
      9 C5         -3.2523    2.0272    4.8663 C.3       1 <0>         0.2744
     10 H1         -3.5841    3.0653    4.8835 H         1 <0>         0.1020
     11 C6         -2.1397    1.8008    5.9138 C.3       1 <0>        -0.1516
     12 C7         -0.8295    1.9680    5.1121 C.3       1 <0>        -0.1445
     13 C8         -1.3055    2.2757    3.6750 C.3       1 <0>         0.0824
     14 H2         -1.3355    3.3523    3.5076 H         1 <0>         0.0773
     15 O2         -2.6345    1.7155    3.5986 O.3       1 <0>        -0.3345
     16 C9         -0.3850    1.6043    2.6538 C.3       1 <0>         0.1370
     17 O3         -0.7716    1.9950    1.3348 O.3       1 <0>        -0.7558
     18 P1         -0.0180    1.4758    0.0102 P.3       1 <0>         2.1350
     19 O4          0.0021   -0.0041    0.0020 O.2       1 <0>        -1.1647
     20 H3         -7.5939    1.1872    5.9915 H         1 <0>         0.1515
     21 H4         -5.7197    2.7092    5.5849 H         1 <0>         0.1722
     22 H5         -7.6345   -1.9937    4.9688 H         1 <0>         0.3704
     23 H6         -8.3294   -1.1291    6.0546 H         1 <0>         0.3731
     24 H7         -2.2066    0.7960    6.3309 H         1 <0>         0.0840
     25 H8         -2.2017    2.5485    6.7045 H         1 <0>         0.0782
     26 H9         -0.2487    1.0458    5.1328 H         1 <0>         0.0856
     27 H10        -0.2438    2.7983    5.5064 H         1 <0>         0.0805
     28 H11        -0.4642    0.5214    2.7499 H         1 <0>         0.0482
     29 H12         0.6450    1.9108    2.8364 H         1 <0>         0.0501
     30 O5          1.4924    2.0330   -0.0013 O.3       1 <0>        -1.2026
     31 O6         -0.7967    2.0091   -1.2942 O.3       1 <0>        -1.1817
@<TRIPOS>BOND
     1    1    7 1
     2    1    2 2
     3    1   20 1
     4    2    3 1
     5    2   21 1
     6    3    4 am
     7    3    9 1
     8    4    5 2
     9    4    6 1
    10    6    7 2
    11    7    8 1
    12    8   22 1
    13    8   23 1
    14    9   10 1
    15    9   15 1
    16    9   11 1
    17   11   12 1
    18   11   24 1
    19   11   25 1
    20   12   13 1
    21   12   26 1
    22   12   27 1
    23   13   14 1
    24   13   15 1
    25   13   16 1
    26   16   17 1
    27   16   28 1
    28   16   29 1
    29   17   18 1
    30   18   19 2
    31   18   30 1
    32   18   31 1
