@<TRIPOS>MOLECULE
ZINC03929508
   51    51     0     0     0
SMALL
USER_CHARGES

@<TRIPOS>ATOM
      1 C1         -0.0187    1.5258    0.0104 C.3       1 <0>        -0.1532
      2 C2          0.0021   -0.0041    0.0020 C.3       1 <0>        -0.1222
      3 C3          0.7182   -0.4975   -1.2568 C.3       1 <0>         0.0857
      4 C4          0.8493   -2.0210   -1.2049 C.3       1 <0>        -0.1497
      5 C5          1.6735   -2.5029   -2.4004 C.3       1 <0>        -0.1692
      6 O1         -0.0359   -0.1233   -2.4115 O.3       1 <0>        -0.3300
      7 C6          0.7591    0.1000   -3.5777 C.3       1 <0>         0.0980
      8 H1          1.6460   -0.5323   -3.5369 H         1 <0>         0.1073
      9 C7          1.1771    1.5408   -3.6266 C.2       1 <0>        -0.0678
     10 C8          1.1660    2.2692   -4.7231 C.2       1 <0>        -0.1450
     11 C9          0.7250    1.7548   -6.0624 C.3       1 <0>        -0.0925
     12 C10         0.7119    0.2247   -6.0606 C.3       1 <0>         0.0229
     13 H2          1.7348   -0.1501   -6.0243 H         1 <0>         0.1580
     14 C11        -0.0574   -0.2513   -4.8231 C.3       1 <0>         0.1266
     15 H3         -1.0261    0.2463   -4.7782 H         1 <0>         0.1328
     16 N1         -0.2479   -1.7021   -4.8936 N.am      1 <0>        -0.7551
     17 C12        -1.2641   -2.2817   -4.2244 C.2       1 <0>         0.5147
     18 O2         -2.0208   -1.6022   -3.5637 O.2       1 <0>        -0.4878
     19 C13        -1.4600   -3.7742   -4.2969 C.3       1 <0>        -0.1755
     20 N2          0.0500   -0.2646   -7.2773 N.4       1 <0>        -0.6302
     21 C14         1.6106    3.6668   -4.6304 C.2       1 <0>         0.4950
     22 O3          1.9746    4.1191   -3.5627 O.2       1 <0>        -0.4879
     23 O4          1.6147    4.4471   -5.7296 O.3       1 <0>        -0.3516
     24 C15         2.0593    5.7953   -5.5664 C.3       1 <0>         0.0602
     25 C16         1.9942    6.5202   -6.9122 C.3       1 <0>        -0.1533
     26 H4          1.0039    1.9031    0.0027 H         1 <0>         0.0518
     27 H5         -0.5459    1.8868   -0.8726 H         1 <0>         0.0584
     28 H6         -0.5289    1.8773    0.9072 H         1 <0>         0.0603
     29 H7          0.5293   -0.3651    0.8851 H         1 <0>         0.0805
     30 H8         -1.0205   -0.3814    0.0098 H         1 <0>         0.0757
     31 H9          1.7103   -0.0491   -1.3098 H         1 <0>         0.0644
     32 H10         1.3468   -2.3116   -0.2797 H         1 <0>         0.0787
     33 H11        -0.1422   -2.4724   -1.2416 H         1 <0>         0.0743
     34 H12         1.7669   -3.5883   -2.3635 H         1 <0>         0.0624
     35 H13         1.1760   -2.2123   -3.3257 H         1 <0>         0.0583
     36 H14         2.6650   -2.0515   -2.3638 H         1 <0>         0.0543
     37 H15         1.5062    2.0066   -2.7095 H         1 <0>         0.1485
     38 H16        -0.2772    2.1244   -6.2793 H         1 <0>         0.1118
     39 H17         1.4127    2.1094   -6.8301 H         1 <0>         0.1204
     40 H18         0.3573   -2.2457   -5.4220 H         1 <0>         0.3997
     41 H19        -0.6897   -4.2113   -4.9323 H         1 <0>         0.0773
     42 H20        -1.3894   -4.1990   -3.2956 H         1 <0>         0.1038
     43 H21        -2.4427   -3.9917   -4.7154 H         1 <0>         0.1026
     44 H22         0.5511    0.0653   -8.0887 H         1 <0>         0.4440
     45 H23         0.0428   -1.2735   -7.2737 H         1 <0>         0.4357
     46 H24         1.4175    6.3051   -4.8478 H         1 <0>         0.0733
     47 H25         3.0865    5.7976   -5.2018 H         1 <0>         0.0730
     48 H26         2.6360    6.0105   -7.6308 H         1 <0>         0.0671
     49 H27         0.9670    6.5180   -7.2768 H         1 <0>         0.0677
     50 H28         2.3333    7.5486   -6.7877 H         1 <0>         0.0864
     51 H29        -0.8985    0.0785   -7.3054 H         1 <0>         0.4394
@<TRIPOS>BOND
     1    1    2 1
     2    1   26 1
     3    1   27 1
     4    1   28 1
     5    2    3 1
     6    2   29 1
     7    2   30 1
     8    3    4 1
     9    3    6 1
    10    3   31 1
    11    4    5 1
    12    4   32 1
    13    4   33 1
    14    5   34 1
    15    5   35 1
    16    5   36 1
    17    6    7 1
    18    7    8 1
    19    7   14 1
    20    7    9 1
    21    9   10 2
    22    9   37 1
    23   10   11 1
    24   10   21 1
    25   11   12 1
    26   11   38 1
    27   11   39 1
    28   12   13 1
    29   12   14 1
    30   12   20 1
    31   14   15 1
    32   14   16 1
    33   16   17 am
    34   16   40 1
    35   17   18 2
    36   17   19 1
    37   19   41 1
    38   19   42 1
    39   19   43 1
    40   20   44 1
    41   20   45 1
    42   20   51 1
    43   21   22 2
    44   21   23 1
    45   23   24 1
    46   24   25 1
    47   24   46 1
    48   24   47 1
    49   25   48 1
    50   25   49 1
    51   25   50 1
@<TRIPOS>MOLECULE
ZINC12503116
   43    43     0     0     0
SMALL
USER_CHARGES
(4S,5R,6R)-5-acetamido-4-guanidino-6-[(1R,2R)-1,2,3-trihydroxypropyl]-5,6-dihydro-4H-pyran-2-carboxylic acid
@<TRIPOS>ATOM
      1 C1         -4.1414    4.7859    0.3505 C.3       1 <0>        -0.1767
      2 C2         -3.1218    3.9854   -0.4180 C.2       1 <0>         0.5136
      3 O1         -3.4332    3.4460   -1.4585 O.2       1 <0>        -0.5375
      4 N1         -1.8636    3.8690    0.0512 N.am      1 <0>        -0.7255
      5 C3         -0.8724    3.0908   -0.6959 C.3       1 <0>         0.1008
      6 H1         -1.0522    3.1969   -1.7658 H         1 <0>         0.1236
      7 C4         -0.9707    1.6140   -0.3056 C.3       1 <0>         0.1807
      8 H2         -1.0181    1.5313    0.7802 H         1 <0>         0.1073
      9 C5          0.2396    0.8778   -0.8125 C.2       1 <0>        -0.3310
     10 C6          1.3445    1.5057   -1.1868 C.2       1 <0>         0.1380
     11 O2          1.4773    2.8537   -1.1474 O.3       1 <0>        -0.2716
     12 C7          0.5391    3.5886   -0.3564 C.3       1 <0>         0.0502
     13 H3          0.7425    3.4242    0.7018 H         1 <0>         0.0950
     14 C8          0.6508    5.0803   -0.6772 C.3       1 <0>         0.0991
     15 H4         -0.0010    5.6451   -0.0109 H         1 <0>         0.1137
     16 C9          2.0981    5.5368   -0.4826 C.3       1 <0>         0.0757
     17 H5          2.7501    4.9719   -1.1490 H         1 <0>         0.1274
     18 C10         2.2099    7.0286   -0.8034 C.3       1 <0>         0.0494
     19 O3          3.5799    7.4292   -0.7348 O.3       1 <0>        -0.5602
     20 O4          2.4908    5.3104    0.8726 O.3       1 <0>        -0.5355
     21 O5          0.2583    5.3067   -2.0325 O.3       1 <0>        -0.5485
     22 C11         2.4811    0.7013   -1.6686 C.2       1 <0>         0.4903
     23 O6          2.3917   -0.5097   -1.7159 O.co2     1 <0>        -0.6012
     24 C12        -3.2091    0.5912   -0.2152 C.cat     1 <0>         0.7402
     25 N2         -3.2727    0.7955    1.1429 N.pl3     1 <0>        -0.8158
     26 N3         -4.2259   -0.0737   -0.8587 N.pl3     1 <0>        -0.8144
     27 H6         -4.1156    5.8232    0.0167 H         1 <0>         0.1013
     28 H7         -5.1347    4.3726    0.1756 H         1 <0>         0.0945
     29 H8         -3.9115    4.7409    1.4151 H         1 <0>         0.0817
     30 H9         -1.6145    4.3004    0.8835 H         1 <0>         0.4049
     31 H10         0.2048   -0.1997   -0.8778 H         1 <0>         0.1515
     32 H11         1.8270    7.2141   -1.8069 H         1 <0>         0.0634
     33 H12         1.6275    7.6003   -0.0809 H         1 <0>         0.0444
     34 H13         3.7260    8.3656   -0.9274 H         1 <0>         0.3802
     35 H14         1.9527    5.7831    1.5223 H         1 <0>         0.3653
     36 H15         0.7964    4.8340   -2.6821 H         1 <0>         0.3932
     37 H16        -2.6431    1.3950    1.5732 H         1 <0>         0.4314
     38 H17        -3.9472    0.3401    1.6708 H         1 <0>         0.4350
     39 H18        -4.1809   -0.2179   -1.8168 H         1 <0>         0.4368
     40 H19        -4.9882   -0.3987   -0.3545 H         1 <0>         0.4310
     41 O7          3.6199    1.3087   -2.0570 O.co2     1 <0>        -0.7082
     42 N4         -2.1868    1.0234   -0.9634 N.pl3     1 <0>        -0.6482
     43 H20        -2.2332    0.9516   -1.9866 H         1 <0>         0.4548
@<TRIPOS>BOND
     1    1    2 1
     2    1   27 1
     3    1   28 1
     4    1   29 1
     5    2    3 2
     6    2    4 am
     7    4    5 1
     8    4   30 1
     9    5    6 1
    10    5   12 1
    11    5    7 1
    12    7    8 1
    13    7    9 1
    14    7   42 1
    15    9   10 2
    16    9   31 1
    17   10   11 1
    18   10   22 1
    19   11   12 1
    20   12   13 1
    21   12   14 1
    22   14   15 1
    23   14   16 1
    24   14   21 1
    25   16   17 1
    26   16   18 1
    27   16   20 1
    28   18   19 1
    29   18   32 1
    30   18   33 1
    31   19   34 1
    32   20   35 1
    33   21   36 1
    34   22   23 2
    35   22   41 1
    36   24   25 1
    37   24   26 1
    38   24   42 2
    39   25   37 1
    40   25   38 1
    41   26   39 1
    42   26   40 1
    43   42   43 1
