@<TRIPOS>MOLECULE
ZINC00005152
   28    27     0     0     0
SMALL
USER_CHARGES

@<TRIPOS>ATOM
      1 C1         -0.0284    1.4730    0.3254 C.3       1 <0>        -0.1526
      2 C2         -0.0192   -0.0501    0.1800 C.3       1 <0>        -0.1012
      3 C3          0.6151   -0.6772    1.4231 C.3       1 <0>        -0.1565
      4 C4         -1.4550   -0.5567    0.0292 C.3       1 <0>        -0.1297
      5 C5         -1.4383   -2.0610   -0.2495 C.3       1 <0>        -0.0924
      6 H1         -0.8692   -2.5686    0.5293 H         1 <0>         0.1204
      7 C6         -2.8727   -2.5933   -0.2618 C.3       1 <0>        -0.1975
      8 C7         -2.8509   -4.0925   -0.4137 C.2       1 <0>         0.4813
      9 O1         -1.7868   -4.6806   -0.5038 O.co2     1 <0>        -0.6916
     10 O2         -3.8974   -4.7171   -0.4466 O.co2     1 <0>        -0.6804
     11 C8         -0.7863   -2.3206   -1.6090 C.3       1 <0>        -0.0107
     12 N1         -1.4913   -1.5537   -2.6447 N.4       1 <0>        -0.6381
     13 H2          0.9945    1.8339    0.4328 H         1 <0>         0.0589
     14 H3         -0.4803    1.9198   -0.5602 H         1 <0>         0.0515
     15 H4         -0.6060    1.7503    1.2072 H         1 <0>         0.0597
     16 H5          0.5584   -0.3274   -0.7018 H         1 <0>         0.0646
     17 H6          0.6216   -1.7622    1.3195 H         1 <0>         0.0640
     18 H7          1.6379   -0.3162    1.5305 H         1 <0>         0.0574
     19 H8          0.0374   -0.3999    2.3049 H         1 <0>         0.0595
     20 H9         -2.0068   -0.3637    0.9492 H         1 <0>         0.0864
     21 H10        -1.9378   -0.0390   -0.7995 H         1 <0>         0.0490
     22 H11        -3.3660   -2.3301    0.6738 H         1 <0>         0.0816
     23 H12        -3.4171   -2.1514   -1.0964 H         1 <0>         0.0499
     24 H13         0.2584   -2.0114   -1.5759 H         1 <0>         0.1213
     25 H14        -0.8433   -3.3839   -1.8422 H         1 <0>         0.1618
     26 H15        -2.4413   -1.8852   -2.7206 H         1 <0>         0.4336
     27 H16        -1.4953   -0.5760   -2.3951 H         1 <0>         0.4206
     28 H17        -1.0217   -1.6729   -3.5297 H         1 <0>         0.4289
@<TRIPOS>BOND
     1    1    2 1
     2    1   13 1
     3    1   14 1
     4    1   15 1
     5    2    3 1
     6    2    4 1
     7    2   16 1
     8    3   17 1
     9    3   18 1
    10    3   19 1
    11    4    5 1
    12    4   20 1
    13    4   21 1
    14    5    6 1
    15    5    7 1
    16    5   11 1
    17    7    8 1
    18    7   22 1
    19    7   23 1
    20    8    9 2
    21    8   10 1
    22   11   12 1
    23   11   24 1
    24   11   25 1
    25   12   26 1
    26   12   27 1
    27   12   28 1
@<TRIPOS>MOLECULE
ZINC38415863
   24    24     0     0     0
SMALL
USER_CHARGES

@<TRIPOS>ATOM
      1 C1          0.0402    1.4197    0.1898 C.3       1 <0>        -0.1551
      2 C2          0.0341   -0.1038    0.0498 C.3       1 <0>        -0.0778
      3 C3         -1.4007   -0.6213    0.1696 C.3       1 <0>        -0.1408
      4 C4          0.6043   -0.4928   -1.3156 C.3       1 <0>         0.0126
      5 H1          0.0409    0.0105   -2.1014 H         1 <0>         0.0965
      6 C5          2.0737   -0.0736   -1.3930 C.3       1 <0>        -0.0009
      7 N1          2.5867   -0.3339   -2.7447 N.4       1 <0>        -0.6324
      8 C6          0.4974   -1.9849   -1.4980 C.2       1 <0>         0.0078
      9 N2         -0.1684   -2.6185   -2.4525 N.2       1 <0>        -0.3764
     10 N3         -0.0138   -3.8842   -2.2613 N.2       1 <0>        -0.1782
     11 N4          0.7246   -4.0642   -1.2219 N.2       1 <0>        -0.1774
     12 N5          1.0559   -2.9158   -0.7382 N.2       1 <0>        -0.3743
     13 H2          1.0692    1.7784    0.2127 H         1 <0>         0.0524
     14 H3         -0.4809    1.8645   -0.6580 H         1 <0>         0.0582
     15 H4         -0.4635    1.7017    1.1144 H         1 <0>         0.0648
     16 H5          0.6459   -0.5435    0.8376 H         1 <0>         0.0839
     17 H6         -2.0124   -0.1817   -0.6182 H         1 <0>         0.0541
     18 H7         -1.4050   -1.7067    0.0699 H         1 <0>         0.0594
     19 H8         -1.8069   -0.3442    1.1424 H         1 <0>         0.0562
     20 H9          2.1603    0.9899   -1.1701 H         1 <0>         0.1328
     21 H10         2.6532   -0.6451   -0.6681 H         1 <0>         0.1366
     22 H11         2.5869   -1.3278   -2.9186 H         1 <0>         0.4378
     23 H12         1.9974    0.1260   -3.4224 H         1 <0>         0.4309
     24 H13         3.5280    0.0212   -2.8214 H         1 <0>         0.4292
@<TRIPOS>BOND
     1    1    2 1
     2    1   13 1
     3    1   14 1
     4    1   15 1
     5    2    3 1
     6    2    4 1
     7    2   16 1
     8    3   17 1
     9    3   18 1
    10    3   19 1
    11    4    5 1
    12    4    6 1
    13    4    8 1
    14    6    7 1
    15    6   20 1
    16    6   21 1
    17    7   22 1
    18    7   23 1
    19    7   24 1
    20    8    9 1
    21    8   12 2
    22    9   10 1
    23   10   11 2
    24   11   12 1
@<TRIPOS>MOLECULE
ZINC38415864
   24    24     0     0     0
SMALL
USER_CHARGES

@<TRIPOS>ATOM
      1 C1         -0.0106    1.5693    0.3146 C.3       1 <0>        -0.1408
      2 C2         -0.1888    0.0951   -0.0538 C.3       1 <0>        -0.0778
      3 C3         -1.6774   -0.2094   -0.2334 C.3       1 <0>        -0.1551
      4 C4          0.5527   -0.1974   -1.3598 C.3       1 <0>         0.0125
      5 H1          0.0993    0.3727   -2.1706 H         1 <0>         0.0964
      6 C5          0.4616   -1.6920   -1.6742 C.3       1 <0>        -0.0011
      7 N1          1.0566   -1.9523   -2.9919 N.4       1 <0>        -0.6328
      8 C6          1.9996    0.1982   -1.2153 C.2       1 <0>         0.0068
      9 N2          2.6501    1.0946   -1.9429 N.2       1 <0>        -0.3762
     10 N3          3.8631    1.1430   -1.5086 N.2       1 <0>        -0.1780
     11 N4          3.9940    0.3093   -0.5361 N.2       1 <0>        -0.1774
     12 N5          2.8649   -0.2791   -0.3326 N.2       1 <0>        -0.3731
     13 H2          1.0499    1.7863    0.4425 H         1 <0>         0.0594
     14 H3         -0.4159    2.1943   -0.4812 H         1 <0>         0.0540
     15 H4         -0.5389    1.7777    1.2450 H         1 <0>         0.0562
     16 H5          0.2165   -0.5299    0.7419 H         1 <0>         0.0841
     17 H6         -2.0576    0.3335   -1.0987 H         1 <0>         0.0581
     18 H7         -1.8133   -1.2798   -0.3876 H         1 <0>         0.0525
     19 H8         -2.2220    0.1012    0.6583 H         1 <0>         0.0648
     20 H9          1.0011   -2.2568   -0.9139 H         1 <0>         0.1365
     21 H10        -0.5843   -1.9988   -1.6809 H         1 <0>         0.1331
     22 H11         0.5318   -1.4622   -3.7007 H         1 <0>         0.4301
     23 H12         2.0129   -1.6305   -2.9986 H         1 <0>         0.4381
     24 H13         1.0338   -2.9431   -3.1814 H         1 <0>         0.4296
@<TRIPOS>BOND
     1    1    2 1
     2    1   13 1
     3    1   14 1
     4    1   15 1
     5    2    3 1
     6    2    4 1
     7    2   16 1
     8    3   17 1
     9    3   18 1
    10    3   19 1
    11    4    5 1
    12    4    6 1
    13    4    8 1
    14    6    7 1
    15    6   20 1
    16    6   21 1
    17    7   22 1
    18    7   23 1
    19    7   24 1
    20    8    9 1
    21    8   12 2
    22    9   10 1
    23   10   11 2
    24   11   12 1
@<TRIPOS>MOLECULE
ZINC03959180
   35    35     0     0     0
SMALL
USER_CHARGES
2-[1-(aminomethyl)-3,3-dimethyl-cyclohexyl]acetic acid
@<TRIPOS>ATOM
      1 C1          0.0661    1.0011   -5.2350 C.3       1 <0>        -0.1412
      2 C2         -0.6178    1.2583   -3.8907 C.3       1 <0>        -0.0582
      3 C3         -0.7433    2.7660   -3.6626 C.3       1 <0>        -0.1114
      4 C4         -1.4272    3.0233   -2.3184 C.3       1 <0>        -0.1232
      5 C5         -0.5924    2.4053   -1.1949 C.3       1 <0>        -0.1228
      6 C6         -0.4668    0.8976   -1.4230 C.3       1 <0>        -0.0540
      7 C7          0.2170    0.6404   -2.7673 C.3       1 <0>        -0.1084
      8 C8         -1.8600    0.2651   -1.4303 C.3       1 <0>        -0.2095
      9 C9         -1.7441   -1.2016   -1.7563 C.2       1 <0>         0.4595
     10 O1         -0.6547   -1.7166   -1.8447 O.co2     1 <0>        -0.6338
     11 C10         0.3680    0.2796   -0.2996 C.3       1 <0>        -0.0091
     12 C11        -2.0109    0.6259   -3.8980 C.3       1 <0>        -0.1779
     13 H1          0.1556   -0.0730   -5.3975 H         1 <0>         0.0595
     14 H2         -0.5286    1.4414   -6.0353 H         1 <0>         0.0547
     15 H3          1.0586    1.4517   -5.2298 H         1 <0>         0.0510
     16 H4          0.2492    3.2166   -3.6574 H         1 <0>         0.0608
     17 H5         -1.3380    3.2063   -4.4630 H         1 <0>         0.0643
     18 H6         -1.5166    4.0974   -2.1559 H         1 <0>         0.0646
     19 H7         -2.4197    2.5727   -2.3235 H         1 <0>         0.0742
     20 H8         -1.0796    2.5885   -0.2373 H         1 <0>         0.0488
     21 H9          0.4001    2.8559   -1.1898 H         1 <0>         0.0708
     22 H10         1.2095    1.0909   -2.7621 H         1 <0>         0.0547
     23 H11         0.3065   -0.4337   -2.9298 H         1 <0>         0.1151
     24 H12        -2.3181    0.3840   -0.4484 H         1 <0>         0.0467
     25 H13        -2.4782    0.7566   -2.1815 H         1 <0>         0.1295
     26 H14         0.3967   -0.8032   -0.4217 H         1 <0>         0.1651
     27 H15         1.3822    0.6768   -0.3399 H         1 <0>         0.1179
     28 H16        -0.2834    1.6092    1.1309 H         1 <0>         0.4228
     29 H17        -1.1488    0.1896    1.0896 H         1 <0>         0.4351
     30 H18        -2.7228    1.3097   -3.4356 H         1 <0>         0.0614
     31 H19        -2.3139    0.4262   -4.9258 H         1 <0>         0.0478
     32 H20        -1.9885   -0.3088   -3.3376 H         1 <0>         0.1016
     33 O2         -2.8512   -1.9359   -1.9486 O.co2     1 <0>        -0.7442
     34 N1         -0.2193    0.5994    1.0135 N.4       1 <0>        -0.6454
     35 H21         0.3786    0.2134    1.7536 H         1 <0>         0.4333
@<TRIPOS>BOND
     1    1    2 1
     2    1   13 1
     3    1   14 1
     4    1   15 1
     5    2    7 1
     6    2    3 1
     7    2   12 1
     8    3    4 1
     9    3   16 1
    10    3   17 1
    11    4    5 1
    12    4   18 1
    13    4   19 1
    14    5    6 1
    15    5   20 1
    16    5   21 1
    17    6    7 1
    18    6    8 1
    19    6   11 1
    20    7   22 1
    21    7   23 1
    22    8    9 1
    23    8   24 1
    24    8   25 1
    25    9   10 2
    26    9   33 1
    27   11   26 1
    28   11   27 1
    29   11   34 1
    30   12   30 1
    31   12   31 1
    32   12   32 1
    33   28   34 1
    34   29   34 1
    35   34   35 1
@<TRIPOS>MOLECULE
ZINC13779554
   35    35     0     0     0
SMALL
USER_CHARGES
2-[(1R)-1-(aminomethyl)-3,3-dimethyl-cyclohexyl]acetic acid
@<TRIPOS>ATOM
      1 C1         -0.1288   -0.1359   -0.1689 C.3       1 <0>        -0.1765
      2 C2         -0.1182    1.3920   -0.0885 C.3       1 <0>        -0.0583
      3 C3         -0.8801    1.8423    1.1596 C.3       1 <0>        -0.1114
      4 C4         -2.3252    1.3456    1.0819 C.3       1 <0>        -0.1231
      5 C5         -2.9978    1.9265   -0.1635 C.3       1 <0>        -0.1243
      6 C6         -2.2360    1.4762   -1.4116 C.3       1 <0>        -0.0570
      7 C7         -0.7909    1.9729   -1.3339 C.3       1 <0>        -0.1088
      8 C8         -2.2465   -0.0516   -1.4920 C.3       1 <0>        -0.2096
      9 C9         -1.4047   -0.4991   -2.6591 C.2       1 <0>         0.4603
     10 O1         -0.9531    0.3176   -3.4265 O.co2     1 <0>        -0.6337
     11 C10        -2.9086    2.0571   -2.6570 C.3       1 <0>        -0.0083
     12 C11         1.3268    1.8886   -0.0108 C.3       1 <0>        -0.1412
     13 H1          0.8225   -0.5254    0.1936 H         1 <0>         0.0476
     14 H2         -0.9394   -0.5265    0.4463 H         1 <0>         0.0626
     15 H3         -0.2770   -0.4443   -1.2038 H         1 <0>         0.1000
     16 H4         -0.4009    1.4284    2.0468 H         1 <0>         0.0644
     17 H5         -0.8726    2.9307    1.2168 H         1 <0>         0.0608
     18 H6         -2.8679    1.6664    1.9710 H         1 <0>         0.0647
     19 H7         -2.3327    0.2572    1.0246 H         1 <0>         0.0743
     20 H8         -2.9903    3.0150   -0.1062 H         1 <0>         0.0712
     21 H9         -4.0273    1.5727   -0.2189 H         1 <0>         0.0487
     22 H10        -0.7834    3.0613   -1.2766 H         1 <0>         0.0546
     23 H11        -0.2482    1.6520   -2.2231 H         1 <0>         0.1158
     24 H12        -1.8394   -0.4668   -0.5700 H         1 <0>         0.1305
     25 H13        -3.2700   -0.4013   -1.6270 H         1 <0>         0.0464
     26 H14        -2.8181    3.1433   -2.6456 H         1 <0>         0.1182
     27 H15        -2.4241    1.6614   -3.5496 H         1 <0>         0.1670
     28 H16        -4.7791    1.9912   -3.5146 H         1 <0>         0.4314
     29 H17        -4.4432    0.6902   -2.5346 H         1 <0>         0.4334
     30 H18         1.8696    1.5678   -0.9000 H         1 <0>         0.0596
     31 H19         1.3343    2.9771    0.0465 H         1 <0>         0.0510
     32 H20         1.8060    1.4748    0.8764 H         1 <0>         0.0547
     33 O2         -1.1567   -1.8049   -2.8462 O.co2     1 <0>        -0.7444
     34 N1         -4.3375    1.6973   -2.6449 N.4       1 <0>        -0.6456
     35 H21        -4.7981    2.1706   -1.8587 H         1 <0>         0.4252
@<TRIPOS>BOND
     1    1    2 1
     2    1   13 1
     3    1   14 1
     4    1   15 1
     5    2    7 1
     6    2    3 1
     7    2   12 1
     8    3    4 1
     9    3   16 1
    10    3   17 1
    11    4    5 1
    12    4   18 1
    13    4   19 1
    14    5    6 1
    15    5   20 1
    16    5   21 1
    17    6    7 1
    18    6    8 1
    19    6   11 1
    20    7   22 1
    21    7   23 1
    22    8    9 1
    23    8   24 1
    24    8   25 1
    25    9   10 2
    26    9   33 1
    27   11   26 1
    28   11   27 1
    29   11   34 1
    30   12   30 1
    31   12   31 1
    32   12   32 1
    33   28   34 1
    34   29   34 1
    35   34   35 1
@<TRIPOS>MOLECULE
ZINC13779537
   35    35     0     0     0
SMALL
USER_CHARGES
2-[1-(aminomethyl)-4-ethyl-cyclohexyl]acetic acid
@<TRIPOS>ATOM
      1 C1         -0.3983    1.1173   -0.3501 C.3       1 <0>        -0.1549
      2 C2         -1.0235    1.2738    1.0376 C.3       1 <0>        -0.1225
      3 C3         -2.4854    0.8247    0.9919 C.3       1 <0>        -0.0864
      4 C4         -3.2793    1.7642    0.0819 C.3       1 <0>        -0.1182
      5 C5         -4.7412    1.3152    0.0362 C.3       1 <0>        -0.1287
      6 C6         -5.3308    1.3533    1.4476 C.3       1 <0>        -0.0580
      7 C7         -4.5369    0.4138    2.3575 C.3       1 <0>        -0.1252
      8 C8         -3.0750    0.8629    2.4032 C.3       1 <0>        -0.1165
      9 C9         -5.2524    2.7800    1.9946 C.3       1 <0>        -0.1540
     10 C10        -6.0751    3.6968    1.1265 C.2       1 <0>         0.4594
     11 O1         -6.5961    3.2717    0.1227 O.co2     1 <0>        -0.6415
     12 C11        -6.7927    0.9042    1.4019 C.3       1 <0>        -0.0087
     13 H1         -0.4479    0.0721   -0.6552 H         1 <0>         0.0509
     14 H2          0.6432    1.4373   -0.3175 H         1 <0>         0.0538
     15 H3         -0.9447    1.7312   -1.0661 H         1 <0>         0.0582
     16 H4         -0.4770    0.6600    1.7536 H         1 <0>         0.0602
     17 H5         -0.9738    2.3191    1.3427 H         1 <0>         0.0645
     18 H6         -2.5412   -0.1917    0.6021 H         1 <0>         0.0644
     19 H7         -3.2234    2.7806    0.4717 H         1 <0>         0.0727
     20 H8         -2.8593    1.7371   -0.9235 H         1 <0>         0.0674
     21 H9         -4.7970    0.2988   -0.3535 H         1 <0>         0.0384
     22 H10        -5.3068    1.9845   -0.6120 H         1 <0>         0.1174
     23 H11        -4.5927   -0.6026    1.9677 H         1 <0>         0.0493
     24 H12        -4.9569    0.4410    3.3629 H         1 <0>         0.0725
     25 H13        -2.5094    0.1936    3.0514 H         1 <0>         0.0652
     26 H14        -3.0191    1.8793    2.7929 H         1 <0>         0.0753
     27 H15        -5.6394    2.8002    3.0134 H         1 <0>         0.0718
     28 H16        -4.2145    3.1130    1.9935 H         1 <0>         0.0895
     29 H17        -7.2434    1.0336    2.3858 H         1 <0>         0.1191
     30 H18        -7.3348    1.5054    0.6720 H         1 <0>         0.1696
     31 H19        -7.8117   -0.8414    1.0110 H         1 <0>         0.4311
     32 H20        -6.4190   -0.6626    0.1198 H         1 <0>         0.4313
     33 O2         -6.2290    4.9856    1.4684 O.co2     1 <0>        -0.7472
     34 N1         -6.8448   -0.5219    1.0344 N.4       1 <0>        -0.6455
     35 H21        -6.3278   -1.0694    1.7324 H         1 <0>         0.4251
@<TRIPOS>BOND
     1    1    2 1
     2    1   13 1
     3    1   14 1
     4    1   15 1
     5    2    3 1
     6    2   16 1
     7    2   17 1
     8    3    8 1
     9    3    4 1
    10    3   18 1
    11    4    5 1
    12    4   19 1
    13    4   20 1
    14    5    6 1
    15    5   21 1
    16    5   22 1
    17    6    7 1
    18    6    9 1
    19    6   12 1
    20    7    8 1
    21    7   23 1
    22    7   24 1
    23    8   25 1
    24    8   26 1
    25    9   10 1
    26    9   27 1
    27    9   28 1
    28   10   11 2
    29   10   33 1
    30   12   29 1
    31   12   30 1
    32   12   34 1
    33   31   34 1
    34   32   34 1
    35   34   35 1
@<TRIPOS>MOLECULE
ZINC13779542
   35    35     0     0     0
SMALL
USER_CHARGES
2-[(1S,3R)-1-(aminomethyl)-3-ethyl-cyclohexyl]acetic acid
@<TRIPOS>ATOM
      1 C1          3.5472    3.6638   -1.9369 C.3       1 <0>        -0.1548
      2 C2          3.5777    2.1734   -1.5924 C.3       1 <0>        -0.1184
      3 C3          2.1463    1.6386   -1.5145 C.3       1 <0>        -0.0882
      4 H1          1.6250    1.8587   -2.4461 H         1 <0>         0.0760
      5 C4          1.4143    2.3083   -0.3499 C.3       1 <0>        -0.1169
      6 C5         -0.0171    1.7735   -0.2720 C.3       1 <0>        -0.1214
      7 C6          0.0154    0.2598   -0.0512 C.3       1 <0>        -0.1210
      8 C7          0.7474   -0.4099   -1.2158 C.3       1 <0>        -0.0596
      9 C8          2.1788    0.1249   -1.2937 C.3       1 <0>        -0.1096
     10 C9          0.0157   -0.1009   -2.5235 C.3       1 <0>        -0.1737
     11 C10         0.7639   -0.7195   -3.6761 C.2       1 <0>         0.4528
     12 O1          1.7140   -1.4354   -3.4650 O.co2     1 <0>        -0.6311
     13 C11         0.7799   -1.9235   -0.9950 C.3       1 <0>        -0.0080
     14 H2          3.0540    3.8044   -2.8987 H         1 <0>         0.0551
     15 H3          2.9990    4.2040   -1.1650 H         1 <0>         0.0538
     16 H4          4.5669    4.0449   -1.9923 H         1 <0>         0.0528
     17 H5          4.0709    2.0328   -0.6306 H         1 <0>         0.0584
     18 H6          4.1259    1.6332   -2.3642 H         1 <0>         0.0651
     19 H7          1.3912    3.3867   -0.5072 H         1 <0>         0.0663
     20 H8          1.9356    2.0882    0.5817 H         1 <0>         0.0605
     21 H9         -0.5384    1.9936   -1.2036 H         1 <0>         0.0697
     22 H10        -0.5386    2.2506    0.5577 H         1 <0>         0.0642
     23 H11         0.5367    0.0397    0.8804 H         1 <0>         0.0715
     24 H12        -1.0044   -0.1212    0.0043 H         1 <0>         0.0499
     25 H13         2.7001   -0.0952   -0.3621 H         1 <0>         0.0571
     26 H14         2.7003   -0.3522   -2.1234 H         1 <0>         0.1096
     27 H15        -0.9926   -0.5129   -2.4818 H         1 <0>         0.0536
     28 H16        -0.0385    0.9788   -2.6631 H         1 <0>         0.0970
     29 H17         1.3866   -2.3909   -1.7706 H         1 <0>         0.1667
     30 H18         1.2110   -2.1389   -0.0173 H         1 <0>         0.1200
     31 H19        -0.5859   -3.4640   -0.9983 H         1 <0>         0.4312
     32 H20        -1.1647   -2.0545   -0.3319 H         1 <0>         0.4221
     33 O2          0.3747   -0.4753   -4.9373 O.co2     1 <0>        -0.7436
     34 N1         -0.5944   -2.4485   -1.0783 N.4       1 <0>        -0.6456
     35 H21        -1.0012   -2.1873   -1.9842 H         1 <0>         0.4385
@<TRIPOS>BOND
     1    1    2 1
     2    1   14 1
     3    1   15 1
     4    1   16 1
     5    2    3 1
     6    2   17 1
     7    2   18 1
     8    3    4 1
     9    3    9 1
    10    3    5 1
    11    5    6 1
    12    5   19 1
    13    5   20 1
    14    6    7 1
    15    6   21 1
    16    6   22 1
    17    7    8 1
    18    7   23 1
    19    7   24 1
    20    8    9 1
    21    8   10 1
    22    8   13 1
    23    9   25 1
    24    9   26 1
    25   10   11 1
    26   10   27 1
    27   10   28 1
    28   11   12 2
    29   11   33 1
    30   13   29 1
    31   13   30 1
    32   13   34 1
    33   31   34 1
    34   32   34 1
    35   34   35 1
@<TRIPOS>MOLECULE
ZINC13779543
   35    35     0     0     0
SMALL
USER_CHARGES
2-[(1S,3S)-1-(aminomethyl)-3-ethyl-cyclohexyl]acetic acid
@<TRIPOS>ATOM
      1 C1          0.2015    0.8978    0.2256 C.3       1 <0>        -0.1563
      2 C2         -0.6045    1.4381    1.4084 C.3       1 <0>        -0.1216
      3 C3         -0.6331    2.9668    1.3503 C.3       1 <0>        -0.0901
      4 H1          0.3873    3.3479    1.3094 H         1 <0>         0.0642
      5 C4         -1.3956    3.4156    0.1021 C.3       1 <0>        -0.1198
      6 C5         -1.4241    4.9442    0.0440 C.3       1 <0>        -0.1230
      7 C6         -2.1224    5.4890    1.2916 C.3       1 <0>        -0.1181
      8 C7         -1.3598    5.0402    2.5398 C.3       1 <0>        -0.0535
      9 C8         -1.3313    3.5116    2.5979 C.3       1 <0>        -0.1212
     10 C9         -2.0581    5.5851    3.7874 C.3       1 <0>        -0.1716
     11 C10        -2.1330    7.0880    3.7052 C.2       1 <0>         0.4514
     12 O1         -1.5785    7.6721    2.8046 O.co2     1 <0>        -0.6301
     13 C11         0.0724    5.5752    2.4823 C.3       1 <0>        -0.0136
     14 H2          0.2219   -0.1913    0.2669 H         1 <0>         0.0550
     15 H3          1.2203    1.2823    0.2742 H         1 <0>         0.0515
     16 H4         -0.2633    1.2173   -0.7071 H         1 <0>         0.0591
     17 H5         -1.6233    1.0536    1.3598 H         1 <0>         0.0658
     18 H6         -0.1397    1.1186    2.3411 H         1 <0>         0.0596
     19 H7         -0.8981    3.0274   -0.7867 H         1 <0>         0.0659
     20 H8         -2.4160    3.0344    0.1431 H         1 <0>         0.0659
     21 H9         -1.9674    5.2639   -0.8452 H         1 <0>         0.0681
     22 H10        -0.4038    5.3253    0.0031 H         1 <0>         0.0585
     23 H11        -3.1427    5.1079    1.3326 H         1 <0>         0.0667
     24 H12        -2.1427    6.5780    1.2502 H         1 <0>         0.1107
     25 H13        -2.3517    3.1305    2.6389 H         1 <0>         0.0837
     26 H14        -0.7881    3.1919    3.4872 H         1 <0>         0.0526
     27 H15        -3.0657    5.1739    3.8486 H         1 <0>         0.0910
     28 H16        -1.4937    5.2974    4.6745 H         1 <0>         0.0562
     29 H17         0.6009    5.1102    1.6501 H         1 <0>         0.1241
     30 H18         0.0512    6.6558    2.3410 H         1 <0>         0.1666
     31 H19         0.8161    4.2619    3.8825 H         1 <0>         0.4216
     32 H20         1.6825    5.6762    3.7613 H         1 <0>         0.4311
     33 O2         -2.8157    7.7776    4.6326 O.co2     1 <0>        -0.7429
     34 N1          0.7483    5.2703    3.7558 N.4       1 <0>        -0.6458
     35 H21         0.2050    5.6695    4.5302 H         1 <0>         0.4382
@<TRIPOS>BOND
     1    1    2 1
     2    1   14 1
     3    1   15 1
     4    1   16 1
     5    2    3 1
     6    2   17 1
     7    2   18 1
     8    3    4 1
     9    3    9 1
    10    3    5 1
    11    5    6 1
    12    5   19 1
    13    5   20 1
    14    6    7 1
    15    6   21 1
    16    6   22 1
    17    7    8 1
    18    7   23 1
    19    7   24 1
    20    8    9 1
    21    8   10 1
    22    8   13 1
    23    9   25 1
    24    9   26 1
    25   10   11 1
    26   10   27 1
    27   10   28 1
    28   11   12 2
    29   11   33 1
    30   13   29 1
    31   13   30 1
    32   13   34 1
    33   31   34 1
    34   32   34 1
    35   34   35 1
@<TRIPOS>MOLECULE
ZINC13779544
   35    35     0     0     0
SMALL
USER_CHARGES
2-[(1R,3R)-1-(aminomethyl)-3-ethyl-cyclohexyl]acetic acid
@<TRIPOS>ATOM
      1 C1          5.2995    7.5718    0.2416 C.3       1 <0>        -0.1535
      2 C2          3.8718    7.0277    0.3235 C.3       1 <0>        -0.1225
      3 C3          3.8903    5.5127    0.1107 C.3       1 <0>        -0.0846
      4 H1          4.5722    5.0536    0.8265 H         1 <0>         0.0566
      5 C4          4.3603    5.2033   -1.3121 C.3       1 <0>        -0.1184
      6 C5          4.3789    3.6883   -1.5249 C.3       1 <0>        -0.1197
      7 C6          2.9703    3.1272   -1.3198 C.3       1 <0>        -0.1367
      8 C7          2.5003    3.4366    0.1030 C.3       1 <0>        -0.0556
      9 C8          2.4818    4.9516    0.3158 C.3       1 <0>        -0.1139
     10 C9          1.0918    2.8755    0.3082 C.3       1 <0>        -0.1702
     11 C10         0.1598    3.4709   -0.7156 C.2       1 <0>         0.4619
     12 O1          0.5653    4.3073   -1.4876 O.co2     1 <0>        -0.6161
     13 C11         3.4574    2.7921    1.1078 C.3       1 <0>        -0.0071
     14 H2          5.9114    7.1040    1.0128 H         1 <0>         0.0491
     15 H3          5.7179    7.3478   -0.7397 H         1 <0>         0.0563
     16 H4          5.2863    8.6511    0.3932 H         1 <0>         0.0537
     17 H5          3.2599    7.4955   -0.4477 H         1 <0>         0.0680
     18 H6          3.4534    7.2517    1.3048 H         1 <0>         0.0609
     19 H7          3.6785    5.6625   -2.0279 H         1 <0>         0.0744
     20 H8          5.3638    5.6030   -1.4582 H         1 <0>         0.0623
     21 H9          4.7137    3.4679   -2.5385 H         1 <0>         0.0673
     22 H10         5.0607    3.2292   -0.8091 H         1 <0>         0.0448
     23 H11         2.9836    2.0479   -1.4714 H         1 <0>         0.0409
     24 H12         2.2885    3.5863   -2.0356 H         1 <0>         0.1289
     25 H13         1.8000    5.4108   -0.4000 H         1 <0>         0.1217
     26 H14         2.1469    5.1721    1.3294 H         1 <0>         0.0574
     27 H15         0.7419    3.1289    1.3089 H         1 <0>         0.0790
     28 H16         1.1122    1.7917    0.1940 H         1 <0>         0.0549
     29 H17         4.4744    3.1301    0.9091 H         1 <0>         0.1346
     30 H18         3.1700    3.0796    2.1192 H         1 <0>         0.1270
     31 H19         3.6892    1.0359    0.0588 H         1 <0>         0.4324
     32 H20         3.9391    0.8787    1.6954 H         1 <0>         0.4299
     33 O2         -1.1207    3.0721   -0.7698 O.co2     1 <0>        -0.7542
     34 N1          3.3681    1.3268    0.9807 N.4       1 <0>        -0.6473
     35 H21         2.3907    1.0364    1.1020 H         1 <0>         0.4377
@<TRIPOS>BOND
     1    1    2 1
     2    1   14 1
     3    1   15 1
     4    1   16 1
     5    2    3 1
     6    2   17 1
     7    2   18 1
     8    3    4 1
     9    3    9 1
    10    3    5 1
    11    5    6 1
    12    5   19 1
    13    5   20 1
    14    6    7 1
    15    6   21 1
    16    6   22 1
    17    7    8 1
    18    7   23 1
    19    7   24 1
    20    8    9 1
    21    8   10 1
    22    8   13 1
    23    9   25 1
    24    9   26 1
    25   10   11 1
    26   10   27 1
    27   10   28 1
    28   11   12 2
    29   11   33 1
    30   13   29 1
    31   13   30 1
    32   13   34 1
    33   31   34 1
    34   32   34 1
    35   34   35 1
@<TRIPOS>MOLECULE
ZINC13779545
   35    35     0     0     0
SMALL
USER_CHARGES
2-[(1R,3S)-1-(aminomethyl)-3-ethyl-cyclohexyl]acetic acid
@<TRIPOS>ATOM
      1 C1          4.6844   -1.7065    1.0091 C.3       1 <0>        -0.1549
      2 C2          4.2495   -0.2888    1.3859 C.3       1 <0>        -0.1186
      3 C3          3.1587    0.1831    0.4224 C.3       1 <0>        -0.0881
      4 H1          3.5176    0.0967   -0.6032 H         1 <0>         0.0751
      5 C4          1.9107   -0.6840    0.6007 C.3       1 <0>        -0.1171
      6 C5          0.8199   -0.2121   -0.3628 C.3       1 <0>        -0.1211
      7 C6          0.4733    1.2481   -0.0651 C.3       1 <0>        -0.1213
      8 C7          1.7212    2.1151   -0.2434 C.3       1 <0>        -0.0596
      9 C8          2.8120    1.6432    0.7201 C.3       1 <0>        -0.1087
     10 C9          2.2250    1.9939   -1.6830 C.3       1 <0>        -0.1752
     11 C10         3.4177    2.8948   -1.8754 C.2       1 <0>         0.4498
     12 O1          3.8534    3.5277   -0.9429 O.co2     1 <0>        -0.6283
     13 C11         1.3746    3.5753    0.0543 C.3       1 <0>        -0.0093
     14 H2          3.8282   -2.3781    1.0726 H         1 <0>         0.0539
     15 H3          5.0732   -1.7087   -0.0091 H         1 <0>         0.0547
     16 H4          5.4615   -2.0427    1.6956 H         1 <0>         0.0529
     17 H5          5.1057    0.3828    1.3225 H         1 <0>         0.0652
     18 H6          3.8606   -0.2866    2.4042 H         1 <0>         0.0587
     19 H7          1.5518   -0.5976    1.6263 H         1 <0>         0.0607
     20 H8          2.1577   -1.7242    0.3886 H         1 <0>         0.0662
     21 H9         -0.0691   -0.8298   -0.2358 H         1 <0>         0.0642
     22 H10         1.1789   -0.2985   -1.3884 H         1 <0>         0.0691
     23 H11        -0.3038    1.5843   -0.7515 H         1 <0>         0.0501
     24 H12         0.1144    1.3345    0.9605 H         1 <0>         0.0714
     25 H13         2.4531    1.7296    1.7457 H         1 <0>         0.0572
     26 H14         3.7011    2.2609    0.5931 H         1 <0>         0.1096
     27 H15         2.5137    0.9616   -1.8812 H         1 <0>         0.0982
     28 H16         1.4327    2.2881   -2.3712 H         1 <0>         0.0556
     29 H17         0.9234    3.6471    1.0440 H         1 <0>         0.1200
     30 H18         2.2825    4.1777    0.0244 H         1 <0>         0.1669
     31 H19        -0.4623    3.5968   -0.8751 H         1 <0>         0.4220
     32 H20         0.3119    5.0687   -0.8832 H         1 <0>         0.4318
     33 O2          3.9960    2.9941   -3.0826 O.co2     1 <0>        -0.7443
     34 N1          0.4384    4.0620   -0.9744 N.4       1 <0>        -0.6459
     35 H21         0.8215    3.8554   -1.9043 H         1 <0>         0.4385
@<TRIPOS>BOND
     1    1    2 1
     2    1   14 1
     3    1   15 1
     4    1   16 1
     5    2    3 1
     6    2   17 1
     7    2   18 1
     8    3    4 1
     9    3    9 1
    10    3    5 1
    11    5    6 1
    12    5   19 1
    13    5   20 1
    14    6    7 1
    15    6   21 1
    16    6   22 1
    17    7    8 1
    18    7   23 1
    19    7   24 1
    20    8    9 1
    21    8   10 1
    22    8   13 1
    23    9   25 1
    24    9   26 1
    25   10   11 1
    26   10   27 1
    27   10   28 1
    28   11   12 2
    29   11   33 1
    30   13   29 1
    31   13   30 1
    32   13   34 1
    33   31   34 1
    34   32   34 1
    35   34   35 1
@<TRIPOS>MOLECULE
ZINC13779560
   27    27     0     0     0
SMALL
USER_CHARGES
2-[4-(aminomethyl)tetrahydropyran-4-yl]acetic acid
@<TRIPOS>ATOM
      1 C1         -1.1840    3.4142    1.0010 C.3       1 <0>        -0.1614
      2 C2          0.1206    4.2144    0.9601 C.3       1 <0>         0.0602
      3 O1          0.8511    3.9941    2.1684 O.3       1 <0>        -0.3805
      4 C3          1.2246    2.6317    2.3842 C.3       1 <0>         0.0566
      5 C4         -0.0356    1.7680    2.4823 C.3       1 <0>        -0.1486
      6 C5         -0.8579    1.9309    1.2003 C.3       1 <0>        -0.0632
      7 C6         -0.0503    1.4193    0.0057 C.3       1 <0>        -0.1786
      8 C7          0.1867   -0.0612    0.1566 C.2       1 <0>         0.4497
      9 O2         -0.1547   -0.6278    1.1677 O.co2     1 <0>        -0.6277
     10 C8         -2.1567    1.1311    1.3203 C.3       1 <0>        -0.0061
     11 H1         -1.7217    3.5460    0.0621 H         1 <0>         0.0640
     12 H2         -1.8012    3.7658    1.8278 H         1 <0>         0.0820
     13 H3         -0.1070    5.2758    0.8613 H         1 <0>         0.0962
     14 H4          0.7195    3.8903    0.1090 H         1 <0>         0.0570
     15 H5          1.7923    2.5530    3.3113 H         1 <0>         0.1000
     16 H6          1.8379    2.2867    1.5518 H         1 <0>         0.0576
     17 H7         -0.6296    2.0863    3.3390 H         1 <0>         0.0693
     18 H8          0.2479    0.7224    2.6028 H         1 <0>         0.1200
     19 H9          0.9073    1.9384   -0.0344 H         1 <0>         0.0933
     20 H10        -0.6041    1.6068   -0.9142 H         1 <0>         0.0614
     21 H11        -1.9237    0.0935    1.5591 H         1 <0>         0.1710
     22 H12        -2.7736    1.5565    2.1119 H         1 <0>         0.1188
     23 H13        -2.3271    0.8192   -0.7076 H         1 <0>         0.4380
     24 H14        -3.7688    0.7035    0.1133 H         1 <0>         0.4326
     25 O3          0.7771   -0.7506   -0.8323 O.co2     1 <0>        -0.7409
     26 N1         -2.8897    1.2134    0.0445 N.4       1 <0>        -0.6447
     27 H15        -3.0892    2.1981   -0.1671 H         1 <0>         0.4242
@<TRIPOS>BOND
     1    1    6 1
     2    1    2 1
     3    1   11 1
     4    1   12 1
     5    2    3 1
     6    2   13 1
     7    2   14 1
     8    3    4 1
     9    4    5 1
    10    4   15 1
    11    4   16 1
    12    5    6 1
    13    5   17 1
    14    5   18 1
    15    6    7 1
    16    6   10 1
    17    7    8 1
    18    7   19 1
    19    7   20 1
    20    8    9 2
    21    8   25 1
    22   10   21 1
    23   10   22 1
    24   10   26 1
    25   23   26 1
    26   24   26 1
    27   26   27 1
@<TRIPOS>MOLECULE
ZINC00004949
   29    29     0     0     0
SMALL
USER_CHARGES

@<TRIPOS>ATOM
      1 C1          0.6128    1.8465    0.4180 C.3       1 <0>        -0.1212
      2 C2          2.1217    2.0368    0.2505 C.3       1 <0>        -0.1215
      3 C3          2.5530    1.5106   -1.1199 C.3       1 <0>        -0.1148
      4 C4          2.2117    0.0229   -1.2255 C.3       1 <0>        -0.0532
      5 C5          0.7029   -0.1674   -1.0580 C.3       1 <0>        -0.1230
      6 C6          0.2715    0.3588    0.3124 C.3       1 <0>        -0.1198
      7 C7          2.9479   -0.7484   -0.1283 C.3       1 <0>        -0.2013
      8 C8          4.4351   -0.6014   -0.3223 C.2       1 <0>         0.4819
      9 O1          4.8663    0.1222   -1.2038 O.co2     1 <0>        -0.6833
     10 O2          5.2072   -1.2060    0.4021 O.co2     1 <0>        -0.6777
     11 C9          2.6430   -0.5033   -2.5959 C.3       1 <0>        -0.0118
     12 N1          2.4374   -1.9569   -2.6492 N.4       1 <0>        -0.6359
     13 H1          0.3056    2.2214    1.3943 H         1 <0>         0.0621
     14 H2          0.0883    2.3960   -0.3637 H         1 <0>         0.0601
     15 H3          2.3648    3.0966    0.3257 H         1 <0>         0.0643
     16 H4          2.6462    1.4873    1.0322 H         1 <0>         0.0668
     17 H5          2.0285    2.0600   -1.9017 H         1 <0>         0.0535
     18 H6          3.6279    1.6461   -1.2393 H         1 <0>         0.1158
     19 H7          0.1783    0.3821   -1.8397 H         1 <0>         0.0699
     20 H8          0.4597   -1.2273   -1.1332 H         1 <0>         0.0484
     21 H9          0.7961   -0.1907    1.0941 H         1 <0>         0.0688
     22 H10        -0.8034    0.2233    0.4318 H         1 <0>         0.0628
     23 H11         2.6676   -0.3497    0.8467 H         1 <0>         0.0910
     24 H12         2.6771   -1.8029   -0.1811 H         1 <0>         0.0488
     25 H13         2.0481   -0.0235   -3.3731 H         1 <0>         0.1166
     26 H14         3.6978   -0.2795   -2.7556 H         1 <0>         0.1694
     27 H15         1.4593   -2.1635   -2.5123 H         1 <0>         0.4196
     28 H16         2.7320   -2.3055   -3.5491 H         1 <0>         0.4287
     29 H17         2.9797   -2.4001   -1.9229 H         1 <0>         0.4352
@<TRIPOS>BOND
     1    1    6 1
     2    1    2 1
     3    1   13 1
     4    1   14 1
     5    2    3 1
     6    2   15 1
     7    2   16 1
     8    3    4 1
     9    3   17 1
    10    3   18 1
    11    4    5 1
    12    4    7 1
    13    4   11 1
    14    5    6 1
    15    5   19 1
    16    5   20 1
    17    6   21 1
    18    6   22 1
    19    7    8 1
    20    7   23 1
    21    7   24 1
    22    8    9 2
    23    8   10 1
    24   11   12 1
    25   11   25 1
    26   11   26 1
    27   12   27 1
    28   12   28 1
    29   12   29 1
@<TRIPOS>MOLECULE
ZINC26392913
   27    28     0     0     0
SMALL
USER_CHARGES
(1R)-2-azaspiro[3.5]nonane-1-carboxylic acid
@<TRIPOS>ATOM
      1 C1         -0.8259    3.1217   -1.1914 C.3       1 <0>        -0.1271
      2 C2         -0.7553    1.5941   -1.2314 C.3       1 <0>        -0.1177
      3 C3         -0.0127    1.0858    0.0080 C.3       1 <0>        -0.1112
      4 C4         -0.7290    1.5790    1.2625 C.3       1 <0>        -0.0659
      5 C5         -0.8817    3.0972    1.3067 C.3       1 <0>        -0.1083
      6 C6         -1.6088    3.5694    0.0442 C.3       1 <0>        -0.1183
      7 C7         -2.0299    0.8223    1.5647 C.3       1 <0>        -0.0233
      8 N1         -1.1913   -0.0869    2.3783 N.4       1 <0>        -0.5144
      9 C8         -0.1781    0.9769    2.5624 C.3       1 <0>        -0.0140
     10 H1         -0.0937    1.5383    3.5046 H         1 <0>         0.1766
     11 C9          1.2431    0.4882    2.4513 C.2       1 <0>         0.4548
     12 O1          1.4668   -0.6888    2.2952 O.co2     1 <0>        -0.6190
     13 O2          2.2605    1.3606    2.5257 O.co2     1 <0>        -0.7074
     14 H2         -1.3308    3.4873   -2.0977 H         1 <0>         0.0663
     15 H3          0.1935    3.5329   -1.1485 H         1 <0>         0.0695
     16 H4         -1.7744    1.1802   -1.2442 H         1 <0>         0.0599
     17 H5         -0.2187    1.2754   -2.1372 H         1 <0>         0.0725
     18 H6          0.0025   -0.0141    0.0009 H         1 <0>         0.0677
     19 H7          1.0192    1.4668   -0.0008 H         1 <0>         0.0941
     20 H8         -1.4643    3.3814    2.1954 H         1 <0>         0.0725
     21 H9          0.1129    3.5645    1.3555 H         1 <0>         0.0883
     22 H10        -1.6842    4.6668    0.0528 H         1 <0>         0.0712
     23 H11        -2.6181    3.1328    0.0169 H         1 <0>         0.0609
     24 H12        -2.7397    1.4982    2.0641 H         1 <0>         0.1489
     25 H13        -2.4696    0.4588    0.6242 H         1 <0>         0.1373
     26 H14        -1.7575   -0.4148    3.2626 H         1 <0>         0.4284
     27 H15        -0.9109   -0.9639    1.7765 H         1 <0>         0.4578
@<TRIPOS>BOND
     1    1    6 1
     2    1    2 1
     3    1   14 1
     4    1   15 1
     5    2    3 1
     6    2   16 1
     7    2   17 1
     8    3    4 1
     9    3   18 1
    10    3   19 1
    11    4    9 1
    12    4    5 1
    13    4    7 1
    14    5    6 1
    15    5   20 1
    16    5   21 1
    17    6   22 1
    18    6   23 1
    19    7    8 1
    20    7   24 1
    21    7   25 1
    22    8    9 1
    23    8   26 1
    24    8   27 1
    25    9   10 1
    26    9   11 1
    27   11   12 2
    28   11   13 1
@<TRIPOS>MOLECULE
ZINC26392916
   27    28     0     0     0
SMALL
USER_CHARGES
(1S)-2-azaspiro[3.5]nonane-1-carboxylic acid
@<TRIPOS>ATOM
      1 C1          0.3493    2.2107    3.6269 C.3       1 <0>        -0.1272
      2 C2          0.0683    0.7748    3.1805 C.3       1 <0>        -0.1185
      3 C3         -1.1659    0.7558    2.2733 C.3       1 <0>        -0.1061
      4 C4         -0.9282    1.6775    1.0815 C.3       1 <0>        -0.0612
      5 C5         -0.5730    3.1054    1.4837 C.3       1 <0>        -0.1089
      6 C6          0.6502    3.0812    2.4054 C.3       1 <0>        -0.1171
      7 C7         -0.0127    1.0858    0.0080 C.3       1 <0>        -0.0283
      8 N1         -0.9153    1.6676   -1.0042 N.4       1 <0>        -0.5138
      9 C8         -2.0008    1.5831   -0.0079 C.3       1 <0>        -0.0180
     10 H1         -2.7358    0.7657   -0.0472 H         1 <0>         0.1754
     11 C9         -2.9351    2.7652   -0.0355 C.2       1 <0>         0.4539
     12 O1         -2.7473    3.6655   -0.8191 O.co2     1 <0>        -0.6192
     13 O2         -3.9759    2.8179    0.8104 O.co2     1 <0>        -0.7089
     14 H2          1.2153    2.2187    4.3051 H         1 <0>         0.0665
     15 H3         -0.5316    2.6081    4.1523 H         1 <0>         0.0695
     16 H4          0.9363    0.3862    2.6277 H         1 <0>         0.0611
     17 H5         -0.1156    0.1455    4.0638 H         1 <0>         0.0715
     18 H6         -1.3431   -0.2696    1.9168 H         1 <0>         0.0731
     19 H7         -2.0425    1.1038    2.8394 H         1 <0>         0.0890
     20 H8         -0.3442    3.6939    0.5830 H         1 <0>         0.0677
     21 H9         -1.4239    3.5599    2.0123 H         1 <0>         0.0931
     22 H10         0.8833    4.1050    2.7332 H         1 <0>         0.0726
     23 H11         1.5114    2.6653    1.8619 H         1 <0>         0.0604
     24 H12         0.9996    1.5015    0.1196 H         1 <0>         0.1333
     25 H13         0.0255   -0.0077    0.1208 H         1 <0>         0.1482
     26 H14        -0.5427    2.6590   -1.3012 H         1 <0>         0.4595
     27 H15        -0.9505    1.0101   -1.8854 H         1 <0>         0.4325
@<TRIPOS>BOND
     1    1    6 1
     2    1    2 1
     3    1   14 1
     4    1   15 1
     5    2    3 1
     6    2   16 1
     7    2   17 1
     8    3    4 1
     9    3   18 1
    10    3   19 1
    11    4    9 1
    12    4    5 1
    13    4    7 1
    14    5    6 1
    15    5   20 1
    16    5   21 1
    17    6   22 1
    18    6   23 1
    19    7    8 1
    20    7   24 1
    21    7   25 1
    22    8    9 1
    23    8   26 1
    24    8   27 1
    25    9   10 1
    26    9   11 1
    27   11   12 2
    28   11   13 1
@<TRIPOS>MOLECULE
ZINC13779555
   35    35     0     0     0
SMALL
USER_CHARGES

@<TRIPOS>ATOM
      1 C1         -0.6122    1.0966   -0.4514 C.3       1 <0>        -0.1488
      2 C2         -0.2455   -0.3820   -0.3087 C.3       1 <0>        -0.0916
      3 H1          0.4413   -0.6646   -1.1064 H         1 <0>         0.0763
      4 C3         -1.5135   -1.2331   -0.4020 C.3       1 <0>        -0.1105
      5 C4         -1.1469   -2.7117   -0.2593 C.3       1 <0>        -0.0919
      6 H2         -0.4600   -2.9943   -1.0570 H         1 <0>         0.0735
      7 C5         -0.4764   -2.9423    1.0965 C.3       1 <0>        -0.1092
      8 C6          0.7915   -2.0911    1.1899 C.3       1 <0>        -0.0533
      9 C7          0.4249   -0.6126    1.0471 C.3       1 <0>        -0.1178
     10 C8          1.7557   -2.4879    0.0701 C.3       1 <0>        -0.2008
     11 C9          2.1553   -3.9311    0.2392 C.2       1 <0>         0.4823
     12 O1          1.6505   -4.6041    1.1216 O.co2     1 <0>        -0.6828
     13 O2          2.9835   -4.4257   -0.5065 O.co2     1 <0>        -0.6780
     14 C10         1.4620   -2.3218    2.5457 C.3       1 <0>        -0.0117
     15 N1          2.7458   -1.6089    2.5847 N.4       1 <0>        -0.6360
     16 C11        -2.4148   -3.5628   -0.3526 C.3       1 <0>        -0.1464
     17 H3          0.2912    1.7030   -0.3849 H         1 <0>         0.0518
     18 H4         -1.0898    1.2609   -1.4173 H         1 <0>         0.0577
     19 H5         -1.2990    1.3793    0.3464 H         1 <0>         0.0539
     20 H6         -2.2004   -0.9505    0.3958 H         1 <0>         0.0610
     21 H7         -1.9911   -1.0688   -1.3679 H         1 <0>         0.0622
     22 H8         -1.1633   -2.6596    1.8943 H         1 <0>         0.0534
     23 H9         -0.2152   -3.9956    1.1982 H         1 <0>         0.1164
     24 H10         1.3282   -0.0062    1.1136 H         1 <0>         0.0485
     25 H11        -0.2620   -0.3299    1.8449 H         1 <0>         0.0703
     26 H12         1.2655   -2.3573   -0.8947 H         1 <0>         0.0904
     27 H13         2.6437   -1.8574    0.1148 H         1 <0>         0.0485
     28 H14         0.8147   -1.9484    3.3392 H         1 <0>         0.1165
     29 H15         1.6342   -3.3885    2.6890 H         1 <0>         0.1696
     30 H16         3.3409   -1.9469    1.8433 H         1 <0>         0.4352
     31 H17         2.5853   -0.6202    2.4628 H         1 <0>         0.4196
     32 H18        -2.8925   -3.3985   -1.3185 H         1 <0>         0.0526
     33 H19        -2.1536   -4.6162   -0.2509 H         1 <0>         0.0589
     34 H20        -3.1017   -3.2802    0.4451 H         1 <0>         0.0515
     35 H21         3.1930   -1.7698    3.4747 H         1 <0>         0.4286
@<TRIPOS>BOND
     1    1    2 1
     2    1   17 1
     3    1   18 1
     4    1   19 1
     5    2    3 1
     6    2    9 1
     7    2    4 1
     8    4    5 1
     9    4   20 1
    10    4   21 1
    11    5    6 1
    12    5    7 1
    13    5   16 1
    14    7    8 1
    15    7   22 1
    16    7   23 1
    17    8    9 1
    18    8   10 1
    19    8   14 1
    20    9   24 1
    21    9   25 1
    22   10   11 1
    23   10   26 1
    24   10   27 1
    25   11   12 2
    26   11   13 1
    27   14   15 1
    28   14   28 1
    29   14   29 1
    30   15   30 1
    31   15   31 1
    32   15   35 1
    33   16   32 1
    34   16   33 1
    35   16   34 1
@<TRIPOS>MOLECULE
ZINC13779561
   27    27     0     0     0
SMALL
USER_CHARGES
2-[4-(aminomethyl)tetrahydrothiopyran-4-yl]acetic acid
@<TRIPOS>ATOM
      1 C1         -1.4513    3.3638    1.2799 C.3       1 <0>        -0.1222
      2 C2         -0.3420    4.3699    0.9594 C.3       1 <0>        -0.0888
      3 S1          0.8736    4.3471    2.3114 S.3       1 <0>        -0.2641
      4 C3          1.2840    2.5825    2.4650 C.3       1 <0>        -0.0803
      5 C4         -0.0167    1.7868    2.6083 C.3       1 <0>        -0.1129
      6 C5         -0.8700    1.9551    1.3547 C.3       1 <0>        -0.0699
      7 C6         -0.0045    1.7014    0.1188 C.3       1 <0>        -0.1816
      8 C7          0.5190    0.2887    0.1536 C.2       1 <0>         0.4518
      9 O1          0.2892   -0.4175    1.1067 O.co2     1 <0>        -0.6275
     10 C8         -2.0145    0.9401    1.3847 C.3       1 <0>        -0.0058
     11 H1         -2.2106    3.4011    0.4987 H         1 <0>         0.0571
     12 H2         -1.9060    3.6190    2.2371 H         1 <0>         0.0900
     13 H3         -0.7691    5.3686    0.8685 H         1 <0>         0.1081
     14 H4          0.1458    4.0944    0.0244 H         1 <0>         0.0923
     15 H5          1.9066    2.4272    3.3462 H         1 <0>         0.1096
     16 H6          1.8197    2.2505    1.5757 H         1 <0>         0.0935
     17 H7         -0.5700    2.1504    3.4742 H         1 <0>         0.0720
     18 H8          0.2193    0.7317    2.7465 H         1 <0>         0.1223
     19 H9          0.8328    2.3991    0.1121 H         1 <0>         0.0944
     20 H10        -0.6040    1.8446   -0.7802 H         1 <0>         0.0609
     21 H11        -1.6051   -0.0670    1.4637 H         1 <0>         0.1720
     22 H12        -2.6552    1.1403    2.2435 H         1 <0>         0.1218
     23 H13        -2.2584    0.7711   -0.6525 H         1 <0>         0.4382
     24 H14        -3.6550    0.5185    0.2144 H         1 <0>         0.4325
     25 O2          1.2408   -0.1851   -0.8742 O.co2     1 <0>        -0.7403
     26 N1         -2.8062    1.0780    0.1496 N.4       1 <0>        -0.6463
     27 H15        -3.0637    2.0637    0.0220 H         1 <0>         0.4233
@<TRIPOS>BOND
     1    1    6 1
     2    1    2 1
     3    1   11 1
     4    1   12 1
     5    2    3 1
     6    2   13 1
     7    2   14 1
     8    3    4 1
     9    4    5 1
    10    4   15 1
    11    4   16 1
    12    5    6 1
    13    5   17 1
    14    5   18 1
    15    6    7 1
    16    6   10 1
    17    7    8 1
    18    7   19 1
    19    7   20 1
    20    8    9 2
    21    8   25 1
    22   10   21 1
    23   10   22 1
    24   10   26 1
    25   23   26 1
    26   24   26 1
    27   26   27 1
@<TRIPOS>MOLECULE
ZINC13779539
   35    35     0     0     0
SMALL
USER_CHARGES
2-[1-(aminomethyl)-4,4-dimethyl-cyclohexyl]acetic acid
@<TRIPOS>ATOM
      1 C1          0.1904    1.1280   -0.1391 C.3       1 <0>        -0.1479
      2 C2         -0.5885    1.4215    1.1447 C.3       1 <0>        -0.0664
      3 C3         -0.7777    2.9325    1.2923 C.3       1 <0>        -0.1120
      4 C4          0.5907    3.6137    1.3591 C.3       1 <0>        -0.1200
      5 C5          1.3692    3.0772    2.5620 C.3       1 <0>        -0.0531
      6 C6          1.5584    1.5662    2.4144 C.3       1 <0>        -0.1283
      7 C7          0.1900    0.8850    2.3476 C.3       1 <0>        -0.1124
      8 C8          2.7376    3.7584    2.6288 C.3       1 <0>        -0.1738
      9 C9          2.5518    5.2404    2.8287 C.2       1 <0>         0.4481
     10 O1          1.4414    5.7167    2.8199 O.co2     1 <0>        -0.6267
     11 C10         0.5903    3.3707    3.8457 C.3       1 <0>        -0.0131
     12 C11        -1.9569    0.7403    1.0779 C.3       1 <0>        -0.1439
     13 H1          0.3252    0.0515   -0.2442 H         1 <0>         0.0529
     14 H2          1.1653    1.6133   -0.0915 H         1 <0>         0.0625
     15 H3         -0.3642    1.5102   -0.9960 H         1 <0>         0.0565
     16 H4         -1.3324    3.3147    0.4353 H         1 <0>         0.0680
     17 H5         -1.3326    3.1416    2.2069 H         1 <0>         0.0589
     18 H6          0.4559    4.6902    1.4643 H         1 <0>         0.1131
     19 H7          1.1456    3.4046    0.4445 H         1 <0>         0.0695
     20 H8          2.1131    1.1840    3.2713 H         1 <0>         0.0523
     21 H9          2.1133    1.3571    1.4998 H         1 <0>         0.0868
     22 H10        -0.3649    1.0941    3.2621 H         1 <0>         0.0566
     23 H11         0.3248   -0.1915    2.2424 H         1 <0>         0.0687
     24 H12         3.3075    3.3479    3.4624 H         1 <0>         0.0579
     25 H13         3.2771    3.5821    1.6982 H         1 <0>         0.0908
     26 H14         0.3626    4.4354    3.8972 H         1 <0>         0.1637
     27 H15        -0.3385    2.8001    3.8456 H         1 <0>         0.1247
     28 H16         0.9132    3.1828    5.8703 H         1 <0>         0.4307
     29 H17         1.6684    2.0149    4.9584 H         1 <0>         0.4220
     30 H18        -1.8222   -0.3362    0.9727 H         1 <0>         0.0543
     31 H19        -2.5119    0.9494    1.9924 H         1 <0>         0.0523
     32 H20        -2.5116    1.1225    0.2209 H         1 <0>         0.0577
     33 O2          3.6198    6.0315    3.0164 O.co2     1 <0>        -0.7447
     34 N1          1.4207    3.0019    5.0058 N.4       1 <0>        -0.6457
     35 H21         2.2801    3.5637    4.9979 H         1 <0>         0.4402
@<TRIPOS>BOND
     1    1    2 1
     2    1   13 1
     3    1   14 1
     4    1   15 1
     5    2    7 1
     6    2    3 1
     7    2   12 1
     8    3    4 1
     9    3   16 1
    10    3   17 1
    11    4    5 1
    12    4   18 1
    13    4   19 1
    14    5    6 1
    15    5    8 1
    16    5   11 1
    17    6    7 1
    18    6   20 1
    19    6   21 1
    20    7   22 1
    21    7   23 1
    22    8    9 1
    23    8   24 1
    24    8   25 1
    25    9   10 2
    26    9   33 1
    27   11   26 1
    28   11   27 1
    29   11   34 1
    30   12   30 1
    31   12   31 1
    32   12   32 1
    33   28   34 1
    34   29   34 1
    35   34   35 1
@<TRIPOS>MOLECULE
ZINC13779538
   38    38     0     0     0
SMALL
USER_CHARGES
2-[1-(aminomethyl)-4-isopropyl-cyclohexyl]acetic acid
@<TRIPOS>ATOM
      1 C1          0.2185    1.1118   -0.0526 C.3       1 <0>        -0.1490
      2 C2         -0.4642    1.6535    1.2050 C.3       1 <0>        -0.0943
      3 C3         -0.3689    3.1805    1.2194 C.3       1 <0>        -0.1509
      4 C4          0.2292    1.0875    2.4458 C.3       1 <0>        -0.0802
      5 C5          0.1339   -0.4395    2.4313 C.3       1 <0>        -0.1181
      6 C6          0.8274   -1.0056    3.6721 C.3       1 <0>        -0.1211
      7 C7          0.1447   -0.4639    4.9296 C.3       1 <0>        -0.0593
      8 C8          0.2399    1.0631    4.9441 C.3       1 <0>        -0.1138
      9 C9         -0.4535    1.6292    3.7033 C.3       1 <0>        -0.1187
     10 C10        -1.3268   -0.8831    4.9319 C.3       1 <0>        -0.1731
     11 C11        -2.0110   -0.3085    6.1455 C.2       1 <0>         0.4525
     12 O1         -1.3647    0.2723    6.9850 O.co2     1 <0>        -0.6316
     13 C12         0.8381   -1.0299    6.1704 C.3       1 <0>        -0.0082
     14 H1          0.1506    0.0240   -0.0629 H         1 <0>         0.0550
     15 H2          1.2668    1.4105   -0.0541 H         1 <0>         0.0525
     16 H3         -0.2755    1.5151   -0.9365 H         1 <0>         0.0534
     17 H4         -1.5125    1.3549    1.2065 H         1 <0>         0.0700
     18 H5          0.6794    3.4791    1.2179 H         1 <0>         0.0527
     19 H6         -0.8629    3.5838    0.3355 H         1 <0>         0.0533
     20 H7         -0.8553    3.5664    2.1153 H         1 <0>         0.0596
     21 H8          1.2775    1.3861    2.4442 H         1 <0>         0.0682
     22 H9         -0.9143   -0.7381    2.4329 H         1 <0>         0.0698
     23 H10         0.6203   -0.8254    1.5354 H         1 <0>         0.0681
     24 H11         1.8757   -0.7069    3.6705 H         1 <0>         0.0712
     25 H12         0.7595   -2.0934    3.6618 H         1 <0>         0.0501
     26 H13         1.2882    1.3617    4.9425 H         1 <0>         0.0566
     27 H14        -0.2464    1.4490    5.8400 H         1 <0>         0.1088
     28 H15        -0.3856    2.7170    3.7136 H         1 <0>         0.0687
     29 H16        -1.5018    1.3305    3.7049 H         1 <0>         0.0685
     30 H17        -1.8123   -0.5097    4.0302 H         1 <0>         0.0974
     31 H18        -1.3947   -1.9707    4.9573 H         1 <0>         0.0533
     32 H19         1.9059   -0.8173    6.1187 H         1 <0>         0.1198
     33 H20         0.4184   -0.5676    7.0639 H         1 <0>         0.1665
     34 H21         1.0300   -2.9374    5.4199 H         1 <0>         0.4220
     35 H22         1.0046   -2.8686    7.0814 H         1 <0>         0.4311
     36 O2         -3.3383   -0.4420    6.2938 O.co2     1 <0>        -0.7437
     37 N1          0.6051   -2.4839    6.2270 N.4       1 <0>        -0.6457
     38 H23        -0.4057   -2.6643    6.2190 H         1 <0>         0.4385
@<TRIPOS>BOND
     1    1    2 1
     2    1   14 1
     3    1   15 1
     4    1   16 1
     5    2    3 1
     6    2    4 1
     7    2   17 1
     8    3   18 1
     9    3   19 1
    10    3   20 1
    11    4    9 1
    12    4    5 1
    13    4   21 1
    14    5    6 1
    15    5   22 1
    16    5   23 1
    17    6    7 1
    18    6   24 1
    19    6   25 1
    20    7    8 1
    21    7   10 1
    22    7   13 1
    23    8    9 1
    24    8   26 1
    25    8   27 1
    26    9   28 1
    27    9   29 1
    28   10   11 1
    29   10   30 1
    30   10   31 1
    31   11   12 2
    32   11   36 1
    33   13   32 1
    34   13   33 1
    35   13   37 1
    36   34   37 1
    37   35   37 1
    38   37   38 1
@<TRIPOS>MOLECULE
ZINC13779556
   32    32     0     0     0
SMALL
USER_CHARGES
2-[(1R,2R)-1-(aminomethyl)-2-methyl-cyclohexyl]acetic acid
@<TRIPOS>ATOM
      1 C1          3.8877    2.8751   -1.2083 C.3       1 <0>        -0.1562
      2 C2          3.7978    1.9273   -0.0106 C.3       1 <0>        -0.0909
      3 H1          3.7999    2.5070    0.9125 H         1 <0>         0.1290
      4 C3          4.9980    0.9785   -0.0197 C.3       1 <0>        -0.1151
      5 C4          4.9081    0.0307    1.1779 C.3       1 <0>        -0.1229
      6 C5          3.6148   -0.7821    1.0891 C.3       1 <0>        -0.1196
      7 C6          2.4146    0.1667    1.0983 C.3       1 <0>        -0.1366
      8 C7          2.5045    1.1145   -0.0994 C.3       1 <0>        -0.0505
      9 C8          1.3043    2.0633   -0.0902 C.3       1 <0>        -0.1725
     10 C9          1.3404    2.9071    1.1579 C.2       1 <0>         0.4637
     11 O1          2.1751    2.6962    2.0057 O.co2     1 <0>        -0.6179
     12 C10         2.5015    0.3008   -1.3951 C.3       1 <0>        -0.0115
     13 H2          3.0326    3.5510   -1.2017 H         1 <0>         0.0638
     14 H3          4.8090    3.4541   -1.1450 H         1 <0>         0.0604
     15 H4          3.8856    2.2954   -2.1313 H         1 <0>         0.0429
     16 H5          4.9959    0.3988   -0.9428 H         1 <0>         0.0497
     17 H6          5.9193    1.5575    0.0435 H         1 <0>         0.0673
     18 H7          5.7632   -0.6452    1.1714 H         1 <0>         0.0598
     19 H8          4.9102    0.6104    2.1010 H         1 <0>         0.0747
     20 H9          3.6127   -1.3618    0.1660 H         1 <0>         0.0446
     21 H10         3.5507   -1.4573    1.9424 H         1 <0>         0.0673
     22 H11         2.4167    0.7464    2.0213 H         1 <0>         0.1289
     23 H12         1.4932   -0.4123    1.0350 H         1 <0>         0.0413
     24 H13         0.3820    1.4826   -0.1097 H         1 <0>         0.0560
     25 H14         1.3453    2.7095   -0.9670 H         1 <0>         0.0806
     26 H15         2.6024    0.9735   -2.2468 H         1 <0>         0.1299
     27 H16         3.3357   -0.4008   -1.3855 H         1 <0>         0.1350
     28 H17         1.1658   -0.9016   -2.3993 H         1 <0>         0.4301
     29 H18         1.1416   -1.1031   -0.7486 H         1 <0>         0.4319
     30 O2          0.4420    3.8893    1.3302 O.co2     1 <0>        -0.7540
     31 N1          1.2221   -0.4224   -1.5021 N.4       1 <0>        -0.6465
     32 H19         0.4482    0.2486   -1.4316 H         1 <0>         0.4374
@<TRIPOS>BOND
     1    1    2 1
     2    1   13 1
     3    1   14 1
     4    1   15 1
     5    2    3 1
     6    2    8 1
     7    2    4 1
     8    4    5 1
     9    4   16 1
    10    4   17 1
    11    5    6 1
    12    5   18 1
    13    5   19 1
    14    6    7 1
    15    6   20 1
    16    6   21 1
    17    7    8 1
    18    7   22 1
    19    7   23 1
    20    8    9 1
    21    8   12 1
    22    9   10 1
    23    9   24 1
    24    9   25 1
    25   10   11 2
    26   10   30 1
    27   12   26 1
    28   12   27 1
    29   12   31 1
    30   28   31 1
    31   29   31 1
    32   31   32 1
@<TRIPOS>MOLECULE
ZINC13779557
   32    32     0     0     0
SMALL
USER_CHARGES
2-[(1R,2S)-1-(aminomethyl)-2-methyl-cyclohexyl]acetic acid
@<TRIPOS>ATOM
      1 C1          3.3613    2.2411    1.1966 C.3       1 <0>        -0.1598
      2 C2          2.0636    1.4354    1.1089 C.3       1 <0>        -0.0764
      3 H1          1.5016    1.5497    2.0358 H         1 <0>         0.0753
      4 C3          1.2238    1.9471   -0.0632 C.3       1 <0>        -0.1181
      5 C4         -0.0739    1.1414   -0.1509 C.3       1 <0>        -0.1220
      6 C5          0.2571   -0.3366   -0.3677 C.3       1 <0>        -0.1170
      7 C6          1.0969   -0.8483    0.8044 C.3       1 <0>        -0.1478
      8 C7          2.3946   -0.0426    0.8921 C.3       1 <0>        -0.0557
      9 C8          3.1835   -0.2030   -0.4089 C.3       1 <0>        -0.1718
     10 C9          3.4234   -1.6671   -0.6736 C.2       1 <0>         0.4563
     11 O1          2.8699   -2.5018    0.0022 O.co2     1 <0>        -0.6139
     12 C10         3.2344   -0.5543    2.0642 C.3       1 <0>         0.0098
     13 H2          3.9233    2.1268    0.2697 H         1 <0>         0.0634
     14 H3          3.1254    3.2940    1.3510 H         1 <0>         0.0605
     15 H4          3.9596    1.8765    2.0316 H         1 <0>         0.0539
     16 H5          1.7858    1.8328   -0.9901 H         1 <0>         0.0683
     17 H6          0.9880    3.0000    0.0912 H         1 <0>         0.0655
     18 H7         -0.6722    1.5060   -0.9859 H         1 <0>         0.0624
     19 H8         -0.6359    1.2557    0.7760 H         1 <0>         0.0606
     20 H9         -0.6674   -0.9106   -0.4302 H         1 <0>         0.0633
     21 H10         0.8191   -0.4509   -1.2946 H         1 <0>         0.0650
     22 H11         0.5349   -0.7340    1.7313 H         1 <0>         0.0569
     23 H12         1.3327   -1.9012    0.6500 H         1 <0>         0.1176
     24 H13         2.6153    0.2270   -1.2338 H         1 <0>         0.1018
     25 H14         4.1402    0.3115   -0.3196 H         1 <0>         0.0865
     26 H15         4.2090   -0.0663    2.0532 H         1 <0>         0.1113
     27 H16         2.7257   -0.3288    3.0015 H         1 <0>         0.1089
     28 H17         4.0853   -2.3471    2.6123 H         1 <0>         0.3854
     29 H18         2.5315   -2.4892    2.0365 H         1 <0>         0.4223
     30 O2          4.2519   -2.0438   -1.6602 O.co2     1 <0>        -0.6868
     31 N1          3.4218   -2.0085    1.9175 N.4       1 <0>        -0.6480
     32 H19         3.7878   -2.2087    0.9793 H         1 <0>         0.4224
@<TRIPOS>BOND
     1    1    2 1
     2    1   13 1
     3    1   14 1
     4    1   15 1
     5    2    3 1
     6    2    8 1
     7    2    4 1
     8    4    5 1
     9    4   16 1
    10    4   17 1
    11    5    6 1
    12    5   18 1
    13    5   19 1
    14    6    7 1
    15    6   20 1
    16    6   21 1
    17    7    8 1
    18    7   22 1
    19    7   23 1
    20    8    9 1
    21    8   12 1
    22    9   10 1
    23    9   24 1
    24    9   25 1
    25   10   11 2
    26   10   30 1
    27   12   26 1
    28   12   27 1
    29   12   31 1
    30   28   31 1
    31   29   31 1
    32   31   32 1
@<TRIPOS>MOLECULE
ZINC13779558
   32    32     0     0     0
SMALL
USER_CHARGES
2-[(1S,2R)-1-(aminomethyl)-2-methyl-cyclohexyl]acetic acid
@<TRIPOS>ATOM
      1 C1         -0.6640    0.8907    2.6417 C.3       1 <0>        -0.1649
      2 C2         -1.1474    1.5934    1.3715 C.3       1 <0>        -0.0954
      3 H1         -2.2220    1.4472    1.2619 H         1 <0>         0.0566
      4 C3         -0.4262    1.0050    0.1572 C.3       1 <0>        -0.1158
      5 C4         -0.9096    1.7077   -1.1130 C.3       1 <0>        -0.1210
      6 C5         -0.6059    3.2040   -1.0151 C.3       1 <0>        -0.1229
      7 C6         -1.3271    3.7924    0.1992 C.3       1 <0>        -0.1290
      8 C7         -0.8437    3.0897    1.4694 C.3       1 <0>        -0.0523
      9 C8          0.6646    3.2950    1.6232 C.3       1 <0>        -0.1550
     10 C9          0.9587    4.7654    1.7736 C.2       1 <0>         0.4590
     11 O1          0.0676    5.5740    1.6643 O.co2     1 <0>        -0.6416
     12 C10        -1.5649    3.6781    2.6837 C.3       1 <0>        -0.0107
     13 H2          0.4106    1.0369    2.7513 H         1 <0>         0.0755
     14 H3         -1.1778    1.3099    3.5068 H         1 <0>         0.0475
     15 H4         -0.8804   -0.1753    2.5720 H         1 <0>         0.0641
     16 H5         -0.6426   -0.0610    0.0875 H         1 <0>         0.0654
     17 H6          0.6484    1.1512    0.2668 H         1 <0>         0.0753
     18 H7         -0.3958    1.2885   -1.9781 H         1 <0>         0.0653
     19 H8         -1.9842    1.5615   -1.2226 H         1 <0>         0.0569
     20 H9          0.4687    3.3503   -0.9055 H         1 <0>         0.0728
     21 H10        -0.9503    3.7046   -1.9200 H         1 <0>         0.0647
     22 H11        -1.1108    4.8585    0.2689 H         1 <0>         0.1182
     23 H12        -2.4017    3.6462    0.0896 H         1 <0>         0.0386
     24 H13         1.0156    2.7620    2.5069 H         1 <0>         0.0754
     25 H14         1.1755    2.9107    0.7404 H         1 <0>         0.0888
     26 H15        -1.1427    3.2572    3.5962 H         1 <0>         0.1206
     27 H16        -1.4397    4.7609    2.6912 H         1 <0>         0.1699
     28 H17        -3.4883    3.7006    3.4176 H         1 <0>         0.4311
     29 H18        -3.4030    3.7035    1.7567 H         1 <0>         0.4317
     30 O2          2.2107    5.1767    2.0289 O.co2     1 <0>        -0.7473
     31 N1         -2.9939    3.3258    2.6097 N.4       1 <0>        -0.6458
     32 H19        -3.0895    2.3035    2.6030 H         1 <0>         0.4245
@<TRIPOS>BOND
     1    1    2 1
     2    1   13 1
     3    1   14 1
     4    1   15 1
     5    2    3 1
     6    2    8 1
     7    2    4 1
     8    4    5 1
     9    4   16 1
    10    4   17 1
    11    5    6 1
    12    5   18 1
    13    5   19 1
    14    6    7 1
    15    6   20 1
    16    6   21 1
    17    7    8 1
    18    7   22 1
    19    7   23 1
    20    8    9 1
    21    8   12 1
    22    9   10 1
    23    9   24 1
    24    9   25 1
    25   10   11 2
    26   10   30 1
    27   12   26 1
    28   12   27 1
    29   12   31 1
    30   28   31 1
    31   29   31 1
    32   31   32 1
@<TRIPOS>MOLECULE
ZINC13779559
   32    32     0     0     0
SMALL
USER_CHARGES
2-[(1S,2S)-1-(aminomethyl)-2-methyl-cyclohexyl]acetic acid
@<TRIPOS>ATOM
      1 C1         -0.8463   -2.7050   -0.9167 C.3       1 <0>        -0.1555
      2 C2         -1.4567   -2.0399    0.3186 C.3       1 <0>        -0.0915
      3 H1         -2.4873   -2.3737    0.4391 H         1 <0>         0.1316
      4 C3         -0.6473   -2.4261    1.5582 C.3       1 <0>        -0.1157
      5 C4         -1.2578   -1.7610    2.7935 C.3       1 <0>        -0.1225
      6 C5         -1.2309   -0.2411    2.6201 C.3       1 <0>        -0.1207
      7 C6         -2.0403    0.1451    1.3805 C.3       1 <0>        -0.1398
      8 C7         -1.4299   -0.5200    0.1452 C.3       1 <0>        -0.0501
      9 C8         -2.2392   -0.1337   -1.0944 C.3       1 <0>        -0.1690
     10 C9         -3.6757   -0.5484   -0.9057 C.2       1 <0>         0.4617
     11 O1         -3.9974   -1.1862    0.0688 O.co2     1 <0>        -0.6192
     12 C10         0.0168   -0.0514   -0.0239 C.3       1 <0>        -0.0101
     13 H2          0.1843   -2.3712   -1.0371 H         1 <0>         0.0426
     14 H3         -0.8654   -3.7878   -0.7931 H         1 <0>         0.0601
     15 H4         -1.4229   -2.4298   -1.7998 H         1 <0>         0.0631
     16 H5          0.3833   -2.0923    1.4378 H         1 <0>         0.0497
     17 H6         -0.6665   -3.5089    1.6817 H         1 <0>         0.0678
     18 H7         -0.6811   -2.0362    3.6766 H         1 <0>         0.0603
     19 H8         -2.2884   -2.0948    2.9140 H         1 <0>         0.0755
     20 H9         -0.2003    0.0927    2.4996 H         1 <0>         0.0430
     21 H10        -1.6658    0.2327    3.5002 H         1 <0>         0.0689
     22 H11        -2.0211    1.2280    1.2570 H         1 <0>         0.0416
     23 H12        -3.0709   -0.1886    1.5010 H         1 <0>         0.1299
     24 H13        -2.1887    0.9454   -1.2396 H         1 <0>         0.0549
     25 H14        -1.8275   -0.6377   -1.9688 H         1 <0>         0.0819
     26 H15         0.4216   -0.4504   -0.9540 H         1 <0>         0.1324
     27 H16         0.6145   -0.4079    0.8150 H         1 <0>         0.1318
     28 H17         1.0055    1.7534   -0.0833 H         1 <0>         0.4299
     29 H18        -0.4711    1.7709   -0.8483 H         1 <0>         0.4353
     30 O2         -4.5979   -0.2091   -1.8202 O.co2     1 <0>        -0.7553
     31 N1          0.0432    1.4218   -0.0413 N.4       1 <0>        -0.6470
     32 H19        -0.3965    1.7774    0.8157 H         1 <0>         0.4342
@<TRIPOS>BOND
     1    1    2 1
     2    1   13 1
     3    1   14 1
     4    1   15 1
     5    2    3 1
     6    2    8 1
     7    2    4 1
     8    4    5 1
     9    4   16 1
    10    4   17 1
    11    5    6 1
    12    5   18 1
    13    5   19 1
    14    6    7 1
    15    6   20 1
    16    6   21 1
    17    7    8 1
    18    7   22 1
    19    7   23 1
    20    8    9 1
    21    8   12 1
    22    9   10 1
    23    9   24 1
    24    9   25 1
    25   10   11 2
    26   10   30 1
    27   12   26 1
    28   12   27 1
    29   12   31 1
    30   28   31 1
    31   29   31 1
    32   31   32 1
@<TRIPOS>MOLECULE
ZINC26388017
   30    31     0     0     0
SMALL
USER_CHARGES
(1R)-3-azaspiro[4.5]decane-1-carboxylic acid
@<TRIPOS>ATOM
      1 C1          1.3987    1.9964   -0.1879 C.3       1 <0>        -0.1262
      2 C2         -0.0370    1.4703   -0.1314 C.3       1 <0>        -0.1211
      3 C3         -0.0169   -0.0593   -0.0735 C.3       1 <0>        -0.1145
      4 C4          0.7568   -0.5122    1.1601 C.3       1 <0>        -0.0457
      5 C5          2.1845    0.0227    1.1275 C.3       1 <0>        -0.1182
      6 C6          2.1564    1.5520    1.0650 C.3       1 <0>        -0.1218
      7 C7          0.0422   -0.0338    2.4373 C.3       1 <0>        -0.0070
      8 N1         -0.7960   -1.1902    2.8499 N.4       1 <0>        -0.5412
      9 C8          0.0563   -2.3767    2.5773 C.3       1 <0>         0.0219
     10 C9          0.7672   -2.0481    1.2457 C.3       1 <0>        -0.1598
     11 H1          0.2902   -2.5237    0.3761 H         1 <0>         0.1084
     12 C10         2.1836   -2.5623    1.2669 C.2       1 <0>         0.4731
     13 O1          2.7715   -2.6700    2.3170 O.co2     1 <0>        -0.6294
     14 O2          2.7920   -2.9007    0.1193 O.co2     1 <0>        -0.7365
     15 H2          1.3842    3.0952   -0.2372 H         1 <0>         0.0637
     16 H3          1.9004    1.5959   -1.0812 H         1 <0>         0.0694
     17 H4         -0.5371    1.8650    0.7653 H         1 <0>         0.0574
     18 H5         -0.5827    1.7965   -1.0291 H         1 <0>         0.0695
     19 H6         -1.0483   -0.4377   -0.0184 H         1 <0>         0.0597
     20 H7          0.4707   -0.4541   -0.9771 H         1 <0>         0.0865
     21 H8          2.7166   -0.2970    2.0356 H         1 <0>         0.0823
     22 H9          2.7033   -0.3706    0.2408 H         1 <0>         0.0929
     23 H10         3.1862    1.9368    1.0265 H         1 <0>         0.0695
     24 H11         1.6507    1.9466    1.9586 H         1 <0>         0.0548
     25 H12         0.7904    0.2240    3.2014 H         1 <0>         0.1313
     26 H13        -0.5667    0.8528    2.2066 H         1 <0>         0.1315
     27 H14        -1.0464   -1.0992    3.9171 H         1 <0>         0.4448
     28 H15         0.7725   -2.5108    3.4014 H         1 <0>         0.1415
     29 H16        -0.5774   -3.2718    2.4929 H         1 <0>         0.1208
     30 H17        -1.7217   -1.2026    2.2558 H         1 <0>         0.4425
@<TRIPOS>BOND
     1    1    6 1
     2    1    2 1
     3    1   15 1
     4    1   16 1
     5    2    3 1
     6    2   17 1
     7    2   18 1
     8    3    4 1
     9    3   19 1
    10    3   20 1
    11    4   10 1
    12    4    5 1
    13    4    7 1
    14    5    6 1
    15    5   21 1
    16    5   22 1
    17    6   23 1
    18    6   24 1
    19    7    8 1
    20    7   25 1
    21    7   26 1
    22    8    9 1
    23    8   27 1
    24    8   30 1
    25    9   10 1
    26    9   28 1
    27    9   29 1
    28   10   11 1
    29   10   12 1
    30   12   13 2
    31   12   14 1
@<TRIPOS>MOLECULE
ZINC13779540
   32    32     0     0     0
SMALL
USER_CHARGES
2-[(1S,3R)-1-(aminomethyl)-3-methyl-cyclohexyl]acetic acid
@<TRIPOS>ATOM
      1 C1          0.8758   -1.7879    0.6494 C.3       1 <0>        -0.1469
      2 C2          0.9043   -0.2590    0.5979 C.3       1 <0>        -0.0931
      3 H1          0.2437    0.1428    1.3662 H         1 <0>         0.0749
      4 C3          0.4325    0.2137   -0.7786 C.3       1 <0>        -0.1161
      5 C4          0.4609    1.7426   -0.8302 C.3       1 <0>        -0.1209
      6 C5          1.8885    2.2347   -0.5836 C.3       1 <0>        -0.1214
      7 C6          2.3603    1.7620    0.7929 C.3       1 <0>        -0.0605
      8 C7          2.3318    0.2331    0.8444 C.3       1 <0>        -0.1105
      9 C8          1.4330    2.3260    1.8713 C.3       1 <0>        -0.1733
     10 C9          1.8938    1.8549    3.2266 C.2       1 <0>         0.4515
     11 O1          2.8658    1.1433    3.3205 O.co2     1 <0>        -0.6296
     12 C10         3.7879    2.2541    1.0394 C.3       1 <0>        -0.0063
     13 H2          1.5364   -2.1897   -0.1188 H         1 <0>         0.0518
     14 H3          1.2119   -2.1247    1.6301 H         1 <0>         0.0588
     15 H4         -0.1412   -2.1385    0.4738 H         1 <0>         0.0538
     16 H5         -0.5846   -0.1368   -0.9543 H         1 <0>         0.0635
     17 H6          1.0931   -0.1881   -1.5469 H         1 <0>         0.0611
     18 H7          0.1248    2.0794   -1.8108 H         1 <0>         0.0648
     19 H8         -0.1997    2.1444   -0.0619 H         1 <0>         0.0701
     20 H9          2.5491    1.8329   -1.3519 H         1 <0>         0.0722
     21 H10         1.9088    3.3239   -0.6204 H         1 <0>         0.0497
     22 H11         2.6680   -0.1037    1.8251 H         1 <0>         0.1130
     23 H12         2.9924   -0.1687    0.0762 H         1 <0>         0.0564
     24 H13         1.4570    3.4152    1.8377 H         1 <0>         0.0547
     25 H14         0.4152    1.9793    1.6929 H         1 <0>         0.0956
     26 H15         4.1593    1.8372    1.9756 H         1 <0>         0.1673
     27 H16         4.4296    1.9332    0.2189 H         1 <0>         0.1175
     28 H17         3.2857    4.0400    1.9321 H         1 <0>         0.4381
     29 H18         4.7361    4.0797    1.1193 H         1 <0>         0.4303
     30 O2          1.2244    2.2258    4.3294 O.co2     1 <0>        -0.7453
     31 N1          3.7809    3.7264    1.0989 N.4       1 <0>        -0.6452
     32 H19         3.3048    4.0955    0.2675 H         1 <0>         0.4243
@<TRIPOS>BOND
     1    1    2 1
     2    1   13 1
     3    1   14 1
     4    1   15 1
     5    2    3 1
     6    2    8 1
     7    2    4 1
     8    4    5 1
     9    4   16 1
    10    4   17 1
    11    5    6 1
    12    5   18 1
    13    5   19 1
    14    6    7 1
    15    6   20 1
    16    6   21 1
    17    7    8 1
    18    7    9 1
    19    7   12 1
    20    8   22 1
    21    8   23 1
    22    9   10 1
    23    9   24 1
    24    9   25 1
    25   10   11 2
    26   10   30 1
    27   12   26 1
    28   12   27 1
    29   12   31 1
    30   28   31 1
    31   29   31 1
    32   31   32 1
@<TRIPOS>MOLECULE
ZINC13779541
   32    32     0     0     0
SMALL
USER_CHARGES
2-[(1R,3S)-1-(aminomethyl)-3-methyl-cyclohexyl]acetic acid
@<TRIPOS>ATOM
      1 C1          0.2982    0.8932   -2.4802 C.3       1 <0>        -0.1470
      2 C2         -0.5368    1.4335   -1.3175 C.3       1 <0>        -0.0931
      3 H1         -0.6452    2.5133   -1.4191 H         1 <0>         0.0749
      4 C3         -1.9192    0.7782   -1.3347 C.3       1 <0>        -0.1162
      5 C4         -2.7542    1.3185   -0.1720 C.3       1 <0>        -0.1197
      6 C5         -2.0545    0.9984    1.1504 C.3       1 <0>        -0.1248
      7 C6         -0.6720    1.6537    1.1676 C.3       1 <0>        -0.0598
      8 C7          0.1630    1.1134    0.0049 C.3       1 <0>        -0.1105
      9 C8         -0.8242    3.1694    1.0250 C.3       1 <0>        -0.1705
     10 C9          0.5335    3.8195    1.0956 C.2       1 <0>         0.4524
     11 O1          1.5289    3.1361    1.1420 O.co2     1 <0>        -0.6287
     12 C10         0.0278    1.3336    2.4900 C.3       1 <0>        -0.0098
     13 H2          0.4066   -0.1867   -2.3786 H         1 <0>         0.0518
     14 H3         -0.2003    1.1212   -3.4223 H         1 <0>         0.0537
     15 H4          1.2831    1.3600   -2.4680 H         1 <0>         0.0591
     16 H5         -2.4178    1.0063   -2.2768 H         1 <0>         0.0637
     17 H6         -1.8108   -0.3016   -1.2331 H         1 <0>         0.0611
     18 H7         -2.8627    2.3984   -0.2736 H         1 <0>         0.0706
     19 H8         -3.7391    0.8517   -0.1842 H         1 <0>         0.0650
     20 H9         -2.6493    1.3833    1.9787 H         1 <0>         0.0493
     21 H10        -1.9460   -0.0814    1.2520 H         1 <0>         0.0724
     22 H11         0.2714    0.0335    0.1065 H         1 <0>         0.0558
     23 H12         1.1479    1.5802    0.0171 H         1 <0>         0.1142
     24 H13        -1.2877    3.3994    0.0656 H         1 <0>         0.0941
     25 H14        -1.4513    3.5491    1.8317 H         1 <0>         0.0564
     26 H15         0.2024    0.2598    2.5580 H         1 <0>         0.1187
     27 H16         0.9811    1.8602    2.5334 H         1 <0>         0.1684
     28 H17        -0.4244    1.4801    4.4931 H         1 <0>         0.4310
     29 H18        -0.9737    2.7605    3.5851 H         1 <0>         0.4361
     30 O2          0.6371    5.1577    1.1071 O.co2     1 <0>        -0.7469
     31 N1         -0.8417    1.7506    3.6041 N.4       1 <0>        -0.6462
     32 H19        -1.7552    1.2915    3.5094 H         1 <0>         0.4244
@<TRIPOS>BOND
     1    1    2 1
     2    1   13 1
     3    1   14 1
     4    1   15 1
     5    2    3 1
     6    2    8 1
     7    2    4 1
     8    4    5 1
     9    4   16 1
    10    4   17 1
    11    5    6 1
    12    5   18 1
    13    5   19 1
    14    6    7 1
    15    6   20 1
    16    6   21 1
    17    7    8 1
    18    7    9 1
    19    7   12 1
    20    8   22 1
    21    8   23 1
    22    9   10 1
    23    9   24 1
    24    9   25 1
    25   10   11 2
    26   10   30 1
    27   12   26 1
    28   12   27 1
    29   12   31 1
    30   28   31 1
    31   29   31 1
    32   31   32 1
