@<TRIPOS>MOLECULE
ZINC00005152
   28    27     0     0     0
SMALL
USER_CHARGES

@<TRIPOS>ATOM
      1 C1         -0.0284    1.4730    0.3254 C.3       1 <0>        -0.1526
      2 C2         -0.0192   -0.0501    0.1800 C.3       1 <0>        -0.1012
      3 C3          0.6151   -0.6772    1.4231 C.3       1 <0>        -0.1565
      4 C4         -1.4550   -0.5567    0.0292 C.3       1 <0>        -0.1297
      5 C5         -1.4383   -2.0610   -0.2495 C.3       1 <0>        -0.0924
      6 H1         -0.8692   -2.5686    0.5293 H         1 <0>         0.1204
      7 C6         -2.8727   -2.5933   -0.2618 C.3       1 <0>        -0.1975
      8 C7         -2.8509   -4.0925   -0.4137 C.2       1 <0>         0.4813
      9 O1         -1.7868   -4.6806   -0.5038 O.co2     1 <0>        -0.6916
     10 O2         -3.8974   -4.7171   -0.4466 O.co2     1 <0>        -0.6804
     11 C8         -0.7863   -2.3206   -1.6090 C.3       1 <0>        -0.0107
     12 N1         -1.4913   -1.5537   -2.6447 N.4       1 <0>        -0.6381
     13 H2          0.9945    1.8339    0.4328 H         1 <0>         0.0589
     14 H3         -0.4803    1.9198   -0.5602 H         1 <0>         0.0515
     15 H4         -0.6060    1.7503    1.2072 H         1 <0>         0.0597
     16 H5          0.5584   -0.3274   -0.7018 H         1 <0>         0.0646
     17 H6          0.6216   -1.7622    1.3195 H         1 <0>         0.0640
     18 H7          1.6379   -0.3162    1.5305 H         1 <0>         0.0574
     19 H8          0.0374   -0.3999    2.3049 H         1 <0>         0.0595
     20 H9         -2.0068   -0.3637    0.9492 H         1 <0>         0.0864
     21 H10        -1.9378   -0.0390   -0.7995 H         1 <0>         0.0490
     22 H11        -3.3660   -2.3301    0.6738 H         1 <0>         0.0816
     23 H12        -3.4171   -2.1514   -1.0964 H         1 <0>         0.0499
     24 H13         0.2584   -2.0114   -1.5759 H         1 <0>         0.1213
     25 H14        -0.8433   -3.3839   -1.8422 H         1 <0>         0.1618
     26 H15        -2.4413   -1.8852   -2.7206 H         1 <0>         0.4336
     27 H16        -1.4953   -0.5760   -2.3951 H         1 <0>         0.4206
     28 H17        -1.0217   -1.6729   -3.5297 H         1 <0>         0.4289
@<TRIPOS>BOND
     1    1    2 1
     2    1   13 1
     3    1   14 1
     4    1   15 1
     5    2    3 1
     6    2    4 1
     7    2   16 1
     8    3   17 1
     9    3   18 1
    10    3   19 1
    11    4    5 1
    12    4   20 1
    13    4   21 1
    14    5    6 1
    15    5    7 1
    16    5   11 1
    17    7    8 1
    18    7   22 1
    19    7   23 1
    20    8    9 2
    21    8   10 1
    22   11   12 1
    23   11   24 1
    24   11   25 1
    25   12   26 1
    26   12   27 1
    27   12   28 1
@<TRIPOS>MOLECULE
ZINC05760031
   28    27     0     0     0
SMALL
USER_CHARGES

@<TRIPOS>ATOM
      1 C1         -2.2188    1.7882   -0.0185 C.3       1 <0>        -0.1489
      2 C2         -1.7113    0.4947   -0.6589 C.3       1 <0>        -0.1005
      3 C3         -0.4837    0.7993   -1.5198 C.3       1 <0>        -0.1545
      4 C4         -1.3306   -0.5021    0.4376 C.3       1 <0>        -0.1237
      5 C5         -0.9380   -1.8364   -0.1999 C.3       1 <0>        -0.0929
      6 H1         -0.1555   -1.6691   -0.9400 H         1 <0>         0.0999
      7 C6         -2.1603   -2.4553   -0.8811 C.3       1 <0>        -0.1830
      8 C7         -1.7415   -3.6871   -1.6415 C.2       1 <0>         0.4857
      9 O1         -0.5597   -3.9703   -1.7401 O.co2     1 <0>        -0.7054
     10 O2         -2.5845   -4.4006   -2.1581 O.co2     1 <0>        -0.6821
     11 C8         -0.4217   -2.7865    0.8825 C.3       1 <0>        -0.0066
     12 N1          0.8296   -2.2579    1.4417 N.4       1 <0>        -0.6342
     13 H2         -2.4900    2.4983   -0.7997 H         1 <0>         0.0580
     14 H3         -3.0934    1.5712    0.5948 H         1 <0>         0.0552
     15 H4         -1.4346    2.2167    0.6056 H         1 <0>         0.0513
     16 H5         -2.4955    0.0663   -1.2831 H         1 <0>         0.0825
     17 H6         -0.1200   -0.1228   -1.9732 H         1 <0>         0.0622
     18 H7         -0.7557    1.5067   -2.3032 H         1 <0>         0.0585
     19 H8          0.2993    1.2310   -0.8963 H         1 <0>         0.0499
     20 H9         -0.4886   -0.1104    1.0083 H         1 <0>         0.0479
     21 H10        -2.1811   -0.6533    1.1024 H         1 <0>         0.0726
     22 H11        -2.8979   -2.7276   -0.1262 H         1 <0>         0.0667
     23 H12        -2.5963   -1.7330   -1.5712 H         1 <0>         0.0806
     24 H13        -1.1655   -2.8733    1.6746 H         1 <0>         0.1204
     25 H14        -0.2387   -3.7686    0.4467 H         1 <0>         0.1533
     26 H15         1.4858   -2.0863    0.6946 H         1 <0>         0.4342
     27 H16         0.6420   -1.3948    1.9294 H         1 <0>         0.4224
     28 H17         1.2207   -2.9296    2.0851 H         1 <0>         0.4303
@<TRIPOS>BOND
     1    1    2 1
     2    1   13 1
     3    1   14 1
     4    1   15 1
     5    2    3 1
     6    2    4 1
     7    2   16 1
     8    3   17 1
     9    3   18 1
    10    3   19 1
    11    4    5 1
    12    4   20 1
    13    4   21 1
    14    5    6 1
    15    5    7 1
    16    5   11 1
    17    7    8 1
    18    7   22 1
    19    7   23 1
    20    8    9 2
    21    8   10 1
    22   11   12 1
    23   11   24 1
    24   11   25 1
    25   12   26 1
    26   12   27 1
    27   12   28 1
@<TRIPOS>MOLECULE
ZINC19362693
   65    68     0     0     0
SMALL
USER_CHARGES

@<TRIPOS>ATOM
      1 C1          0.1921    1.4077   -0.4246 C.3       1 <0>         0.0181
      2 O1          0.3166   -0.0048   -0.6019 O.3       1 <0>        -0.2942
      3 C2          0.8515   -0.7118    0.4294 C.ar      1 <0>         0.1591
      4 C3          1.2424   -0.0597    1.5893 C.ar      1 <0>        -0.2013
      5 C4          1.7865   -0.7772    2.6378 C.ar      1 <0>        -0.0393
      6 C5          1.9434   -2.1469    2.5352 C.ar      1 <0>        -0.2114
      7 C6          1.5551   -2.8064    1.3791 C.ar      1 <0>         0.1374
      8 C7          1.0017   -2.0893    0.3247 C.ar      1 <0>         0.0515
      9 O2          0.6141   -2.7336   -0.8097 O.3       1 <0>        -0.3154
     10 C8          1.5927   -2.8766   -1.8411 C.3       1 <0>         0.0373
     11 O3          1.7106   -4.1537    1.2788 O.3       1 <0>        -0.3395
     12 C9          0.6213   -4.9671    1.7191 C.3       1 <0>         0.0321
     13 C10         2.5377   -2.9242    3.6813 C.3       1 <0>         0.0577
     14 N1          3.9541   -3.1984    3.4047 N.4       1 <0>        -0.3851
     15 C11         4.6986   -1.9329    3.3639 C.3       1 <0>        -0.0031
     16 C12         6.1707   -2.2166    3.0571 C.3       1 <0>         0.0256
     17 N2          6.7238   -3.0969    4.0960 N.3       1 <0>        -0.5307
     18 C13         5.9726   -4.3582    4.1656 C.3       1 <0>         0.0248
     19 C14         4.5021   -4.0569    4.4632 C.3       1 <0>        -0.0007
     20 C15         8.1532   -3.3474    3.8676 C.3       1 <0>         0.1821
     21 C16         8.8926   -2.0349    3.8247 C.ar      1 <0>        -0.1079
     22 C17         8.6156   -1.0553    4.7599 C.ar      1 <0>        -0.0654
     23 C18         9.2934    0.1485    4.7218 C.ar      1 <0>        -0.1561
     24 C19        10.2501    0.3732    3.7465 C.ar      1 <0>         0.1121
     25 C20        10.5266   -0.6088    2.8103 C.ar      1 <0>        -0.1509
     26 C21         9.8514   -1.8138    2.8536 C.ar      1 <0>        -0.0778
     27 F1         10.9130    1.5498    3.7081 F         1 <0>        -0.1332
     28 C22         8.6997   -4.1955    4.9869 C.ar      1 <0>        -0.1077
     29 C23         8.3667   -3.9077    6.2974 C.ar      1 <0>        -0.0644
     30 C24         8.8669   -4.6850    7.3247 C.ar      1 <0>        -0.1560
     31 C25         9.7020   -5.7525    7.0410 C.ar      1 <0>         0.1123
     32 C26        10.0348   -6.0397    5.7281 C.ar      1 <0>        -0.1509
     33 C27         9.5291   -5.2642    4.7021 C.ar      1 <0>        -0.0781
     34 F2         10.1919   -6.5128    8.0445 F         1 <0>        -0.1331
     35 H1          1.1776    1.8406   -0.2527 H         1 <0>         0.0635
     36 H2         -0.2475    1.8488   -1.3192 H         1 <0>         0.1135
     37 H3         -0.4488    1.6110    0.4333 H         1 <0>         0.0652
     38 H4          1.1219    1.0103    1.6732 H         1 <0>         0.1499
     39 H5          2.0904   -0.2664    3.5395 H         1 <0>         0.1450
     40 H6          1.1545   -3.4066   -2.6868 H         1 <0>         0.1022
     41 H7          1.9270   -1.8906   -2.1640 H         1 <0>         0.0499
     42 H8          2.4431   -3.4415   -1.4594 H         1 <0>         0.0484
     43 H9          0.8754   -6.0185    1.5846 H         1 <0>         0.1069
     44 H10         0.4256   -4.7725    2.7736 H         1 <0>         0.0502
     45 H11        -0.2680   -4.7306    1.1349 H         1 <0>         0.0647
     46 H12         2.4528   -2.3413    4.5984 H         1 <0>         0.1385
     47 H13         2.0015   -3.8659    3.7985 H         1 <0>         0.1328
     48 H14         4.2826   -1.2916    2.5868 H         1 <0>         0.1328
     49 H15         4.6184   -1.4328    4.3291 H         1 <0>         0.1382
     50 H16         6.2524   -2.7043    2.0858 H         1 <0>         0.0622
     51 H17         6.7262   -1.2789    3.0415 H         1 <0>         0.1262
     52 H18         6.0510   -4.8813    3.2125 H         1 <0>         0.0635
     53 H19         6.3835   -4.9830    4.9586 H         1 <0>         0.1271
     54 H20         4.4229   -3.5460    5.4228 H         1 <0>         0.1389
     55 H21         3.9404   -4.9902    4.5011 H         1 <0>         0.1356
     56 H22         8.2836   -3.8690    2.9194 H         1 <0>         0.0722
     57 H23         7.8691   -1.2306    5.5204 H         1 <0>         0.1385
     58 H24         9.0766    0.9139    5.4524 H         1 <0>         0.1390
     59 H25        11.2725   -0.4345    2.0489 H         1 <0>         0.1403
     60 H26        10.0701   -2.5815    2.1262 H         1 <0>         0.1328
     61 H27         7.7157   -3.0748    6.5185 H         1 <0>         0.1382
     62 H28         8.6069   -4.4598    8.3485 H         1 <0>         0.1389
     63 H29        10.6863   -6.8719    5.5057 H         1 <0>         0.1403
     64 H30         9.7850   -5.4908    3.6776 H         1 <0>         0.1326
     65 H31         4.0384   -3.6666    2.5149 H         1 <0>         0.4237
@<TRIPOS>BOND
     1    1    2 1
     2    1   35 1
     3    1   36 1
     4    1   37 1
     5    2    3 1
     6    3    8 ar
     7    3    4 ar
     8    4    5 ar
     9    4   38 1
    10    5    6 ar
    11    5   39 1
    12    6    7 ar
    13    6   13 1
    14    7    8 ar
    15    7   11 1
    16    8    9 1
    17    9   10 1
    18   10   40 1
    19   10   41 1
    20   10   42 1
    21   11   12 1
    22   12   43 1
    23   12   44 1
    24   12   45 1
    25   13   14 1
    26   13   46 1
    27   13   47 1
    28   14   19 1
    29   14   15 1
    30   14   65 1
    31   15   16 1
    32   15   48 1
    33   15   49 1
    34   16   17 1
    35   16   50 1
    36   16   51 1
    37   17   18 1
    38   17   20 1
    39   18   19 1
    40   18   52 1
    41   18   53 1
    42   19   54 1
    43   19   55 1
    44   20   21 1
    45   20   28 1
    46   20   56 1
    47   21   26 ar
    48   21   22 ar
    49   22   23 ar
    50   22   57 1
    51   23   24 ar
    52   23   58 1
    53   24   25 ar
    54   24   27 1
    55   25   26 ar
    56   25   59 1
    57   26   60 1
    58   28   33 ar
    59   28   29 ar
    60   29   30 ar
    61   29   61 1
    62   30   31 ar
    63   30   62 1
    64   31   32 ar
    65   31   34 1
    66   32   33 ar
    67   32   63 1
    68   33   64 1
@<TRIPOS>MOLECULE
ZINC19362693
   64    67     0     0     0
SMALL
USER_CHARGES

@<TRIPOS>ATOM
      1 C1          0.2704    1.4556    0.4791 C.3       1 <0>         0.0241
      2 O1          0.3870    0.0399    0.6348 O.3       1 <0>        -0.3048
      3 C2         -0.7596   -0.6868    0.5522 C.ar      1 <0>         0.1246
      4 C3         -1.9699   -0.0504    0.3206 C.ar      1 <0>        -0.2037
      5 C4         -3.1358   -0.7879    0.2371 C.ar      1 <0>        -0.0652
      6 C5         -3.1008   -2.1621    0.3839 C.ar      1 <0>        -0.1267
      7 C6         -1.8950   -2.8060    0.6157 C.ar      1 <0>         0.1435
      8 C7         -0.7194   -2.0685    0.6943 C.ar      1 <0>         0.0408
      9 O2          0.4670   -2.6973    0.9161 O.3       1 <0>        -0.3203
     10 C8          0.8635   -2.8729    2.2777 C.3       1 <0>         0.0391
     11 O3         -1.8618   -4.1578    0.7609 O.3       1 <0>        -0.3180
     12 C9         -1.6745   -4.9332   -0.4247 C.3       1 <0>         0.0390
     13 C10        -4.3752   -2.9613    0.2924 C.3       1 <0>         0.1081
     14 N1         -4.8487   -3.2844    1.6450 N.3       1 <0>        -0.5270
     15 C11        -5.2529   -2.0692    2.3658 C.3       1 <0>         0.0586
     16 C12        -5.6633   -2.4387    3.7932 C.3       1 <0>         0.0581
     17 N2         -6.7642   -3.4111    3.7474 N.3       1 <0>        -0.5290
     18 C13        -6.3600   -4.6263    3.0266 C.3       1 <0>         0.0583
     19 C14        -5.9496   -4.2568    1.5992 C.3       1 <0>         0.0612
     20 C15        -7.2377   -3.7342    5.0999 C.3       1 <0>         0.1707
     21 C16        -7.6653   -2.4690    5.7981 C.ar      1 <0>        -0.0893
     22 C17        -8.4250   -1.5311    5.1240 C.ar      1 <0>        -0.0614
     23 C18        -8.8180   -0.3707    5.7634 C.ar      1 <0>        -0.1565
     24 C19        -8.4507   -0.1476    7.0796 C.ar      1 <0>         0.1005
     25 C20        -7.6897   -1.0876    7.7537 C.ar      1 <0>        -0.1535
     26 C21        -7.3023   -2.2497    7.1139 C.ar      1 <0>        -0.0821
     27 F1         -8.8340    0.9867    7.7055 F         1 <0>        -0.1397
     28 C22        -8.4087   -4.6786    5.0100 C.ar      1 <0>        -0.0891
     29 C23        -9.4122   -4.4485    4.0874 C.ar      1 <0>        -0.0607
     30 C24       -10.4863   -5.3141    4.0036 C.ar      1 <0>        -0.1565
     31 C25       -10.5570   -6.4121    4.8442 C.ar      1 <0>         0.1006
     32 C26        -9.5514   -6.6415    5.7678 C.ar      1 <0>        -0.1536
     33 C27        -8.4756   -5.7774    5.8462 C.ar      1 <0>        -0.0821
     34 F2        -11.6068   -7.2587    4.7635 F         1 <0>        -0.1397
     35 H1          1.2559    1.9131    0.5666 H         1 <0>         0.1030
     36 H2         -0.1486    1.6800   -0.5018 H         1 <0>         0.0577
     37 H3         -0.3849    1.8536    1.2539 H         1 <0>         0.0568
     38 H4         -2.0014    1.0231    0.2057 H         1 <0>         0.1362
     39 H5         -4.0767   -0.2893    0.0570 H         1 <0>         0.1311
     40 H6          1.8245   -3.3861    2.3130 H         1 <0>         0.0927
     41 H7          0.9540   -1.8988    2.7583 H         1 <0>         0.0440
     42 H8          0.1145   -3.4678    2.8004 H         1 <0>         0.0488
     43 H9         -1.6673   -5.9927   -0.1685 H         1 <0>         0.0952
     44 H10        -2.4882   -4.7334   -1.1218 H         1 <0>         0.0441
     45 H11        -0.7250   -4.6650   -0.8880 H         1 <0>         0.0506
     46 H12        -5.1339   -2.3770   -0.2282 H         1 <0>         0.0443
     47 H13        -4.1869   -3.8839   -0.2567 H         1 <0>         0.0828
     48 H14        -4.4172   -1.3701    2.3971 H         1 <0>         0.0799
     49 H15        -6.0961   -1.6059    1.8533 H         1 <0>         0.0417
     50 H16        -4.8122   -2.8771    4.3143 H         1 <0>         0.0445
     51 H17        -5.9910   -1.5429    4.3207 H         1 <0>         0.0824
     52 H18        -5.5169   -5.0896    3.5390 H         1 <0>         0.0460
     53 H19        -7.1957   -5.3254    2.9953 H         1 <0>         0.0831
     54 H20        -6.8007   -3.8184    1.0781 H         1 <0>         0.0425
     55 H21        -5.6219   -5.1526    1.0717 H         1 <0>         0.0801
     56 H22        -6.4329   -4.2061    5.6636 H         1 <0>         0.0625
     57 H23        -8.7111   -1.7052    4.0973 H         1 <0>         0.1389
     58 H24        -9.4113    0.3620    5.2365 H         1 <0>         0.1354
     59 H25        -7.4023   -0.9145    8.7802 H         1 <0>         0.1358
     60 H26        -6.7125   -2.9852    7.6409 H         1 <0>         0.1309
     61 H27        -9.3570   -3.5918    3.4320 H         1 <0>         0.1386
     62 H28       -11.2703   -5.1340    3.2830 H         1 <0>         0.1353
     63 H29        -9.6057   -7.4974    6.4242 H         1 <0>         0.1358
     64 H30        -7.6889   -5.9586    6.5635 H         1 <0>         0.1309
@<TRIPOS>BOND
     1    1    2 1
     2    1   35 1
     3    1   36 1
     4    1   37 1
     5    2    3 1
     6    3    8 ar
     7    3    4 ar
     8    4    5 ar
     9    4   38 1
    10    5    6 ar
    11    5   39 1
    12    6    7 ar
    13    6   13 1
    14    7    8 ar
    15    7   11 1
    16    8    9 1
    17    9   10 1
    18   10   40 1
    19   10   41 1
    20   10   42 1
    21   11   12 1
    22   12   43 1
    23   12   44 1
    24   12   45 1
    25   13   14 1
    26   13   46 1
    27   13   47 1
    28   14   19 1
    29   14   15 1
    30   15   16 1
    31   15   48 1
    32   15   49 1
    33   16   17 1
    34   16   50 1
    35   16   51 1
    36   17   18 1
    37   17   20 1
    38   18   19 1
    39   18   52 1
    40   18   53 1
    41   19   54 1
    42   19   55 1
    43   20   21 1
    44   20   28 1
    45   20   56 1
    46   21   26 ar
    47   21   22 ar
    48   22   23 ar
    49   22   57 1
    50   23   24 ar
    51   23   58 1
    52   24   25 ar
    53   24   27 1
    54   25   26 ar
    55   25   59 1
    56   26   60 1
    57   28   33 ar
    58   28   29 ar
    59   29   30 ar
    60   29   61 1
    61   30   31 ar
    62   30   62 1
    63   31   32 ar
    64   31   34 1
    65   32   33 ar
    66   32   63 1
    67   33   64 1
@<TRIPOS>MOLECULE
ZINC19362693
   65    68     0     0     0
SMALL
USER_CHARGES

@<TRIPOS>ATOM
      1 C1         -0.0173    1.4248    0.0099 C.3       1 <0>         0.0222
      2 O1          0.0021   -0.0041    0.0020 O.3       1 <0>        -0.3011
      3 C2          0.6062   -0.6075   -1.0565 C.ar      1 <0>         0.1348
      4 C3          1.1731    0.1602   -2.0627 C.ar      1 <0>        -0.2036
      5 C4          1.7869   -0.4521   -3.1391 C.ar      1 <0>        -0.0662
      6 C5          1.8384   -1.8314   -3.2174 C.ar      1 <0>        -0.1466
      7 C6          1.2741   -2.6061   -2.2156 C.ar      1 <0>         0.1455
      8 C7          0.6613   -1.9942   -1.1284 C.ar      1 <0>         0.0441
      9 O2          0.1111   -2.7510   -0.1402 O.3       1 <0>        -0.3185
     10 C8         -1.2598   -3.1234   -0.2952 C.3       1 <0>         0.0397
     11 O3          1.3245   -3.9629   -2.2941 O.3       1 <0>        -0.3218
     12 C9          2.4563   -4.6053   -1.7037 C.3       1 <0>         0.0368
     13 C10         2.5085   -2.4938   -4.3936 C.3       1 <0>         0.1115
     14 N1          1.4883   -2.9312   -5.3559 N.3       1 <0>        -0.5265
     15 C11         0.8011   -1.7786   -5.9552 C.3       1 <0>         0.0255
     16 C12        -0.2911   -2.2767   -6.9043 C.3       1 <0>        -0.0035
     17 N2          0.3135   -3.1080   -7.9535 N.4       1 <0>        -0.3850
     18 C13         0.9748   -4.2679   -7.3413 C.3       1 <0>        -0.0039
     19 C14         2.0776   -3.7863   -6.3959 C.3       1 <0>         0.0298
     20 C15        -0.7330   -3.5711   -8.8746 C.3       1 <0>         0.1387
     21 C16        -1.4105   -2.3814   -9.5043 C.ar      1 <0>        -0.1475
     22 C17        -0.6613   -1.2884   -9.8983 C.ar      1 <0>        -0.0904
     23 C18        -1.2814   -0.1970  -10.4762 C.ar      1 <0>        -0.1396
     24 C19        -2.6537   -0.1984  -10.6605 C.ar      1 <0>         0.1328
     25 C20        -3.4031   -1.2936  -10.2654 C.ar      1 <0>        -0.1404
     26 C21        -2.7800   -2.3861   -9.6925 C.ar      1 <0>        -0.0533
     27 F1         -3.2611    0.8683  -11.2250 F         1 <0>        -0.1225
     28 C22        -0.1130   -4.4241   -9.9513 C.ar      1 <0>        -0.1472
     29 C23         1.1064   -4.0688  -10.4973 C.ar      1 <0>        -0.0909
     30 C24         1.6761   -4.8504  -11.4844 C.ar      1 <0>        -0.1392
     31 C25         1.0253   -5.9898  -11.9263 C.ar      1 <0>         0.1329
     32 C26        -0.1959   -6.3447  -11.3787 C.ar      1 <0>        -0.1401
     33 C27        -0.7612   -5.5643  -10.3880 C.ar      1 <0>        -0.0534
     34 F2          1.5811   -6.7545  -12.8915 F         1 <0>        -0.1224
     35 H1          1.0053    1.8021    0.0021 H         1 <0>         0.0605
     36 H2         -0.5445    1.7859   -0.8732 H         1 <0>         0.0581
     37 H3         -0.5275    1.7763    0.9067 H         1 <0>         0.1078
     38 H4          1.1346    1.2380   -2.0054 H         1 <0>         0.1396
     39 H5          2.2271    0.1485   -3.9213 H         1 <0>         0.1311
     40 H6         -1.5723   -3.7231    0.5597 H         1 <0>         0.0966
     41 H7         -1.8756   -2.2260   -0.3541 H         1 <0>         0.0456
     42 H8         -1.3771   -3.7052   -1.2095 H         1 <0>         0.0475
     43 H9          2.3721   -5.6839   -1.8364 H         1 <0>         0.0983
     44 H10         3.3676   -4.2500   -2.1848 H         1 <0>         0.0446
     45 H11         2.4925   -4.3719   -0.6396 H         1 <0>         0.0550
     46 H12         3.1817   -1.7845   -4.8750 H         1 <0>         0.0557
     47 H13         3.0769   -3.3577   -4.0488 H         1 <0>         0.0956
     48 H14         0.3508   -1.1739   -5.1680 H         1 <0>         0.1251
     49 H15         1.5191   -1.1760   -6.5115 H         1 <0>         0.0590
     50 H16        -1.0164   -2.8679   -6.3451 H         1 <0>         0.1413
     51 H17        -0.7927   -1.4234   -7.3608 H         1 <0>         0.1354
     52 H18         0.2431   -4.8489   -6.7799 H         1 <0>         0.1423
     53 H19         1.4118   -4.8908   -8.1218 H         1 <0>         0.1363
     54 H20         2.8166   -3.2168   -6.9594 H         1 <0>         0.0589
     55 H21         2.5586   -4.6464   -5.9302 H         1 <0>         0.1259
     56 H22        -1.4678   -4.1584   -8.3240 H         1 <0>         0.1541
     57 H23         0.4091   -1.2874   -9.7542 H         1 <0>         0.1249
     58 H24        -0.6959    0.6569  -10.7837 H         1 <0>         0.1492
     59 H25        -4.4735   -1.2956  -10.4084 H         1 <0>         0.1516
     60 H26        -3.3638   -3.2423   -9.3884 H         1 <0>         0.1456
     61 H27         1.6137   -3.1798  -10.1527 H         1 <0>         0.1247
     62 H28         2.6285   -4.5725  -11.9111 H         1 <0>         0.1492
     63 H29        -0.7046   -7.2330  -11.7229 H         1 <0>         0.1516
     64 H30        -1.7116   -5.8433   -9.9576 H         1 <0>         0.1456
     65 H31         0.9932   -2.5639   -8.4635 H         1 <0>         0.4125
@<TRIPOS>BOND
     1    1    2 1
     2    1   35 1
     3    1   36 1
     4    1   37 1
     5    2    3 1
     6    3    8 ar
     7    3    4 ar
     8    4    5 ar
     9    4   38 1
    10    5    6 ar
    11    5   39 1
    12    6    7 ar
    13    6   13 1
    14    7    8 ar
    15    7   11 1
    16    8    9 1
    17    9   10 1
    18   10   40 1
    19   10   41 1
    20   10   42 1
    21   11   12 1
    22   12   43 1
    23   12   44 1
    24   12   45 1
    25   13   14 1
    26   13   46 1
    27   13   47 1
    28   14   19 1
    29   14   15 1
    30   15   16 1
    31   15   48 1
    32   15   49 1
    33   16   17 1
    34   16   50 1
    35   16   51 1
    36   17   18 1
    37   17   20 1
    38   17   65 1
    39   18   19 1
    40   18   52 1
    41   18   53 1
    42   19   54 1
    43   19   55 1
    44   20   21 1
    45   20   28 1
    46   20   56 1
    47   21   26 ar
    48   21   22 ar
    49   22   23 ar
    50   22   57 1
    51   23   24 ar
    52   23   58 1
    53   24   25 ar
    54   24   27 1
    55   25   26 ar
    56   25   59 1
    57   26   60 1
    58   28   33 ar
    59   28   29 ar
    60   29   30 ar
    61   29   61 1
    62   30   31 ar
    63   30   62 1
    64   31   32 ar
    65   31   34 1
    66   32   33 ar
    67   32   63 1
    68   33   64 1
@<TRIPOS>MOLECULE
ZINC19360739
   57    60     0     0     0
SMALL
USER_CHARGES

@<TRIPOS>ATOM
      1 C1         -0.5652    1.2485    0.7222 C.ar      1 <0>        -0.0943
      2 C2          0.5404    2.0554    0.9232 C.ar      1 <0>        -0.1192
      3 C3          1.8064    1.5069    0.9299 C.ar      1 <0>        -0.0897
      4 C4          1.9702    0.1352    0.7340 C.ar      1 <0>        -0.1001
      5 C5          0.8509   -0.6733    0.5323 C.ar      1 <0>        -0.0995
      6 C6         -0.4096   -0.1123    0.5274 C.ar      1 <0>        -0.1213
      7 C7          3.3236   -0.4590    0.7395 C.2       1 <0>        -0.0129
      8 C8          3.4760   -1.7626    0.5530 C.2       1 <0>        -0.2547
      9 C9          4.8559   -2.3684    0.5587 C.3       1 <0>         0.0399
     10 N1          4.9108   -3.4522    1.5488 N.4       1 <0>        -0.3851
     11 C10         4.0101   -4.5370    1.1373 C.3       1 <0>        -0.0024
     12 C11         4.0527   -5.6581    2.1781 C.3       1 <0>         0.0240
     13 N2          5.4291   -6.1596    2.2975 N.3       1 <0>        -0.5314
     14 C12         6.3467   -5.0788    2.6848 C.3       1 <0>         0.0243
     15 C13         6.2851   -3.9625    1.6399 C.3       1 <0>        -0.0015
     16 C14         5.5014   -7.2775    3.2479 C.3       1 <0>         0.1826
     17 C15         4.5657   -8.3733    2.8066 C.ar      1 <0>        -0.1088
     18 C16         4.5143   -8.7433    1.4756 C.ar      1 <0>        -0.0655
     19 C17         3.6570   -9.7484    1.0699 C.ar      1 <0>        -0.1560
     20 C18         2.8492  -10.3848    1.9971 C.ar      1 <0>         0.1127
     21 C19         2.9015  -10.0133    3.3299 C.ar      1 <0>        -0.1509
     22 C20         3.7634   -9.0115    3.7341 C.ar      1 <0>        -0.0777
     23 F1          2.0103  -11.3671    1.6015 F         1 <0>        -0.1328
     24 C21         6.9111   -7.8084    3.2926 C.ar      1 <0>        -0.1084
     25 C22         7.6132   -8.0036    2.1178 C.ar      1 <0>        -0.0645
     26 C23         8.9061   -8.4900    2.1575 C.ar      1 <0>        -0.1560
     27 C24         9.4983   -8.7818    3.3746 C.ar      1 <0>         0.1126
     28 C25         8.7941   -8.5859    4.5506 C.ar      1 <0>        -0.1509
     29 C26         7.5032   -8.0944    4.5086 C.ar      1 <0>        -0.0782
     30 F2         10.7620   -9.2578    3.4147 F         1 <0>        -0.1329
     31 H1         -1.5544    1.6820    0.7219 H         1 <0>         0.1310
     32 H2          0.4123    3.1170    1.0747 H         1 <0>         0.1321
     33 H3          2.6688    2.1380    1.0862 H         1 <0>         0.1292
     34 H4          0.9711   -1.7357    0.3797 H         1 <0>         0.1229
     35 H5         -1.2767   -0.7369    0.3711 H         1 <0>         0.1300
     36 H6          4.1884    0.1689    0.8954 H         1 <0>         0.1304
     37 H7          2.6112   -2.3905    0.3971 H         1 <0>         0.1361
     38 H8          5.0814   -2.7678   -0.4301 H         1 <0>         0.1357
     39 H9          5.5877   -1.6029    0.8169 H         1 <0>         0.1303
     40 H10         2.9927   -4.1539    1.0575 H         1 <0>         0.1348
     41 H11         4.3285   -4.9266    0.1704 H         1 <0>         0.1381
     42 H12         3.7213   -5.2722    3.1421 H         1 <0>         0.0629
     43 H13         3.3957   -6.4697    1.8655 H         1 <0>         0.1264
     44 H14         6.0531   -4.6834    3.6572 H         1 <0>         0.0632
     45 H15         7.3633   -5.4679    2.7419 H         1 <0>         0.1267
     46 H16         6.5919   -4.3551    0.6704 H         1 <0>         0.1386
     47 H17         6.9545   -3.1536    1.9326 H         1 <0>         0.1357
     48 H18         5.2123   -6.9303    4.2398 H         1 <0>         0.0722
     49 H19         5.1443   -8.2466    0.7526 H         1 <0>         0.1382
     50 H20         3.6168  -10.0371    0.0300 H         1 <0>         0.1392
     51 H21         2.2716  -10.5087    4.0539 H         1 <0>         0.1406
     52 H22         3.8076   -8.7246    4.7744 H         1 <0>         0.1329
     53 H23         7.1509   -7.7762    1.1685 H         1 <0>         0.1380
     54 H24         9.4543   -8.6427    1.2396 H         1 <0>         0.1391
     55 H25         9.2549   -8.8135    5.5005 H         1 <0>         0.1405
     56 H26         6.9553   -7.9373    5.4260 H         1 <0>         0.1327
     57 H27         4.6228   -3.0997    2.4493 H         1 <0>         0.4211
@<TRIPOS>BOND
     1    1    6 ar
     2    1    2 ar
     3    1   31 1
     4    2    3 ar
     5    2   32 1
     6    3    4 ar
     7    3   33 1
     8    4    5 ar
     9    4    7 1
    10    5    6 ar
    11    5   34 1
    12    6   35 1
    13    7    8 2
    14    7   36 1
    15    8    9 1
    16    8   37 1
    17    9   10 1
    18    9   38 1
    19    9   39 1
    20   10   15 1
    21   10   11 1
    22   10   57 1
    23   11   12 1
    24   11   40 1
    25   11   41 1
    26   12   13 1
    27   12   42 1
    28   12   43 1
    29   13   14 1
    30   13   16 1
    31   14   15 1
    32   14   44 1
    33   14   45 1
    34   15   46 1
    35   15   47 1
    36   16   17 1
    37   16   24 1
    38   16   48 1
    39   17   22 ar
    40   17   18 ar
    41   18   19 ar
    42   18   49 1
    43   19   20 ar
    44   19   50 1
    45   20   21 ar
    46   20   23 1
    47   21   22 ar
    48   21   51 1
    49   22   52 1
    50   24   29 ar
    51   24   25 ar
    52   25   26 ar
    53   25   53 1
    54   26   27 ar
    55   26   54 1
    56   27   28 ar
    57   27   30 1
    58   28   29 ar
    59   28   55 1
    60   29   56 1
@<TRIPOS>MOLECULE
ZINC19360739
   57    60     0     0     0
SMALL
USER_CHARGES

@<TRIPOS>ATOM
      1 C1         -0.0167    1.3792    0.0096 C.ar      1 <0>        -0.1111
      2 C2          1.1683    2.0931    0.0021 C.ar      1 <0>        -0.1174
      3 C3          2.3774    1.4286   -0.0134 C.ar      1 <0>        -0.1032
      4 C4          2.4032    0.0335   -0.0212 C.ar      1 <0>        -0.0719
      5 C5          1.2045   -0.6806   -0.0131 C.ar      1 <0>        -0.1113
      6 C6          0.0021   -0.0041    0.0020 C.ar      1 <0>        -0.1199
      7 C7          3.6950   -0.6848   -0.0384 C.2       1 <0>        -0.0777
      8 C8          3.7162   -2.0103   -0.0457 C.2       1 <0>        -0.1693
      9 C9          5.0332   -2.7426   -0.0633 C.3       1 <0>         0.0894
     10 N1          5.0868   -3.6810    1.0657 N.3       1 <0>        -0.5336
     11 C10         4.0942   -4.7533    0.9069 C.3       1 <0>         0.0249
     12 C11         4.1414   -5.6730    2.1290 C.3       1 <0>        -0.0045
     13 N2          5.4882   -6.2444    2.2603 N.4       1 <0>        -0.3853
     14 C12         6.4652   -5.1629    2.4428 C.3       1 <0>        -0.0043
     15 C13         6.4373   -4.2389    1.2233 C.3       1 <0>         0.0273
     16 C14         5.5281   -7.1413    3.4231 C.3       1 <0>         0.1390
     17 C15         4.5271   -8.2520    3.2353 C.ar      1 <0>        -0.1483
     18 C16         4.3690   -8.8365    1.9925 C.ar      1 <0>        -0.0905
     19 C17         3.4516   -9.8555    1.8192 C.ar      1 <0>        -0.1395
     20 C18         2.6908  -10.2910    2.8909 C.ar      1 <0>         0.1333
     21 C19         2.8500   -9.7049    4.1352 C.ar      1 <0>        -0.1404
     22 C20         3.7717   -8.6896    4.3073 C.ar      1 <0>        -0.0532
     23 F1          1.7934  -11.2868    2.7225 F         1 <0>        -0.1222
     24 C21         6.9097   -7.7277    3.5580 C.ar      1 <0>        -0.1479
     25 C22         7.6094   -8.1138    2.4299 C.ar      1 <0>        -0.0911
     26 C23         8.8766   -8.6513    2.5523 C.ar      1 <0>        -0.1392
     27 C24         9.4456   -8.8030    3.8055 C.ar      1 <0>         0.1332
     28 C25         8.7439   -8.4159    4.9346 C.ar      1 <0>        -0.1401
     29 C26         7.4789   -7.8738    4.8093 C.ar      1 <0>        -0.0534
     30 F2         10.6842   -9.3287    3.9264 F         1 <0>        -0.1221
     31 H1         -0.9604    1.9041    0.0260 H         1 <0>         0.1259
     32 H2          1.1469    3.1729    0.0082 H         1 <0>         0.1273
     33 H3          3.3018    1.9870   -0.0200 H         1 <0>         0.1256
     34 H4          1.2178   -1.7605   -0.0194 H         1 <0>         0.1202
     35 H5         -0.9265   -0.5556    0.0079 H         1 <0>         0.1249
     36 H6          4.6214   -0.1298   -0.0450 H         1 <0>         0.1212
     37 H7          2.7898   -2.5653   -0.0392 H         1 <0>         0.1156
     38 H8          5.1300   -3.2938   -0.9987 H         1 <0>         0.0564
     39 H9          5.8492   -2.0250    0.0217 H         1 <0>         0.0932
     40 H10         3.0991   -4.3175    0.8179 H         1 <0>         0.1259
     41 H11         4.3212   -5.3289    0.0096 H         1 <0>         0.0604
     42 H12         3.9011   -5.0999    3.0245 H         1 <0>         0.1416
     43 H13         3.4159   -6.4772    2.0068 H         1 <0>         0.1365
     44 H14         6.2129   -4.5924    3.3367 H         1 <0>         0.1418
     45 H15         7.4624   -5.5889    2.5531 H         1 <0>         0.1369
     46 H16         6.7029   -4.8061    0.3311 H         1 <0>         0.0602
     47 H17         7.1516   -3.4279    1.3651 H         1 <0>         0.1261
     48 H18         5.2824   -6.5792    4.3241 H         1 <0>         0.1543
     49 H19         4.9623   -8.4964    1.1566 H         1 <0>         0.1248
     50 H20         3.3280  -10.3117    0.8481 H         1 <0>         0.1494
     51 H21         2.2569  -10.0435    4.9717 H         1 <0>         0.1518
     52 H22         3.8993   -8.2353    5.2787 H         1 <0>         0.1457
     53 H23         7.1652   -7.9958    1.4525 H         1 <0>         0.1247
     54 H24         9.4229   -8.9532    1.6709 H         1 <0>         0.1494
     55 H25         9.1866   -8.5340    5.9126 H         1 <0>         0.1518
     56 H26         6.9332   -7.5676    5.6896 H         1 <0>         0.1457
     57 H27         5.7151   -6.7652    1.4264 H         1 <0>         0.4130
@<TRIPOS>BOND
     1    1    6 ar
     2    1    2 ar
     3    1   31 1
     4    2    3 ar
     5    2   32 1
     6    3    4 ar
     7    3   33 1
     8    4    5 ar
     9    4    7 1
    10    5    6 ar
    11    5   34 1
    12    6   35 1
    13    7    8 2
    14    7   36 1
    15    8    9 1
    16    8   37 1
    17    9   10 1
    18    9   38 1
    19    9   39 1
    20   10   15 1
    21   10   11 1
    22   11   12 1
    23   11   40 1
    24   11   41 1
    25   12   13 1
    26   12   42 1
    27   12   43 1
    28   13   14 1
    29   13   16 1
    30   13   57 1
    31   14   15 1
    32   14   44 1
    33   14   45 1
    34   15   46 1
    35   15   47 1
    36   16   17 1
    37   16   24 1
    38   16   48 1
    39   17   22 ar
    40   17   18 ar
    41   18   19 ar
    42   18   49 1
    43   19   20 ar
    44   19   50 1
    45   20   21 ar
    46   20   23 1
    47   21   22 ar
    48   21   51 1
    49   22   52 1
    50   24   29 ar
    51   24   25 ar
    52   25   26 ar
    53   25   53 1
    54   26   27 ar
    55   26   54 1
    56   27   28 ar
    57   27   30 1
    58   28   29 ar
    59   28   55 1
    60   29   56 1
@<TRIPOS>MOLECULE
ZINC19360739
   56    59     0     0     0
SMALL
USER_CHARGES

@<TRIPOS>ATOM
      1 C1         -0.6450    1.2067    0.7385 C.ar      1 <0>        -0.1212
      2 C2          0.4537    2.0253    0.9303 C.ar      1 <0>        -0.1188
      3 C3          1.7253    1.4899    0.9286 C.ar      1 <0>        -0.1101
      4 C4          1.9018    0.1196    0.7332 C.ar      1 <0>        -0.0554
      5 C5          0.7895   -0.7006    0.5408 C.ar      1 <0>        -0.1151
      6 C6         -0.4768   -0.1527    0.5444 C.ar      1 <0>        -0.1183
      7 C7          3.2613   -0.4606    0.7297 C.2       1 <0>        -0.1106
      8 C8          3.4257   -1.7628    0.5439 C.2       1 <0>        -0.1355
      9 C9          4.8118   -2.3544    0.5403 C.3       1 <0>         0.0846
     10 N1          4.8851   -3.4361    1.5314 N.3       1 <0>        -0.5355
     11 C10         4.0261   -4.5640    1.1446 C.3       1 <0>         0.0568
     12 C11         4.0688   -5.6331    2.2389 C.3       1 <0>         0.0566
     13 N2          5.4567   -6.0748    2.4347 N.3       1 <0>        -0.5294
     14 C12         6.3157   -4.9470    2.8216 C.3       1 <0>         0.0574
     15 C13         6.2730   -3.8778    1.7272 C.3       1 <0>         0.0585
     16 C14         5.5300   -7.1566    3.4259 C.3       1 <0>         0.1710
     17 C15         4.6571   -8.3028    2.9839 C.ar      1 <0>        -0.0902
     18 C16         4.6784   -8.7188    1.6657 C.ar      1 <0>        -0.0616
     19 C17         3.8787   -9.7702    1.2594 C.ar      1 <0>        -0.1564
     20 C18         3.0561  -10.4069    2.1731 C.ar      1 <0>         0.1011
     21 C19         3.0356   -9.9894    3.4931 C.ar      1 <0>        -0.1535
     22 C20         3.8401   -8.9412    3.8983 C.ar      1 <0>        -0.0820
     23 F1          2.2736  -11.4345    1.7769 F         1 <0>        -0.1394
     24 C21         6.9556   -7.6292    3.5490 C.ar      1 <0>        -0.0900
     25 C22         7.7154   -7.8360    2.4127 C.ar      1 <0>        -0.0609
     26 C23         9.0230   -8.2690    2.5245 C.ar      1 <0>        -0.1564
     27 C24         9.5721   -8.4957    3.7751 C.ar      1 <0>         0.1010
     28 C25         8.8102   -8.2884    4.9125 C.ar      1 <0>        -0.1536
     29 C26         7.5045   -7.8503    4.7985 C.ar      1 <0>        -0.0822
     30 F2         10.8502   -8.9195    3.8855 F         1 <0>        -0.1394
     31 H1         -1.6385    1.6300    0.7449 H         1 <0>         0.1219
     32 H2          0.3157    3.0857    1.0814 H         1 <0>         0.1233
     33 H3          2.5822    2.1300    1.0777 H         1 <0>         0.1236
     34 H4          0.9195   -1.7619    0.3888 H         1 <0>         0.1224
     35 H5         -1.3385   -0.7864    0.3952 H         1 <0>         0.1228
     36 H6          4.1206    0.1764    0.8785 H         1 <0>         0.1188
     37 H7          2.5664   -2.3998    0.3951 H         1 <0>         0.1136
     38 H8          5.0342   -2.7529   -0.4496 H         1 <0>         0.0473
     39 H9          5.5375   -1.5811    0.7921 H         1 <0>         0.0809
     40 H10         3.0016   -4.2141    1.0178 H         1 <0>         0.0804
     41 H11         4.3842   -4.9889    0.2069 H         1 <0>         0.0440
     42 H12         3.6851   -5.2160    3.1700 H         1 <0>         0.0452
     43 H13         3.4552   -6.4833    1.9409 H         1 <0>         0.0839
     44 H14         5.9575   -4.5220    3.7593 H         1 <0>         0.0455
     45 H15         7.3402   -5.2969    2.9483 H         1 <0>         0.0841
     46 H16         6.6566   -4.2950    0.7961 H         1 <0>         0.0443
     47 H17         6.8865   -3.0277    2.0252 H         1 <0>         0.0807
     48 H18         5.1846   -6.7883    4.3919 H         1 <0>         0.0629
     49 H19         5.3199   -8.2218    0.9531 H         1 <0>         0.1388
     50 H20         3.8952  -10.0948    0.2295 H         1 <0>         0.1357
     51 H21         2.3941  -10.4851    4.2066 H         1 <0>         0.1360
     52 H22         3.8276   -8.6183    4.9288 H         1 <0>         0.1311
     53 H23         7.2867   -7.6593    1.4373 H         1 <0>         0.1386
     54 H24         9.6162   -8.4307    1.6366 H         1 <0>         0.1356
     55 H25         9.2374   -8.4652    5.8885 H         1 <0>         0.1360
     56 H26         6.9114   -7.6842    5.6856 H         1 <0>         0.1310
@<TRIPOS>BOND
     1    1    6 ar
     2    1    2 ar
     3    1   31 1
     4    2    3 ar
     5    2   32 1
     6    3    4 ar
     7    3   33 1
     8    4    5 ar
     9    4    7 1
    10    5    6 ar
    11    5   34 1
    12    6   35 1
    13    7    8 2
    14    7   36 1
    15    8    9 1
    16    8   37 1
    17    9   10 1
    18    9   38 1
    19    9   39 1
    20   10   15 1
    21   10   11 1
    22   11   12 1
    23   11   40 1
    24   11   41 1
    25   12   13 1
    26   12   42 1
    27   12   43 1
    28   13   14 1
    29   13   16 1
    30   14   15 1
    31   14   44 1
    32   14   45 1
    33   15   46 1
    34   15   47 1
    35   16   17 1
    36   16   24 1
    37   16   48 1
    38   17   22 ar
    39   17   18 ar
    40   18   19 ar
    41   18   49 1
    42   19   20 ar
    43   19   50 1
    44   20   21 ar
    45   20   23 1
    46   21   22 ar
    47   21   51 1
    48   22   52 1
    49   24   29 ar
    50   24   25 ar
    51   25   26 ar
    52   25   53 1
    53   26   27 ar
    54   26   54 1
    55   27   28 ar
    56   27   30 1
    57   28   29 ar
    58   28   55 1
    59   29   56 1
@<TRIPOS>MOLECULE
ZINC13779555
   35    35     0     0     0
SMALL
USER_CHARGES

@<TRIPOS>ATOM
      1 C1         -0.6122    1.0966   -0.4514 C.3       1 <0>        -0.1488
      2 C2         -0.2455   -0.3820   -0.3087 C.3       1 <0>        -0.0916
      3 H1          0.4413   -0.6646   -1.1064 H         1 <0>         0.0763
      4 C3         -1.5135   -1.2331   -0.4020 C.3       1 <0>        -0.1105
      5 C4         -1.1469   -2.7117   -0.2593 C.3       1 <0>        -0.0919
      6 H2         -0.4600   -2.9943   -1.0570 H         1 <0>         0.0735
      7 C5         -0.4764   -2.9423    1.0965 C.3       1 <0>        -0.1092
      8 C6          0.7915   -2.0911    1.1899 C.3       1 <0>        -0.0533
      9 C7          0.4249   -0.6126    1.0471 C.3       1 <0>        -0.1178
     10 C8          1.7557   -2.4879    0.0701 C.3       1 <0>        -0.2008
     11 C9          2.1553   -3.9311    0.2392 C.2       1 <0>         0.4823
     12 O1          1.6505   -4.6041    1.1216 O.co2     1 <0>        -0.6828
     13 O2          2.9835   -4.4257   -0.5065 O.co2     1 <0>        -0.6780
     14 C10         1.4620   -2.3218    2.5457 C.3       1 <0>        -0.0117
     15 N1          2.7458   -1.6089    2.5847 N.4       1 <0>        -0.6360
     16 C11        -2.4148   -3.5628   -0.3526 C.3       1 <0>        -0.1464
     17 H3          0.2912    1.7030   -0.3849 H         1 <0>         0.0518
     18 H4         -1.0898    1.2609   -1.4173 H         1 <0>         0.0577
     19 H5         -1.2990    1.3793    0.3464 H         1 <0>         0.0539
     20 H6         -2.2004   -0.9505    0.3958 H         1 <0>         0.0610
     21 H7         -1.9911   -1.0688   -1.3679 H         1 <0>         0.0622
     22 H8         -1.1633   -2.6596    1.8943 H         1 <0>         0.0534
     23 H9         -0.2152   -3.9956    1.1982 H         1 <0>         0.1164
     24 H10         1.3282   -0.0062    1.1136 H         1 <0>         0.0485
     25 H11        -0.2620   -0.3299    1.8449 H         1 <0>         0.0703
     26 H12         1.2655   -2.3573   -0.8947 H         1 <0>         0.0904
     27 H13         2.6437   -1.8574    0.1148 H         1 <0>         0.0485
     28 H14         0.8147   -1.9484    3.3392 H         1 <0>         0.1165
     29 H15         1.6342   -3.3885    2.6890 H         1 <0>         0.1696
     30 H16         3.3409   -1.9469    1.8433 H         1 <0>         0.4352
     31 H17         2.5853   -0.6202    2.4628 H         1 <0>         0.4196
     32 H18        -2.8925   -3.3985   -1.3185 H         1 <0>         0.0526
     33 H19        -2.1536   -4.6162   -0.2509 H         1 <0>         0.0589
     34 H20        -3.1017   -3.2802    0.4451 H         1 <0>         0.0515
     35 H21         3.1930   -1.7698    3.4747 H         1 <0>         0.4286
@<TRIPOS>BOND
     1    1    2 1
     2    1   17 1
     3    1   18 1
     4    1   19 1
     5    2    3 1
     6    2    9 1
     7    2    4 1
     8    4    5 1
     9    4   20 1
    10    4   21 1
    11    5    6 1
    12    5    7 1
    13    5   16 1
    14    7    8 1
    15    7   22 1
    16    7   23 1
    17    8    9 1
    18    8   10 1
    19    8   14 1
    20    9   24 1
    21    9   25 1
    22   10   11 1
    23   10   26 1
    24   10   27 1
    25   11   12 2
    26   11   13 1
    27   14   15 1
    28   14   28 1
    29   14   29 1
    30   15   30 1
    31   15   31 1
    32   15   35 1
    33   16   32 1
    34   16   33 1
    35   16   34 1
@<TRIPOS>MOLECULE
ZINC35622996
   66    70     0     0     0
SMALL
USER_CHARGES

@<TRIPOS>ATOM
      1 C1          0.6124    0.2403    1.9337 C.ar      1 <0>        -0.1189
      2 C2          1.7769    0.9836    1.8866 C.ar      1 <0>        -0.1203
      3 C3          2.9798    0.3662    1.5987 C.ar      1 <0>        -0.1128
      4 C4          3.0182   -0.9946    1.3585 C.ar      1 <0>        -0.0759
      5 C5          1.8537   -1.7380    1.4065 C.ar      1 <0>        -0.0909
      6 C6          0.6507   -1.1204    1.6929 C.ar      1 <0>        -0.1241
      7 C7          4.3293   -1.6675    1.0437 C.3       1 <0>         0.1676
      8 C8          4.8572   -2.3436    2.2828 C.ar      1 <0>        -0.0756
      9 C9          4.3609   -3.5768    2.6619 C.ar      1 <0>        -0.0895
     10 C10         4.8451   -4.1970    3.7985 C.ar      1 <0>        -0.1245
     11 C11         5.8259   -3.5841    4.5557 C.ar      1 <0>        -0.1189
     12 C12         6.3228   -2.3513    4.1761 C.ar      1 <0>        -0.1205
     13 C13         5.8416   -1.7331    3.0371 C.ar      1 <0>        -0.1129
     14 N1          4.1248   -2.6691   -0.0113 N.3       1 <0>        -0.5287
     15 C14         3.5252   -2.0599   -1.2067 C.3       1 <0>         0.0571
     16 C15         3.2557   -3.1474   -2.2494 C.3       1 <0>         0.0612
     17 N2          4.5160   -3.8255   -2.5832 N.3       1 <0>        -0.5224
     18 C16         5.1156   -4.4346   -1.3878 C.3       1 <0>         0.0573
     19 C17         5.3852   -3.3472   -0.3451 C.3       1 <0>         0.0612
     20 C18         4.3115   -4.8271   -3.6382 C.3       1 <0>         0.0436
     21 C19         5.6483   -5.3238   -4.1252 C.2       1 <0>         0.5223
     22 O1          6.6703   -4.8154   -3.7150 O.2       1 <0>        -0.4906
     23 N3          5.7083   -6.3330   -5.0165 N.am      1 <0>        -0.5318
     24 C20         6.9493   -6.8582   -5.3970 C.ar      1 <0>         0.1405
     25 C21         7.7224   -7.5536   -4.4765 C.ar      1 <0>        -0.1064
     26 C22         8.9460   -8.0703   -4.8549 C.ar      1 <0>        -0.1082
     27 C23         9.4018   -7.8955   -6.1487 C.ar      1 <0>        -0.1163
     28 C24         8.6344   -7.2036   -7.0677 C.ar      1 <0>        -0.1088
     29 C25         7.4071   -6.6897   -6.6972 C.ar      1 <0>        -0.1140
     30 C26         4.5296   -6.8563   -5.5620 C.ar      1 <0>         0.1280
     31 C27         3.7558   -6.0833   -6.4177 C.ar      1 <0>        -0.1224
     32 C28         2.5938   -6.6023   -6.9540 C.ar      1 <0>        -0.1044
     33 C29         2.2003   -7.8901   -6.6395 C.ar      1 <0>        -0.1144
     34 C30         2.9686   -8.6624   -5.7877 C.ar      1 <0>        -0.1049
     35 C31         4.1349   -8.1514   -5.2529 C.ar      1 <0>        -0.1138
     36 H1         -0.3267    0.7218    2.1630 H         1 <0>         0.1201
     37 H2          1.7469    2.0467    2.0743 H         1 <0>         0.1213
     38 H3          3.8895    0.9471    1.5612 H         1 <0>         0.1185
     39 H4          1.8836   -2.8011    1.2181 H         1 <0>         0.1284
     40 H5         -0.2591   -1.7012    1.7301 H         1 <0>         0.1208
     41 H6          5.0476   -0.9219    0.7026 H         1 <0>         0.0578
     42 H7          3.5947   -4.0556    2.0703 H         1 <0>         0.1281
     43 H8          4.4569   -5.1602    4.0950 H         1 <0>         0.1205
     44 H9          6.2037   -4.0683    5.4441 H         1 <0>         0.1200
     45 H10         7.0888   -1.8723    4.7679 H         1 <0>         0.1212
     46 H11         6.2325   -0.7716    2.7385 H         1 <0>         0.1183
     47 H12         2.5872   -1.5750   -0.9362 H         1 <0>         0.0869
     48 H13         4.2108   -1.3208   -1.6210 H         1 <0>         0.0446
     49 H14         2.5489   -3.8719   -1.8449 H         1 <0>         0.0454
     50 H15         2.8376   -2.6938   -3.1481 H         1 <0>         0.0810
     51 H16         4.4300   -5.1738   -0.9735 H         1 <0>         0.0390
     52 H17         6.0536   -4.9195   -1.6584 H         1 <0>         0.0905
     53 H18         6.0919   -2.6226   -0.7496 H         1 <0>         0.0456
     54 H19         5.8032   -3.8007    0.5536 H         1 <0>         0.0835
     55 H20         3.7367   -5.6628   -3.2392 H         1 <0>         0.0665
     56 H21         3.7676   -4.3752   -4.4677 H         1 <0>         0.1073
     57 H22         7.3673   -7.6898   -3.4657 H         1 <0>         0.1210
     58 H23         9.5477   -8.6112   -4.1395 H         1 <0>         0.1280
     59 H24        10.3593   -8.2999   -6.4420 H         1 <0>         0.1266
     60 H25         8.9932   -7.0684   -8.0773 H         1 <0>         0.1280
     61 H26         6.8062   -6.1532   -7.4166 H         1 <0>         0.1234
     62 H27         4.0623   -5.0772   -6.6632 H         1 <0>         0.1267
     63 H28         1.9916   -6.0017   -7.6196 H         1 <0>         0.1304
     64 H29         1.2908   -8.2935   -7.0596 H         1 <0>         0.1281
     65 H30         2.6584   -9.6677   -5.5436 H         1 <0>         0.1296
     66 H31         4.7369   -8.7566   -4.5913 H         1 <0>         0.1259
@<TRIPOS>BOND
     1    1    6 ar
     2    1    2 ar
     3    1   36 1
     4    2    3 ar
     5    2   37 1
     6    3    4 ar
     7    3   38 1
     8    4    5 ar
     9    4    7 1
    10    5    6 ar
    11    5   39 1
    12    6   40 1
    13    7    8 1
    14    7   14 1
    15    7   41 1
    16    8   13 ar
    17    8    9 ar
    18    9   10 ar
    19    9   42 1
    20   10   11 ar
    21   10   43 1
    22   11   12 ar
    23   11   44 1
    24   12   13 ar
    25   12   45 1
    26   13   46 1
    27   14   19 1
    28   14   15 1
    29   15   16 1
    30   15   47 1
    31   15   48 1
    32   16   17 1
    33   16   49 1
    34   16   50 1
    35   17   18 1
    36   17   20 1
    37   18   19 1
    38   18   51 1
    39   18   52 1
    40   19   53 1
    41   19   54 1
    42   20   21 1
    43   20   55 1
    44   20   56 1
    45   21   22 2
    46   21   23 am
    47   23   24 1
    48   23   30 1
    49   24   29 ar
    50   24   25 ar
    51   25   26 ar
    52   25   57 1
    53   26   27 ar
    54   26   58 1
    55   27   28 ar
    56   27   59 1
    57   28   29 ar
    58   28   60 1
    59   29   61 1
    60   30   35 ar
    61   30   31 ar
    62   31   32 ar
    63   31   62 1
    64   32   33 ar
    65   32   63 1
    66   33   34 ar
    67   33   64 1
    68   34   35 ar
    69   34   65 1
    70   35   66 1
@<TRIPOS>MOLECULE
ZINC35622996
   67    71     0     0     0
SMALL
USER_CHARGES

@<TRIPOS>ATOM
      1 C1          0.5417    0.2171    1.9429 C.ar      1 <0>        -0.1099
      2 C2          1.7069    0.9602    1.9102 C.ar      1 <0>        -0.1150
      3 C3          2.9119    0.3442    1.6284 C.ar      1 <0>        -0.1092
      4 C4          2.9517   -1.0150    1.3797 C.ar      1 <0>        -0.0929
      5 C5          1.7867   -1.7583    1.4132 C.ar      1 <0>        -0.0971
      6 C6          0.5815   -1.1420    1.6936 C.ar      1 <0>        -0.1215
      7 C7          4.2652   -1.6865    1.0715 C.3       1 <0>         0.1785
      8 C8          4.7825   -2.3708    2.3105 C.ar      1 <0>        -0.0925
      9 C9          4.2826   -3.6063    2.6775 C.ar      1 <0>        -0.0951
     10 C10         4.7570   -4.2340    3.8140 C.ar      1 <0>        -0.1219
     11 C11         5.7317   -3.6265    4.5833 C.ar      1 <0>        -0.1099
     12 C12         6.2322   -2.3914    4.2159 C.ar      1 <0>        -0.1153
     13 C13         5.7608   -1.7657    3.0770 C.ar      1 <0>        -0.1094
     14 N1          4.0691   -2.6811    0.0084 N.3       1 <0>        -0.5303
     15 C14         3.4818   -2.0635   -1.1890 C.3       1 <0>         0.0239
     16 C15         3.2390   -3.1410   -2.2481 C.3       1 <0>        -0.0005
     17 N2          4.5120   -3.7914   -2.5860 N.4       1 <0>        -0.3740
     18 C16         5.0740   -4.4245   -1.3856 C.3       1 <0>        -0.0094
     19 C17         5.3321   -3.3577   -0.3193 C.3       1 <0>         0.0297
     20 C18         4.2812   -4.8132   -3.6158 C.3       1 <0>        -0.0271
     21 C19         5.6016   -5.3949   -4.0509 C.2       1 <0>         0.5095
     22 O1          6.6384   -4.9284   -3.6287 O.2       1 <0>        -0.5042
     23 N3          5.6302   -6.4336   -4.9093 N.am      1 <0>        -0.4928
     24 C20         6.8505   -7.0360   -5.2390 C.ar      1 <0>         0.1144
     25 C21         7.5604   -7.7421   -4.2766 C.ar      1 <0>        -0.1023
     26 C22         8.7637   -8.3351   -4.6049 C.ar      1 <0>        -0.1057
     27 C23         9.2621   -8.2259   -5.8902 C.ar      1 <0>        -0.1018
     28 C24         8.5576   -7.5235   -6.8508 C.ar      1 <0>        -0.1049
     29 C25         7.3507   -6.9335   -6.5304 C.ar      1 <0>        -0.1056
     30 C26         4.4396   -6.9104   -5.4714 C.ar      1 <0>         0.0914
     31 C27         3.7311   -6.1244   -6.3706 C.ar      1 <0>        -0.1269
     32 C28         2.5571   -6.5974   -6.9233 C.ar      1 <0>        -0.1006
     33 C29         2.0868   -7.8522   -6.5817 C.ar      1 <0>        -0.0995
     34 C30         2.7900   -8.6373   -5.6866 C.ar      1 <0>        -0.0992
     35 C31         3.9679   -8.1725   -5.1352 C.ar      1 <0>        -0.1041
     36 H1         -0.3991    0.6976    2.1674 H         1 <0>         0.1253
     37 H2          1.6758    2.0221    2.1046 H         1 <0>         0.1262
     38 H3          3.8221    0.9248    1.6023 H         1 <0>         0.1208
     39 H4          1.8177   -2.8201    1.2182 H         1 <0>         0.1276
     40 H5         -0.3288   -1.7226    1.7194 H         1 <0>         0.1245
     41 H6          4.9866   -0.9391    0.7412 H         1 <0>         0.0677
     42 H7          3.5211   -4.0809    2.0764 H         1 <0>         0.1271
     43 H8          4.3660   -5.1989    4.1011 H         1 <0>         0.1241
     44 H9          6.1019   -4.1166    5.4717 H         1 <0>         0.1251
     45 H10         6.9934   -1.9166    4.8171 H         1 <0>         0.1261
     46 H11         6.1546   -0.8024    2.7878 H         1 <0>         0.1205
     47 H12         2.5351   -1.5909   -0.9273 H         1 <0>         0.1308
     48 H13         4.1665   -1.3129   -1.5840 H         1 <0>         0.0633
     49 H14         2.5437   -3.8841   -1.8577 H         1 <0>         0.1409
     50 H15         2.8166   -2.6827   -3.1424 H         1 <0>         0.1379
     51 H16         4.3693   -5.1610   -0.9996 H         1 <0>         0.1357
     52 H17         6.0119   -4.9179   -1.6405 H         1 <0>         0.1455
     53 H18         6.0472   -2.6285   -0.7000 H         1 <0>         0.0639
     54 H19         5.7352   -3.8293    0.5769 H         1 <0>         0.1277
     55 H20         3.6523   -5.6045   -3.2080 H         1 <0>         0.1619
     56 H21         3.7840   -4.3593   -4.4730 H         1 <0>         0.1617
     57 H22         7.1720   -7.8271   -3.2725 H         1 <0>         0.1223
     58 H23         9.3162   -8.8843   -3.8570 H         1 <0>         0.1340
     59 H24        10.2037   -8.6899   -6.1443 H         1 <0>         0.1336
     60 H25         8.9497   -7.4397   -7.8536 H         1 <0>         0.1346
     61 H26         6.7988   -6.3888   -7.2822 H         1 <0>         0.1260
     62 H27         4.0975   -5.1440   -6.6373 H         1 <0>         0.1276
     63 H28         2.0056   -5.9866   -7.6227 H         1 <0>         0.1368
     64 H29         1.1681   -8.2196   -7.0147 H         1 <0>         0.1358
     65 H30         2.4199   -9.6167   -5.4216 H         1 <0>         0.1372
     66 H31         4.5190   -8.7879   -4.4395 H         1 <0>         0.1312
     67 H32         5.1593   -3.1014   -2.9365 H         1 <0>         0.4278
@<TRIPOS>BOND
     1    1    6 ar
     2    1    2 ar
     3    1   36 1
     4    2    3 ar
     5    2   37 1
     6    3    4 ar
     7    3   38 1
     8    4    5 ar
     9    4    7 1
    10    5    6 ar
    11    5   39 1
    12    6   40 1
    13    7    8 1
    14    7   14 1
    15    7   41 1
    16    8   13 ar
    17    8    9 ar
    18    9   10 ar
    19    9   42 1
    20   10   11 ar
    21   10   43 1
    22   11   12 ar
    23   11   44 1
    24   12   13 ar
    25   12   45 1
    26   13   46 1
    27   14   19 1
    28   14   15 1
    29   15   16 1
    30   15   47 1
    31   15   48 1
    32   16   17 1
    33   16   49 1
    34   16   50 1
    35   17   18 1
    36   17   20 1
    37   17   67 1
    38   18   19 1
    39   18   51 1
    40   18   52 1
    41   19   53 1
    42   19   54 1
    43   20   21 1
    44   20   55 1
    45   20   56 1
    46   21   22 2
    47   21   23 am
    48   23   24 1
    49   23   30 1
    50   24   29 ar
    51   24   25 ar
    52   25   26 ar
    53   25   57 1
    54   26   27 ar
    55   26   58 1
    56   27   28 ar
    57   27   59 1
    58   28   29 ar
    59   28   60 1
    60   29   61 1
    61   30   35 ar
    62   30   31 ar
    63   31   32 ar
    64   31   62 1
    65   32   33 ar
    66   32   63 1
    67   33   34 ar
    68   33   64 1
    69   34   35 ar
    70   34   65 1
    71   35   66 1
@<TRIPOS>MOLECULE
ZINC35622996
   67    71     0     0     0
SMALL
USER_CHARGES

@<TRIPOS>ATOM
      1 C1         -0.9257    0.8582   -0.4083 C.ar      1 <0>        -0.0925
      2 C2          0.1849    1.6810   -0.3911 C.ar      1 <0>        -0.1031
      3 C3          1.4522    1.1306   -0.3473 C.ar      1 <0>        -0.0861
      4 C4          1.6088   -0.2426   -0.3201 C.ar      1 <0>        -0.1305
      5 C5          0.4981   -1.0654   -0.3363 C.ar      1 <0>        -0.1219
      6 C6         -0.7691   -0.5150   -0.3816 C.ar      1 <0>        -0.1028
      7 C7          2.9904   -0.8427   -0.2732 C.3       1 <0>         0.1336
      8 C8          3.3154   -1.2455    1.1421 C.ar      1 <0>        -0.1306
      9 C9          2.8256   -2.4332    1.6524 C.ar      1 <0>        -0.1221
     10 C10         3.1237   -2.8027    2.9507 C.ar      1 <0>        -0.1028
     11 C11         3.9120   -1.9848    3.7384 C.ar      1 <0>        -0.0925
     12 C12         4.4025   -0.7976    3.2278 C.ar      1 <0>        -0.1030
     13 C13         4.1080   -0.4301    1.9281 C.ar      1 <0>        -0.0861
     14 N1          3.0402   -2.0256   -1.1428 N.4       1 <0>        -0.3843
     15 C14         2.7217   -1.6330   -2.5219 C.3       1 <0>        -0.0027
     16 C15         2.7551   -2.8681   -3.4247 C.3       1 <0>         0.0300
     17 N2          4.0911   -3.4778   -3.3668 N.3       1 <0>        -0.5209
     18 C16         4.4341   -3.8535   -1.9879 C.3       1 <0>         0.0240
     19 C17         4.3870   -2.6102   -1.0969 C.3       1 <0>         0.0000
     20 C18         4.1806   -4.6361   -4.2658 C.3       1 <0>         0.0402
     21 C19         5.6162   -5.0828   -4.3682 C.2       1 <0>         0.5208
     22 O1          6.4934   -4.4296   -3.8438 O.2       1 <0>        -0.4953
     23 N3          5.9254   -6.2080   -5.0425 N.am      1 <0>        -0.5177
     24 C20         4.9312   -6.8971   -5.7479 C.ar      1 <0>         0.1147
     25 C21         4.3321   -6.3125   -6.8559 C.ar      1 <0>        -0.1249
     26 C22         3.3517   -6.9947   -7.5494 C.ar      1 <0>        -0.1029
     27 C23         2.9663   -8.2584   -7.1413 C.ar      1 <0>        -0.1091
     28 C24         3.5610   -8.8434   -6.0384 C.ar      1 <0>        -0.1026
     29 C25         4.5463   -8.1689   -5.3442 C.ar      1 <0>        -0.1118
     30 C26         7.2408   -6.6880   -5.0378 C.ar      1 <0>         0.1329
     31 C27         7.8754   -6.9671   -3.8345 C.ar      1 <0>        -0.1075
     32 C28         9.1728   -7.4403   -3.8331 C.ar      1 <0>        -0.1055
     33 C29         9.8402   -7.6360   -5.0284 C.ar      1 <0>        -0.1142
     34 C30         9.2111   -7.3591   -6.2283 C.ar      1 <0>        -0.1036
     35 C31         7.9116   -6.8915   -6.2366 C.ar      1 <0>        -0.1170
     36 H1         -1.9160    1.2882   -0.4381 H         1 <0>         0.1359
     37 H2          0.0626    2.7538   -0.4124 H         1 <0>         0.1375
     38 H3          2.3200    1.7734   -0.3346 H         1 <0>         0.1336
     39 H4          0.6205   -2.1382   -0.3158 H         1 <0>         0.1134
     40 H5         -1.6369   -1.1579   -0.3947 H         1 <0>         0.1349
     41 H6          3.7177   -0.1075   -0.6179 H         1 <0>         0.1494
     42 H7          2.2097   -3.0722    1.0370 H         1 <0>         0.1131
     43 H8          2.7404   -3.7302    3.3497 H         1 <0>         0.1348
     44 H9          4.1443   -2.2732    4.7530 H         1 <0>         0.1360
     45 H10         5.0181   -0.1584    3.8434 H         1 <0>         0.1376
     46 H11         4.4943    0.4956    1.5280 H         1 <0>         0.1336
     47 H12         1.7274   -1.1874   -2.5523 H         1 <0>         0.1387
     48 H13         3.4559   -0.9073   -2.8718 H         1 <0>         0.1415
     49 H14         2.0115   -3.5883   -3.0833 H         1 <0>         0.0620
     50 H15         2.5334   -2.5746   -4.4508 H         1 <0>         0.1273
     51 H16         3.7183   -4.5899   -1.6228 H         1 <0>         0.0571
     52 H17         5.4374   -4.2789   -1.9658 H         1 <0>         0.1345
     53 H18         5.1126   -1.8795   -1.4541 H         1 <0>         0.1423
     54 H19         4.6272   -2.8892   -0.0710 H         1 <0>         0.1370
     55 H20         3.5740   -5.4508   -3.8702 H         1 <0>         0.0787
     56 H21         3.8152   -4.3579   -5.2543 H         1 <0>         0.1215
     57 H22         4.6322   -5.3252   -7.1747 H         1 <0>         0.1270
     58 H23         2.8854   -6.5405   -8.4112 H         1 <0>         0.1330
     59 H24         2.1990   -8.7896   -7.6849 H         1 <0>         0.1315
     60 H25         3.2575   -9.8304   -5.7219 H         1 <0>         0.1326
     61 H26         5.0135   -8.6280   -4.4856 H         1 <0>         0.1271
     62 H27         7.3549   -6.8138   -2.9006 H         1 <0>         0.1188
     63 H28         9.6669   -7.6575   -2.8976 H         1 <0>         0.1296
     64 H29        10.8550   -8.0055   -5.0247 H         1 <0>         0.1296
     65 H30         9.7352   -7.5126   -7.1601 H         1 <0>         0.1311
     66 H31         7.4193   -6.6796   -7.1742 H         1 <0>         0.1246
     67 H32         2.3673   -2.7062   -0.8233 H         1 <0>         0.4125
@<TRIPOS>BOND
     1    1    6 ar
     2    1    2 ar
     3    1   36 1
     4    2    3 ar
     5    2   37 1
     6    3    4 ar
     7    3   38 1
     8    4    5 ar
     9    4    7 1
    10    5    6 ar
    11    5   39 1
    12    6   40 1
    13    7    8 1
    14    7   14 1
    15    7   41 1
    16    8   13 ar
    17    8    9 ar
    18    9   10 ar
    19    9   42 1
    20   10   11 ar
    21   10   43 1
    22   11   12 ar
    23   11   44 1
    24   12   13 ar
    25   12   45 1
    26   13   46 1
    27   14   19 1
    28   14   15 1
    29   14   67 1
    30   15   16 1
    31   15   47 1
    32   15   48 1
    33   16   17 1
    34   16   49 1
    35   16   50 1
    36   17   18 1
    37   17   20 1
    38   18   19 1
    39   18   51 1
    40   18   52 1
    41   19   53 1
    42   19   54 1
    43   20   21 1
    44   20   55 1
    45   20   56 1
    46   21   22 2
    47   21   23 am
    48   23   24 1
    49   23   30 1
    50   24   29 ar
    51   24   25 ar
    52   25   26 ar
    53   25   57 1
    54   26   27 ar
    55   26   58 1
    56   27   28 ar
    57   27   59 1
    58   28   29 ar
    59   28   60 1
    60   29   61 1
    61   30   35 ar
    62   30   31 ar
    63   31   32 ar
    64   31   62 1
    65   32   33 ar
    66   32   63 1
    67   33   34 ar
    68   33   64 1
    69   34   35 ar
    70   34   65 1
    71   35   66 1
@<TRIPOS>MOLECULE
ZINC20509316
   67    71     0     0     0
SMALL
USER_CHARGES
1-(4-benzhydrylpiperazin-1-yl)-3,3-diphenyl-propan-1-one
@<TRIPOS>ATOM
      1 C1          0.5982    6.8259    5.8150 C.ar      1 <0>        -0.1240
      2 C2          0.4841    5.4559    5.6697 C.ar      1 <0>        -0.1206
      3 C3          1.2639    4.7920    4.7413 C.ar      1 <0>        -0.1217
      4 C4          2.1582    5.4980    3.9585 C.ar      1 <0>        -0.0582
      5 C5          2.2764    6.8672    4.1078 C.ar      1 <0>        -0.0915
      6 C6          1.4928    7.5318    5.0325 C.ar      1 <0>        -0.1188
      7 C7          3.0087    4.7742    2.9466 C.3       1 <0>         0.0070
      8 C8          2.1147    3.9152    2.0501 C.3       1 <0>        -0.1320
      9 C9          1.2072    4.8075    1.2429 C.2       1 <0>         0.5166
     10 O1          1.2694    6.0118    1.3720 O.2       1 <0>        -0.5267
     11 N1          0.3265    4.2671    0.3775 N.am      1 <0>        -0.6162
     12 C10         0.2358    2.8091    0.2052 C.3       1 <0>         0.1112
     13 C11         0.3236    2.4895   -1.2909 C.3       1 <0>         0.0400
     14 N2         -0.6920    3.2655   -2.0151 N.3       1 <0>        -0.5261
     15 C12        -0.4482    4.7088   -1.8914 C.3       1 <0>         0.0413
     16 C13        -0.5682    5.1195   -0.4199 C.3       1 <0>         0.1182
     17 C14        -0.7562    2.8615   -3.4260 C.3       1 <0>         0.1685
     18 C15        -1.1058    1.3982   -3.5140 C.ar      1 <0>        -0.0767
     19 C16        -2.1362    0.8865   -2.7477 C.ar      1 <0>        -0.0888
     20 C17        -2.4600   -0.4548   -2.8321 C.ar      1 <0>        -0.1232
     21 C18        -1.7470   -1.2863   -3.6753 C.ar      1 <0>        -0.1175
     22 C19        -0.7129   -0.7756   -4.4375 C.ar      1 <0>        -0.1204
     23 C20        -0.3925    0.5667   -4.3570 C.ar      1 <0>        -0.1134
     24 C21        -1.8104    3.6733   -4.1335 C.ar      1 <0>        -0.0780
     25 C22        -3.0502    3.8551   -3.5498 C.ar      1 <0>        -0.0900
     26 C23        -4.0155    4.6038   -4.1967 C.ar      1 <0>        -0.1230
     27 C24        -3.7445    5.1624   -5.4318 C.ar      1 <0>        -0.1172
     28 C25        -2.5066    4.9758   -6.0181 C.ar      1 <0>        -0.1201
     29 C26        -1.5394    4.2315   -5.3688 C.ar      1 <0>        -0.1130
     30 C27         3.9988    3.8917    3.6620 C.ar      1 <0>        -0.0746
     31 C28         3.5572    2.7888    4.3687 C.ar      1 <0>        -0.1145
     32 C29         4.4659    1.9765    5.0209 C.ar      1 <0>        -0.1173
     33 C30         5.8153    2.2729    4.9748 C.ar      1 <0>        -0.1217
     34 C31         6.2564    3.3791    4.2729 C.ar      1 <0>        -0.1168
     35 C32         5.3482    4.1884    3.6163 C.ar      1 <0>        -0.1122
     36 H1         -0.0113    7.3446    6.5401 H         1 <0>         0.1185
     37 H2         -0.2146    4.9044    6.2813 H         1 <0>         0.1186
     38 H3          1.1748    3.7217    4.6277 H         1 <0>         0.1162
     39 H4          2.9782    7.4182    3.4993 H         1 <0>         0.1184
     40 H5          1.5822    8.6021    5.1463 H         1 <0>         0.1194
     41 H6          3.5565    5.5132    2.3434 H         1 <0>         0.0946
     42 H7          2.7415    3.3188    1.3708 H         1 <0>         0.0985
     43 H8          1.5076    3.2428    2.6740 H         1 <0>         0.0973
     44 H9          1.0646    2.3242    0.7418 H         1 <0>         0.0894
     45 H10        -0.7223    2.4509    0.6099 H         1 <0>         0.0791
     46 H11         1.3239    2.7541   -1.6643 H         1 <0>         0.0400
     47 H12         0.1462    1.4152   -1.4474 H         1 <0>         0.0932
     48 H13         0.5625    4.9426   -2.2573 H         1 <0>         0.0389
     49 H14        -1.1906    5.2586   -2.4885 H         1 <0>         0.0932
     50 H15        -1.6046    4.9857   -0.0763 H         1 <0>         0.0741
     51 H16        -0.2750    6.1728   -0.2992 H         1 <0>         0.0968
     52 H17         0.2296    3.0436   -3.8789 H         1 <0>         0.0565
     53 H18        -2.6906    1.5352   -2.0858 H         1 <0>         0.1282
     54 H19        -3.2677   -0.8538   -2.2364 H         1 <0>         0.1216
     55 H20        -1.9976   -2.3349   -3.7385 H         1 <0>         0.1206
     56 H21        -0.1556   -1.4253   -5.0960 H         1 <0>         0.1214
     57 H22         0.4154    0.9656   -4.9524 H         1 <0>         0.1180
     58 H23        -3.2634    3.4153   -2.5868 H         1 <0>         0.1284
     59 H24        -4.9828    4.7493   -3.7388 H         1 <0>         0.1219
     60 H25        -4.4999    5.7442   -5.9389 H         1 <0>         0.1209
     61 H26        -2.2949    5.4119   -6.9832 H         1 <0>         0.1216
     62 H27        -0.5723    4.0857   -5.8269 H         1 <0>         0.1181
     63 H28         2.5025    2.5595    4.4081 H         1 <0>         0.1207
     64 H29         4.1213    1.1125    5.5696 H         1 <0>         0.1220
     65 H30         6.5250    1.6404    5.4874 H         1 <0>         0.1213
     66 H31         7.3107    3.6109    4.2371 H         1 <0>         0.1223
     67 H32         5.6928    5.0526    3.0679 H         1 <0>         0.1217
@<TRIPOS>BOND
     1    1    6 ar
     2    1    2 ar
     3    1   36 1
     4    2    3 ar
     5    2   37 1
     6    3    4 ar
     7    3   38 1
     8    4    5 ar
     9    4    7 1
    10    5    6 ar
    11    5   39 1
    12    6   40 1
    13    7    8 1
    14    7   30 1
    15    7   41 1
    16    8    9 1
    17    8   42 1
    18    8   43 1
    19    9   10 2
    20    9   11 am
    21   11   16 1
    22   11   12 1
    23   12   13 1
    24   12   44 1
    25   12   45 1
    26   13   14 1
    27   13   46 1
    28   13   47 1
    29   14   15 1
    30   14   17 1
    31   15   16 1
    32   15   48 1
    33   15   49 1
    34   16   50 1
    35   16   51 1
    36   17   18 1
    37   17   24 1
    38   17   52 1
    39   18   23 ar
    40   18   19 ar
    41   19   20 ar
    42   19   53 1
    43   20   21 ar
    44   20   54 1
    45   21   22 ar
    46   21   55 1
    47   22   23 ar
    48   22   56 1
    49   23   57 1
    50   24   29 ar
    51   24   25 ar
    52   25   26 ar
    53   25   58 1
    54   26   27 ar
    55   26   59 1
    56   27   28 ar
    57   27   60 1
    58   28   29 ar
    59   28   61 1
    60   29   62 1
    61   30   35 ar
    62   30   31 ar
    63   31   32 ar
    64   31   63 1
    65   32   33 ar
    66   32   64 1
    67   33   34 ar
    68   33   65 1
    69   34   35 ar
    70   34   66 1
    71   35   67 1
@<TRIPOS>MOLECULE
ZINC00004949
   29    29     0     0     0
SMALL
USER_CHARGES

@<TRIPOS>ATOM
      1 C1          0.6128    1.8465    0.4180 C.3       1 <0>        -0.1212
      2 C2          2.1217    2.0368    0.2505 C.3       1 <0>        -0.1215
      3 C3          2.5530    1.5106   -1.1199 C.3       1 <0>        -0.1148
      4 C4          2.2117    0.0229   -1.2255 C.3       1 <0>        -0.0532
      5 C5          0.7029   -0.1674   -1.0580 C.3       1 <0>        -0.1230
      6 C6          0.2715    0.3588    0.3124 C.3       1 <0>        -0.1198
      7 C7          2.9479   -0.7484   -0.1283 C.3       1 <0>        -0.2013
      8 C8          4.4351   -0.6014   -0.3223 C.2       1 <0>         0.4819
      9 O1          4.8663    0.1222   -1.2038 O.co2     1 <0>        -0.6833
     10 O2          5.2072   -1.2060    0.4021 O.co2     1 <0>        -0.6777
     11 C9          2.6430   -0.5033   -2.5959 C.3       1 <0>        -0.0118
     12 N1          2.4374   -1.9569   -2.6492 N.4       1 <0>        -0.6359
     13 H1          0.3056    2.2214    1.3943 H         1 <0>         0.0621
     14 H2          0.0883    2.3960   -0.3637 H         1 <0>         0.0601
     15 H3          2.3648    3.0966    0.3257 H         1 <0>         0.0643
     16 H4          2.6462    1.4873    1.0322 H         1 <0>         0.0668
     17 H5          2.0285    2.0600   -1.9017 H         1 <0>         0.0535
     18 H6          3.6279    1.6461   -1.2393 H         1 <0>         0.1158
     19 H7          0.1783    0.3821   -1.8397 H         1 <0>         0.0699
     20 H8          0.4597   -1.2273   -1.1332 H         1 <0>         0.0484
     21 H9          0.7961   -0.1907    1.0941 H         1 <0>         0.0688
     22 H10        -0.8034    0.2233    0.4318 H         1 <0>         0.0628
     23 H11         2.6676   -0.3497    0.8467 H         1 <0>         0.0910
     24 H12         2.6771   -1.8029   -0.1811 H         1 <0>         0.0488
     25 H13         2.0481   -0.0235   -3.3731 H         1 <0>         0.1166
     26 H14         3.6978   -0.2795   -2.7556 H         1 <0>         0.1694
     27 H15         1.4593   -2.1635   -2.5123 H         1 <0>         0.4196
     28 H16         2.7320   -2.3055   -3.5491 H         1 <0>         0.4287
     29 H17         2.9797   -2.4001   -1.9229 H         1 <0>         0.4352
@<TRIPOS>BOND
     1    1    6 1
     2    1    2 1
     3    1   13 1
     4    1   14 1
     5    2    3 1
     6    2   15 1
     7    2   16 1
     8    3    4 1
     9    3   17 1
    10    3   18 1
    11    4    5 1
    12    4    7 1
    13    4   11 1
    14    5    6 1
    15    5   19 1
    16    5   20 1
    17    6   21 1
    18    6   22 1
    19    7    8 1
    20    7   23 1
    21    7   24 1
    22    8    9 2
    23    8   10 1
    24   11   12 1
    25   11   25 1
    26   11   26 1
    27   12   27 1
    28   12   28 1
    29   12   29 1
