@<TRIPOS>MOLECULE
ZINC26826387
   52    53     0     0     0
SMALL
USER_CHARGES

@<TRIPOS>ATOM
      1 C1          0.1262    1.4838    0.3406 C.3       1 <0>        -0.1181
      2 C2          0.0727   -0.0118    0.1634 C.2       1 <0>         0.2459
      3 C3         -1.1181   -0.6348    0.1353 C.2       1 <0>        -0.2636
      4 C4         -1.2197   -2.1226   -0.0473 C.3       1 <0>         0.0880
      5 H1         -1.9576   -2.5202    0.6495 H         1 <0>         0.1011
      6 C5          0.1063   -2.7815    0.2071 C.2       1 <0>        -0.2306
      7 C6          1.2480   -2.0724    0.2323 C.2       1 <0>         0.1904
      8 N1          1.2365   -0.7182    0.0276 N.pl3     1 <0>        -0.6295
      9 C7          2.5564   -2.7768    0.4831 C.3       1 <0>        -0.1324
     10 C8          0.1544   -4.1779    0.4251 C.2       1 <0>         0.5312
     11 O1         -0.2248   -4.6418    1.4843 O.2       1 <0>        -0.4936
     12 O2          0.6208   -4.9961   -0.5414 O.3       1 <0>        -0.3437
     13 C9          0.6409   -6.3955   -0.2529 C.3       1 <0>         0.0657
     14 C10         1.1972   -7.1568   -1.4578 C.3       1 <0>        -0.0942
     15 C11         2.6607   -6.7673   -1.6757 C.3       1 <0>        -0.1471
     16 C12         1.1032   -8.6616   -1.1982 C.3       1 <0>        -0.1482
     17 C13        -1.6584   -2.4206   -1.4579 C.ar      1 <0>        -0.0732
     18 C14        -0.8831   -2.0062   -2.5251 C.ar      1 <0>        -0.0488
     19 C15        -1.2854   -2.2795   -3.8188 C.ar      1 <0>        -0.1161
     20 C16        -2.4629   -2.9676   -4.0458 C.ar      1 <0>        -0.0560
     21 C17        -3.2375   -3.3827   -2.9790 C.ar      1 <0>        -0.0465
     22 C18        -2.8328   -3.1130   -1.6847 C.ar      1 <0>        -0.0389
     23 N2         -4.4984   -4.1189   -3.2220 N.pl3     1 <0>         0.0338
     24 O3         -4.8507   -4.3572   -4.3537 O.2       1 <0>        -0.1596
     25 O4         -5.1759   -4.4819   -2.2888 O.3       1 <0>        -0.1565
     26 C19        -2.3008    0.1266    0.2812 C.2       1 <0>         0.5194
     27 O5         -2.2337    1.3324    0.4302 O.2       1 <0>        -0.5192
     28 O6         -3.5040   -0.4841    0.2551 O.3       1 <0>        -0.3507
     29 C20        -4.6566    0.3465    0.4085 C.3       1 <0>         0.0365
     30 H2          1.1651    1.8135    0.3346 H         1 <0>         0.0655
     31 H3         -0.4127    1.9658   -0.4751 H         1 <0>         0.1038
     32 H4         -0.3353    1.7539    1.2905 H         1 <0>         0.1062
     33 H5          2.0561   -0.2573   -0.2104 H         1 <0>         0.4252
     34 H6          2.9646   -3.1325   -0.4629 H         1 <0>         0.0979
     35 H7          3.2596   -2.0837    0.9446 H         1 <0>         0.0859
     36 H8          2.3912   -3.6239    1.1489 H         1 <0>         0.0863
     37 H9          1.2732   -6.5783    0.6159 H         1 <0>         0.0695
     38 H10        -0.3725   -6.7379   -0.0432 H         1 <0>         0.0685
     39 H11         0.6180   -6.9044   -2.3461 H         1 <0>         0.0806
     40 H12         2.7278   -5.6952   -1.8607 H         1 <0>         0.0602
     41 H13         3.2400   -7.0197   -0.7875 H         1 <0>         0.0550
     42 H14         3.0571   -7.3097   -2.5341 H         1 <0>         0.0588
     43 H15         0.0606   -8.9391   -1.0430 H         1 <0>         0.0592
     44 H16         1.4995   -9.2039   -2.0566 H         1 <0>         0.0665
     45 H17         1.6824   -8.9140   -0.3100 H         1 <0>         0.0594
     46 H18         0.0367   -1.4687   -2.3478 H         1 <0>         0.1324
     47 H19        -0.6802   -1.9552   -4.6524 H         1 <0>         0.1468
     48 H20        -2.7777   -3.1806   -5.0567 H         1 <0>         0.1528
     49 H21        -3.4362   -3.4406   -0.8510 H         1 <0>         0.1525
     50 H22        -5.5556   -0.2686    0.3690 H         1 <0>         0.1015
     51 H23        -4.6094    0.8597    1.3689 H         1 <0>         0.0612
     52 H24        -4.6840    1.0820   -0.3955 H         1 <0>         0.0589
@<TRIPOS>BOND
     1    1    2 1
     2    1   30 1
     3    1   31 1
     4    1   32 1
     5    2    8 1
     6    2    3 2
     7    3    4 1
     8    3   26 1
     9    4    5 1
    10    4    6 1
    11    4   17 1
    12    6    7 2
    13    6   10 1
    14    7    8 1
    15    7    9 1
    16    8   33 1
    17    9   34 1
    18    9   35 1
    19    9   36 1
    20   10   11 2
    21   10   12 1
    22   12   13 1
    23   13   14 1
    24   13   37 1
    25   13   38 1
    26   14   15 1
    27   14   16 1
    28   14   39 1
    29   15   40 1
    30   15   41 1
    31   15   42 1
    32   16   43 1
    33   16   44 1
    34   16   45 1
    35   17   22 ar
    36   17   18 ar
    37   18   19 ar
    38   18   46 1
    39   19   20 ar
    40   19   47 1
    41   20   21 ar
    42   20   48 1
    43   21   22 ar
    44   21   23 1
    45   22   49 1
    46   23   24 2
    47   23   25 1
    48   26   27 2
    49   26   28 1
    50   28   29 1
    51   29   50 1
    52   29   51 1
    53   29   52 1
@<TRIPOS>MOLECULE
ZINC26826392
   52    53     0     0     0
SMALL
USER_CHARGES

@<TRIPOS>ATOM
      1 C1          0.2085    1.4968    0.1185 C.3       1 <0>        -0.1180
      2 C2          0.1127   -0.0059    0.0567 C.2       1 <0>         0.2459
      3 C3         -1.0907   -0.5985    0.1431 C.2       1 <0>        -0.2640
      4 C4         -1.2330   -2.0934    0.0953 C.3       1 <0>         0.0880
      5 H1         -2.0714   -2.3536   -0.5508 H         1 <0>         0.1000
      6 C5          0.0189   -2.7301   -0.4382 C.2       1 <0>        -0.2308
      7 C6          1.1779   -2.0522   -0.5013 C.2       1 <0>         0.1891
      8 N1          1.2512   -0.7500   -0.0923 N.pl3     1 <0>        -0.6277
      9 C7          2.4110   -2.7343   -1.0353 C.3       1 <0>        -0.1351
     10 C8         -0.0229   -4.0718   -0.8831 C.2       1 <0>         0.5321
     11 O1         -0.4513   -4.3320   -1.9919 O.2       1 <0>        -0.4926
     12 O2          0.4123   -5.0635   -0.0779 O.3       1 <0>        -0.3441
     13 C9          0.3410   -6.3949   -0.5920 C.3       1 <0>         0.0649
     14 C10         0.8743   -7.3750    0.4548 C.3       1 <0>        -0.0924
     15 C11        -0.0441   -7.3639    1.6785 C.3       1 <0>        -0.1479
     16 C12         0.9147   -8.7842   -0.1397 C.3       1 <0>        -0.1481
     17 C13        -1.4985   -2.6112    1.4854 C.ar      1 <0>        -0.0719
     18 C14        -0.5797   -2.3868    2.4939 C.ar      1 <0>        -0.0485
     19 C15        -0.8232   -2.8618    3.7688 C.ar      1 <0>        -0.1160
     20 C16        -1.9857   -3.5609    4.0357 C.ar      1 <0>        -0.0561
     21 C17        -2.9046   -3.7844    3.0278 C.ar      1 <0>        -0.0457
     22 C18        -2.6630   -3.3056    1.7535 C.ar      1 <0>        -0.0385
     23 N2         -4.1490   -4.5334    3.3135 N.pl3     1 <0>         0.0341
     24 O3         -4.3616   -4.9495    4.4285 O.2       1 <0>        -0.1596
     25 O4         -4.9528   -4.7289    2.4318 O.3       1 <0>        -0.1571
     26 C19        -2.2478    0.2024    0.2824 C.2       1 <0>         0.5194
     27 O5         -2.1476    1.4145    0.3230 O.2       1 <0>        -0.5192
     28 O6         -3.4632   -0.3774    0.3705 O.3       1 <0>        -0.3508
     29 C20        -4.5885    0.4923    0.5097 C.3       1 <0>         0.0365
     30 H2          1.2521    1.7984    0.0287 H         1 <0>         0.0656
     31 H3         -0.3669    1.9315   -0.6988 H         1 <0>         0.1067
     32 H4         -0.1904    1.8475    1.0704 H         1 <0>         0.1035
     33 H5          2.1157   -0.3530    0.0972 H         1 <0>         0.4247
     34 H6          2.4891   -2.5563   -2.1078 H         1 <0>         0.0940
     35 H7          3.2930   -2.3340   -0.5354 H         1 <0>         0.0869
     36 H8          2.3429   -3.8061   -0.8489 H         1 <0>         0.0908
     37 H9         -0.6955   -6.6397   -0.8242 H         1 <0>         0.0695
     38 H10         0.9431   -6.4674   -1.4977 H         1 <0>         0.0692
     39 H11         1.8797   -7.0773    0.7524 H         1 <0>         0.0815
     40 H12        -0.0729   -6.3600    2.1021 H         1 <0>         0.0588
     41 H13        -1.0495   -7.6616    1.3809 H         1 <0>         0.0540
     42 H14         0.3358   -8.0622    2.4243 H         1 <0>         0.0593
     43 H15         1.5689   -8.7922   -1.0115 H         1 <0>         0.0590
     44 H16         1.2946   -9.4825    0.6061 H         1 <0>         0.0666
     45 H17        -0.0908   -9.0820   -0.4373 H         1 <0>         0.0596
     46 H18         0.3284   -1.8407    2.2854 H         1 <0>         0.1319
     47 H19        -0.1052   -2.6871    4.5564 H         1 <0>         0.1465
     48 H20        -2.1757   -3.9326    5.0318 H         1 <0>         0.1525
     49 H21        -3.3828   -3.4771    0.9667 H         1 <0>         0.1519
     50 H22        -5.5010   -0.1008    0.5693 H         1 <0>         0.1015
     51 H23        -4.4799    1.0843    1.4185 H         1 <0>         0.0589
     52 H24        -4.6428    1.1570   -0.3525 H         1 <0>         0.0612
@<TRIPOS>BOND
     1    1    2 1
     2    1   30 1
     3    1   31 1
     4    1   32 1
     5    2    8 1
     6    2    3 2
     7    3    4 1
     8    3   26 1
     9    4    5 1
    10    4    6 1
    11    4   17 1
    12    6    7 2
    13    6   10 1
    14    7    8 1
    15    7    9 1
    16    8   33 1
    17    9   34 1
    18    9   35 1
    19    9   36 1
    20   10   11 2
    21   10   12 1
    22   12   13 1
    23   13   14 1
    24   13   37 1
    25   13   38 1
    26   14   15 1
    27   14   16 1
    28   14   39 1
    29   15   40 1
    30   15   41 1
    31   15   42 1
    32   16   43 1
    33   16   44 1
    34   16   45 1
    35   17   22 ar
    36   17   18 ar
    37   18   19 ar
    38   18   46 1
    39   19   20 ar
    40   19   47 1
    41   20   21 ar
    42   20   48 1
    43   21   22 ar
    44   21   23 1
    45   22   49 1
    46   23   24 2
    47   23   25 1
    48   26   27 2
    49   26   28 1
    50   28   29 1
    51   29   50 1
    52   29   51 1
    53   29   52 1
@<TRIPOS>MOLECULE
ZINC19361055
   64    68     0     0     0
SMALL
USER_CHARGES

@<TRIPOS>ATOM
      1 C1         -0.9467    0.1313   -0.9819 C.3       1 <0>         0.0256
      2 O1         -0.5538   -1.2133   -0.6997 O.3       1 <0>        -0.3241
      3 C2         -1.5433   -2.1413   -0.6194 C.ar      1 <0>         0.1300
      4 C3         -2.8650   -1.7665   -0.8140 C.ar      1 <0>        -0.2074
      5 C4         -3.8689   -2.7116   -0.7323 C.ar      1 <0>        -0.0718
      6 C5         -3.5576   -4.0306   -0.4568 C.ar      1 <0>        -0.1546
      7 C6         -2.2416   -4.4065   -0.2620 C.ar      1 <0>        -0.0537
      8 C7         -1.2333   -3.4659   -0.3483 C.ar      1 <0>        -0.1206
      9 C8          0.2017   -3.8775   -0.1421 C.3       1 <0>         0.1126
     10 N1          0.6164   -3.5390    1.2259 N.3       1 <0>        -0.6601
     11 C9          2.0132   -3.9268    1.4637 C.3       1 <0>         0.0857
     12 H1          2.2033   -4.9015    1.0143 H         1 <0>         0.1168
     13 C10         2.2770   -3.9961    2.9695 C.3       1 <0>         0.0405
     14 H2          2.5883   -5.0061    3.2360 H         1 <0>         0.1391
     15 N2          3.3320   -3.0491    3.3380 N.4       1 <0>        -0.3734
     16 C11         2.9249   -1.6769    3.0267 C.3       1 <0>        -0.0127
     17 C12         2.6825   -1.5305    1.5228 C.3       1 <0>        -0.1377
     18 C13         2.9497   -2.8825    0.8418 C.3       1 <0>        -0.1333
     19 C14         4.3979   -3.2940    1.1379 C.3       1 <0>        -0.1316
     20 C15         4.5852   -3.3826    2.6569 C.3       1 <0>        -0.0072
     21 C16         0.9948   -3.6438    3.7262 C.3       1 <0>         0.0059
     22 C17        -0.0483   -4.7000    3.4662 C.ar      1 <0>        -0.0395
     23 C18         0.2639   -6.0360    3.6346 C.ar      1 <0>        -0.1264
     24 C19        -0.6928   -7.0048    3.3961 C.ar      1 <0>        -0.1155
     25 C20        -1.9620   -6.6375    2.9896 C.ar      1 <0>        -0.1153
     26 C21        -2.2745   -5.3014    2.8220 C.ar      1 <0>        -0.1105
     27 C22        -1.3190   -4.3324    3.0647 C.ar      1 <0>        -0.0668
     28 C23         1.2853   -3.5778    5.2035 C.ar      1 <0>        -0.1274
     29 C24         0.9386   -2.4517    5.9264 C.ar      1 <0>        -0.1107
     30 C25         1.2051   -2.3911    7.2815 C.ar      1 <0>        -0.1084
     31 C26         1.8180   -3.4568    7.9137 C.ar      1 <0>        -0.1043
     32 C27         2.1640   -4.5832    7.1909 C.ar      1 <0>        -0.1090
     33 C28         1.8935   -4.6455    5.8367 C.ar      1 <0>        -0.1238
     34 H3         -0.0628    0.7681   -1.0185 H         1 <0>         0.1002
     35 H4         -1.4594    0.1659   -1.9432 H         1 <0>         0.0589
     36 H5         -1.6177    0.4856   -0.1994 H         1 <0>         0.0573
     37 H6         -3.1087   -0.7365   -1.0288 H         1 <0>         0.1280
     38 H7         -4.8978   -2.4203   -0.8833 H         1 <0>         0.1264
     39 H8         -4.3440   -4.7681   -0.3933 H         1 <0>         0.1257
     40 H9         -2.0011   -5.4371   -0.0466 H         1 <0>         0.1282
     41 H10         0.2969   -4.9525   -0.2952 H         1 <0>         0.0843
     42 H11         0.8366   -3.3514   -0.8549 H         1 <0>         0.0482
     43 H12         0.4766   -2.5576    1.4138 H         1 <0>         0.3456
     44 H13         2.0073   -1.4408    3.5655 H         1 <0>         0.1280
     45 H14         3.7110   -0.9876    3.3351 H         1 <0>         0.1305
     46 H15         1.6493   -1.2314    1.3467 H         1 <0>         0.0985
     47 H16         3.3573   -0.7775    1.1156 H         1 <0>         0.1028
     48 H17         2.7744   -2.8096   -0.2315 H         1 <0>         0.1182
     49 H18         4.6007   -4.2660    0.6883 H         1 <0>         0.1002
     50 H19         5.0803   -2.5499    0.7271 H         1 <0>         0.1006
     51 H20         5.3625   -2.6844    2.9674 H         1 <0>         0.1305
     52 H21         4.8838   -4.3961    2.9247 H         1 <0>         0.1291
     53 H22         0.6255   -2.6767    3.3850 H         1 <0>         0.1036
     54 H23         1.2555   -6.3230    3.9522 H         1 <0>         0.1094
     55 H24        -0.4487   -8.0487    3.5269 H         1 <0>         0.1193
     56 H25        -2.7093   -7.3945    2.8025 H         1 <0>         0.1201
     57 H26        -3.2660   -5.0145    2.5041 H         1 <0>         0.1195
     58 H27        -1.5642   -3.2883    2.9374 H         1 <0>         0.1121
     59 H28         0.4597   -1.6191    5.4325 H         1 <0>         0.1255
     60 H29         0.9349   -1.5111    7.8462 H         1 <0>         0.1306
     61 H30         2.0269   -3.4091    8.9722 H         1 <0>         0.1304
     62 H31         2.6431   -5.4156    7.6848 H         1 <0>         0.1302
     63 H32         2.1604   -5.5270    5.2727 H         1 <0>         0.1249
     64 H33         3.4834   -3.1113    4.3336 H         1 <0>         0.4228
@<TRIPOS>BOND
     1    1    2 1
     2    1   34 1
     3    1   35 1
     4    1   36 1
     5    2    3 1
     6    3    8 ar
     7    3    4 ar
     8    4    5 ar
     9    4   37 1
    10    5    6 ar
    11    5   38 1
    12    6    7 ar
    13    6   39 1
    14    7    8 ar
    15    7   40 1
    16    8    9 1
    17    9   10 1
    18    9   41 1
    19    9   42 1
    20   10   11 1
    21   10   43 1
    22   11   12 1
    23   11   18 1
    24   11   13 1
    25   13   14 1
    26   13   15 1
    27   13   21 1
    28   15   20 1
    29   15   16 1
    30   15   64 1
    31   16   17 1
    32   16   44 1
    33   16   45 1
    34   17   18 1
    35   17   46 1
    36   17   47 1
    37   18   19 1
    38   18   48 1
    39   19   20 1
    40   19   49 1
    41   19   50 1
    42   20   51 1
    43   20   52 1
    44   21   22 1
    45   21   28 1
    46   21   53 1
    47   22   27 ar
    48   22   23 ar
    49   23   24 ar
    50   23   54 1
    51   24   25 ar
    52   24   55 1
    53   25   26 ar
    54   25   56 1
    55   26   27 ar
    56   26   57 1
    57   27   58 1
    58   28   33 ar
    59   28   29 ar
    60   29   30 ar
    61   29   59 1
    62   30   31 ar
    63   30   60 1
    64   31   32 ar
    65   31   61 1
    66   32   33 ar
    67   32   62 1
    68   33   63 1
@<TRIPOS>MOLECULE
ZINC19361055
   64    68     0     0     0
SMALL
USER_CHARGES

@<TRIPOS>ATOM
      1 C1         -0.7272    0.0235   -0.8992 C.3       1 <0>         0.0215
      2 O1         -0.2937   -1.3085   -0.6164 O.3       1 <0>        -0.3280
      3 C2         -1.2509   -2.2722   -0.5708 C.ar      1 <0>         0.1490
      4 C3         -2.5794   -1.9436   -0.7995 C.ar      1 <0>        -0.2025
      5 C4         -3.5502   -2.9250   -0.7532 C.ar      1 <0>        -0.0445
      6 C5         -3.1991   -4.2341   -0.4791 C.ar      1 <0>        -0.1484
      7 C6         -1.8762   -4.5641   -0.2504 C.ar      1 <0>        -0.0511
      8 C7         -0.9006   -3.5870   -0.3013 C.ar      1 <0>        -0.1934
      9 C8          0.5421   -3.9485   -0.0581 C.3       1 <0>         0.0449
     10 N1          0.9062   -3.6071    1.3235 N.4       1 <0>        -0.5103
     11 C9          2.3125   -3.9594    1.5606 C.3       1 <0>        -0.0043
     12 H1          2.4507   -5.0304    1.4121 H         1 <0>         0.1418
     13 C10         2.7005   -3.5857    2.9941 C.3       1 <0>         0.0806
     14 H2          3.0227   -4.4795    3.5284 H         1 <0>         0.1238
     15 N2          3.7988   -2.6106    2.9632 N.3       1 <0>        -0.4995
     16 C11         3.3857   -1.3713    2.2903 C.3       1 <0>         0.0375
     17 C12         3.0163   -1.6818    0.8371 C.3       1 <0>        -0.1685
     18 C13         3.2078   -3.1855    0.5848 C.3       1 <0>        -0.1027
     19 C14         4.6707   -3.5463    0.8720 C.3       1 <0>        -0.1468
     20 C15         4.9938   -3.1814    2.3265 C.3       1 <0>         0.0451
     21 C16         1.4931   -2.9728    3.7064 C.3       1 <0>        -0.0158
     22 C17         0.4319   -4.0263    3.8932 C.ar      1 <0>        -0.1306
     23 C18         0.7836   -5.2939    4.3181 C.ar      1 <0>        -0.1081
     24 C19        -0.1899   -6.2603    4.4894 C.ar      1 <0>        -0.1029
     25 C20        -1.5150   -5.9590    4.2364 C.ar      1 <0>        -0.1015
     26 C21        -1.8668   -4.6912    3.8124 C.ar      1 <0>        -0.1020
     27 C22        -0.8939   -3.7236    3.6451 C.ar      1 <0>        -0.1374
     28 C23         1.9186   -2.4443    5.0520 C.ar      1 <0>        -0.0590
     29 C24         1.6492   -1.1329    5.3962 C.ar      1 <0>        -0.1127
     30 C25         2.0396   -0.6481    6.6305 C.ar      1 <0>        -0.1123
     31 C26         2.6989   -1.4749    7.5208 C.ar      1 <0>        -0.1112
     32 C27         2.9675   -2.7866    7.1769 C.ar      1 <0>        -0.1118
     33 C28         2.5733   -3.2726    5.9443 C.ar      1 <0>        -0.0986
     34 H3          0.1337    0.6920   -0.9062 H         1 <0>         0.1104
     35 H4         -1.2139    0.0478   -1.8742 H         1 <0>         0.0668
     36 H5         -1.4320    0.3466   -0.1331 H         1 <0>         0.0646
     37 H6         -2.8541   -0.9212   -1.0133 H         1 <0>         0.1407
     38 H7         -4.5844   -2.6696   -0.9308 H         1 <0>         0.1385
     39 H8         -3.9597   -5.0001   -0.4433 H         1 <0>         0.1382
     40 H9         -1.6046   -5.5872   -0.0362 H         1 <0>         0.1378
     41 H10         0.6804   -5.0180   -0.2166 H         1 <0>         0.1348
     42 H11         1.1770   -3.3937   -0.7488 H         1 <0>         0.1378
     43 H12         0.7781   -2.6171    1.4702 H         1 <0>         0.4191
     44 H13         2.5212   -0.9498    2.8033 H         1 <0>         0.0837
     45 H14         4.2067   -0.6547    2.3117 H         1 <0>         0.0963
     46 H15         1.9753   -1.4120    0.6593 H         1 <0>         0.0678
     47 H16         3.6621   -1.1145    0.1669 H         1 <0>         0.0954
     48 H17         2.9434   -3.4330   -0.4433 H         1 <0>         0.1046
     49 H18         4.8191   -4.6158    0.7230 H         1 <0>         0.0800
     50 H19         5.3231   -2.9881    0.2005 H         1 <0>         0.0894
     51 H20         5.8017   -2.4500    2.3478 H         1 <0>         0.0941
     52 H21         5.3001   -4.0779    2.8656 H         1 <0>         0.0884
     53 H22         1.0926   -2.1563    3.1055 H         1 <0>         0.0798
     54 H23         1.8189   -5.5293    4.5158 H         1 <0>         0.1326
     55 H24         0.0850   -7.2508    4.8207 H         1 <0>         0.1358
     56 H25        -2.2755   -6.7143    4.3696 H         1 <0>         0.1350
     57 H26        -2.9021   -4.4560    3.6143 H         1 <0>         0.1344
     58 H27        -1.1692   -2.7320    3.3174 H         1 <0>         0.1268
     59 H28         1.1341   -0.4869    4.7007 H         1 <0>         0.1148
     60 H29         1.8298    0.3767    6.8992 H         1 <0>         0.1242
     61 H30         3.0045   -1.0960    8.4849 H         1 <0>         0.1246
     62 H31         3.4829   -3.4324    7.8724 H         1 <0>         0.1241
     63 H32         2.7799   -4.2984    5.6771 H         1 <0>         0.1156
     64 H33         0.3184   -4.1207    1.9629 H         1 <0>         0.4234
@<TRIPOS>BOND
     1    1    2 1
     2    1   34 1
     3    1   35 1
     4    1   36 1
     5    2    3 1
     6    3    8 ar
     7    3    4 ar
     8    4    5 ar
     9    4   37 1
    10    5    6 ar
    11    5   38 1
    12    6    7 ar
    13    6   39 1
    14    7    8 ar
    15    7   40 1
    16    8    9 1
    17    9   10 1
    18    9   41 1
    19    9   42 1
    20   10   11 1
    21   10   43 1
    22   10   64 1
    23   11   12 1
    24   11   18 1
    25   11   13 1
    26   13   14 1
    27   13   15 1
    28   13   21 1
    29   15   20 1
    30   15   16 1
    31   16   17 1
    32   16   44 1
    33   16   45 1
    34   17   18 1
    35   17   46 1
    36   17   47 1
    37   18   19 1
    38   18   48 1
    39   19   20 1
    40   19   49 1
    41   19   50 1
    42   20   51 1
    43   20   52 1
    44   21   22 1
    45   21   28 1
    46   21   53 1
    47   22   27 ar
    48   22   23 ar
    49   23   24 ar
    50   23   54 1
    51   24   25 ar
    52   24   55 1
    53   25   26 ar
    54   25   56 1
    55   26   27 ar
    56   26   57 1
    57   27   58 1
    58   28   33 ar
    59   28   29 ar
    60   29   30 ar
    61   29   59 1
    62   30   31 ar
    63   30   60 1
    64   31   32 ar
    65   31   61 1
    66   32   33 ar
    67   32   62 1
    68   33   63 1
@<TRIPOS>MOLECULE
ZINC19594578
   42    43     0     0     0
SMALL
USER_CHARGES

@<TRIPOS>ATOM
      1 C1          2.2963   -1.7884   -0.7145 C.3       1 <0>        -0.0923
      2 C2          1.4718   -3.0131   -0.4122 C.2       1 <0>         0.3012
      3 C3          0.0896   -2.9174   -0.4479 C.2       1 <0>        -0.3659
      4 C4         -0.7042   -4.1738   -0.1379 C.3       1 <0>         0.1078
      5 H1         -1.3383   -4.3964   -0.9961 H         1 <0>         0.0608
      6 C5          0.1142   -5.4119    0.1811 C.2       1 <0>        -0.3854
      7 C6         -0.4961   -6.6246    0.4812 C.2       1 <0>         0.4775
      8 O1         -1.8126   -6.7635    0.3291 O.3       1 <0>        -0.6205
      9 O2          0.2441   -7.6599    0.9261 O.3       1 <0>        -0.3341
     10 C7         -0.4487   -8.8759    1.2150 C.3       1 <0>         0.0364
     11 C8          1.4942   -5.2852    0.1607 C.2       1 <0>         0.2892
     12 N1          2.0880   -4.1435   -0.1272 N.2       1 <0>        -0.6421
     13 C9          2.3427   -6.4910    0.4723 C.3       1 <0>        -0.1054
     14 C10        -1.5971   -3.8874    1.0419 C.ar      1 <0>         0.0222
     15 C11        -1.0432   -3.6451    2.2853 C.ar      1 <0>        -0.1052
     16 C12        -1.8620   -3.3825    3.3673 C.ar      1 <0>        -0.0902
     17 C13        -3.2350   -3.3617    3.2062 C.ar      1 <0>        -0.1344
     18 C14        -3.7887   -3.6031    1.9630 C.ar      1 <0>        -0.0786
     19 C15        -2.9694   -3.8615    0.8798 C.ar      1 <0>        -0.0045
     20 N2         -3.5622   -4.1150   -0.4527 N.pl3     1 <0>         0.0414
     21 O3         -4.4639   -4.9114   -0.5715 O.2       1 <0>        -0.1804
     22 O4         -3.1445   -3.5256   -1.4221 O.3       1 <0>        -0.1243
     23 C16        -0.5445   -1.7188   -0.7549 C.2       1 <0>         0.4850
     24 O5          0.1786   -0.6320   -1.0224 O.2       1 <0>        -0.6277
     25 O6         -1.8910   -1.6562   -0.7820 O.3       1 <0>        -0.3126
     26 C17        -2.4753   -0.3927   -1.1050 C.3       1 <0>         0.0441
     27 H2          3.3553   -2.0378   -0.6477 H         1 <0>         0.0511
     28 H3          2.0687   -1.4364   -1.7207 H         1 <0>         0.0825
     29 H4          2.0613   -1.0052    0.0062 H         1 <0>         0.0805
     30 H5         -1.1939   -8.6944    1.9895 H         1 <0>         0.0514
     31 H6         -0.9429   -9.2357    0.3125 H         1 <0>         0.0531
     32 H7          0.2622   -9.6252    1.5632 H         1 <0>         0.0877
     33 H8          2.0952   -7.2976   -0.2177 H         1 <0>         0.0761
     34 H9          3.3960   -6.2316    0.3652 H         1 <0>         0.0659
     35 H10         2.1507   -6.8159    1.4949 H         1 <0>         0.0804
     36 H11         0.0294   -3.6613    2.4111 H         1 <0>         0.1319
     37 H12        -1.4294   -3.1939    4.3387 H         1 <0>         0.1296
     38 H13        -3.8749   -3.1572    4.0519 H         1 <0>         0.1333
     39 H14        -4.8612   -3.5872    1.8373 H         1 <0>         0.1319
     40 H15        -3.5617   -0.4808   -1.0919 H         1 <0>         0.0816
     41 H16        -2.1623    0.3504   -0.3716 H         1 <0>         0.0468
     42 H17        -2.1477   -0.0840   -2.0977 H         1 <0>         0.0541
@<TRIPOS>BOND
     1    1    2 1
     2    1   27 1
     3    1   28 1
     4    1   29 1
     5    2   12 1
     6    2    3 2
     7    3    4 1
     8    3   23 1
     9    4    5 1
    10    4    6 1
    11    4   14 1
    12    6    7 2
    13    6   11 1
    14    7    8 1
    15    7    9 1
    16    9   10 1
    17   10   30 1
    18   10   31 1
    19   10   32 1
    20   11   12 2
    21   11   13 1
    22   13   33 1
    23   13   34 1
    24   13   35 1
    25   14   19 ar
    26   14   15 ar
    27   15   16 ar
    28   15   36 1
    29   16   17 ar
    30   16   37 1
    31   17   18 ar
    32   17   38 1
    33   18   19 ar
    34   18   39 1
    35   19   20 1
    36   20   21 2
    37   20   22 1
    38   23   24 2
    39   23   25 1
    40   25   26 1
    41   26   40 1
    42   26   41 1
    43   26   42 1
@<TRIPOS>MOLECULE
ZINC03812888
   72    73     0     0     0
SMALL
USER_CHARGES

@<TRIPOS>ATOM
      1 C1          0.4643    1.3329   -0.2411 C.3       1 <0>        -0.1747
      2 C2          0.0733   -0.1223    0.0241 C.3       1 <0>        -0.0830
      3 C3          0.8761   -0.6579    1.2114 C.3       1 <0>        -0.1834
      4 C4         -1.4212   -0.1988    0.3430 C.3       1 <0>         0.1004
      5 C5         -2.2237    0.3455   -0.8405 C.3       1 <0>        -0.1048
      6 C6         -1.9247   -0.4899   -2.0868 C.3       1 <0>        -0.1606
      7 C7         -2.7272    0.0544   -3.2703 C.3       1 <0>        -0.0091
      8 N1         -2.4402   -0.7477   -4.4670 N.4       1 <0>        -0.3873
      9 C8         -1.0302   -0.5789   -4.8430 C.3       1 <0>        -0.0587
     10 C9         -3.2986   -0.3021   -5.5727 C.3       1 <0>        -0.0075
     11 C10        -3.0896   -1.2169   -6.7811 C.3       1 <0>        -0.0949
     12 C11        -3.9702   -0.7598   -7.9154 C.ar      1 <0>        -0.1088
     13 C12        -5.2517   -1.2635   -8.0399 C.ar      1 <0>        -0.1027
     14 C13        -6.0634   -0.8473   -9.0787 C.ar      1 <0>        -0.1717
     15 C14        -5.5933    0.0770   -9.9977 C.ar      1 <0>         0.1180
     16 C15        -4.3036    0.5843   -9.8722 C.ar      1 <0>         0.1059
     17 C16        -3.4969    0.1666   -8.8259 C.ar      1 <0>        -0.1655
     18 O1         -3.8377    1.4917  -10.7717 O.3       1 <0>        -0.3008
     19 C17        -2.5044    1.9690  -10.5804 C.3       1 <0>         0.0253
     20 O2         -6.3903    0.4871  -11.0204 O.3       1 <0>        -0.3014
     21 C18        -7.7019   -0.0764  -11.0869 C.3       1 <0>         0.0227
     22 C19        -1.7993   -1.6000    0.5892 C.1       1 <0>         0.2041
     23 N2         -2.0910   -2.6813    0.7792 N.1       1 <0>        -0.4101
     24 C20        -1.7157    0.6241    1.5707 C.ar      1 <0>        -0.0960
     25 C21        -0.6924    1.2978    2.2112 C.ar      1 <0>        -0.1135
     26 C22        -0.9573    2.0540    3.3377 C.ar      1 <0>        -0.1756
     27 C23        -2.2510    2.1383    3.8270 C.ar      1 <0>         0.1175
     28 C24        -3.2811    1.4605    3.1820 C.ar      1 <0>         0.1030
     29 C25        -3.0094    0.7082    2.0505 C.ar      1 <0>        -0.1606
     30 O3         -4.5524    1.5402    3.6584 O.3       1 <0>        -0.3010
     31 C26        -5.5587    0.8184    2.9454 C.3       1 <0>         0.0257
     32 O4         -2.5133    2.8814    4.9353 O.3       1 <0>        -0.3026
     33 C27        -1.4070    3.5493    5.5454 C.3       1 <0>         0.0232
     34 H1          1.5417    1.4471   -0.1220 H         1 <0>         0.0714
     35 H2          0.1801    1.6060   -1.2573 H         1 <0>         0.0573
     36 H3         -0.0504    1.9823    0.4671 H         1 <0>         0.0866
     37 H4          0.2874   -0.7230   -0.8599 H         1 <0>         0.0818
     38 H5          1.8959   -0.2762    1.1621 H         1 <0>         0.0724
     39 H6          0.4106   -0.3318    2.1415 H         1 <0>         0.0837
     40 H7          0.8938   -1.7472    1.1763 H         1 <0>         0.0565
     41 H8         -3.2884    0.2910   -0.6133 H         1 <0>         0.0854
     42 H9         -1.9437    1.3831   -1.0228 H         1 <0>         0.1040
     43 H10        -0.8600   -0.4354   -2.3140 H         1 <0>         0.0984
     44 H11        -2.2047   -1.5275   -1.9045 H         1 <0>         0.0867
     45 H12        -3.7919   -0.0001   -3.0431 H         1 <0>         0.1322
     46 H13        -2.4473    1.0920   -3.4526 H         1 <0>         0.1347
     47 H14        -0.8339    0.4722   -5.0545 H         1 <0>         0.1249
     48 H15        -0.3932   -0.9095   -4.0226 H         1 <0>         0.1255
     49 H16        -0.8172   -1.1741   -5.7310 H         1 <0>         0.1260
     50 H17        -4.3424   -0.3437   -5.2617 H         1 <0>         0.1327
     51 H18        -3.0405    0.7218   -5.8431 H         1 <0>         0.1319
     52 H19        -2.0457   -1.1754   -7.0921 H         1 <0>         0.0944
     53 H20        -3.3477   -2.2408   -6.5107 H         1 <0>         0.0957
     54 H21        -5.6193   -1.9840   -7.3242 H         1 <0>         0.1290
     55 H22        -7.0638   -1.2429   -9.1741 H         1 <0>         0.1420
     56 H23        -2.4969    0.5616   -8.7240 H         1 <0>         0.1364
     57 H24        -2.2588    2.6850  -11.3647 H         1 <0>         0.1070
     58 H25        -2.4286    2.4553   -9.6078 H         1 <0>         0.0539
     59 H26        -1.8088    1.1309  -10.6227 H         1 <0>         0.0563
     60 H27        -7.6275   -1.1590  -11.1896 H         1 <0>         0.0592
     61 H28        -8.2478    0.1654  -10.1750 H         1 <0>         0.0584
     62 H29        -8.2308    0.3347  -11.9468 H         1 <0>         0.1080
     63 H30         0.3164    1.2329    1.8308 H         1 <0>         0.1604
     64 H31        -0.1560    2.5788    3.8366 H         1 <0>         0.1426
     65 H32        -3.8077    0.1843    1.5459 H         1 <0>         0.1325
     66 H33        -6.5240    0.9669    3.4294 H         1 <0>         0.1055
     67 H34        -5.6074    1.1811    1.9187 H         1 <0>         0.0536
     68 H35        -5.3123   -0.2434    2.9444 H         1 <0>         0.0538
     69 H36        -0.6644    2.8139    5.8548 H         1 <0>         0.0583
     70 H37        -0.9593    4.2388    4.8297 H         1 <0>         0.0585
     71 H38        -1.7536    4.1046    6.4169 H         1 <0>         0.1058
     72 H39        -2.6218   -1.7207   -4.2712 H         1 <0>         0.4250
@<TRIPOS>BOND
     1    1    2 1
     2    1   34 1
     3    1   35 1
     4    1   36 1
     5    2    3 1
     6    2    4 1
     7    2   37 1
     8    3   38 1
     9    3   39 1
    10    3   40 1
    11    4    5 1
    12    4   22 1
    13    4   24 1
    14    5    6 1
    15    5   41 1
    16    5   42 1
    17    6    7 1
    18    6   43 1
    19    6   44 1
    20    7    8 1
    21    7   45 1
    22    7   46 1
    23    8    9 1
    24    8   10 1
    25    8   72 1
    26    9   47 1
    27    9   48 1
    28    9   49 1
    29   10   11 1
    30   10   50 1
    31   10   51 1
    32   11   12 1
    33   11   52 1
    34   11   53 1
    35   12   17 ar
    36   12   13 ar
    37   13   14 ar
    38   13   54 1
    39   14   15 ar
    40   14   55 1
    41   15   16 ar
    42   15   20 1
    43   16   17 ar
    44   16   18 1
    45   17   56 1
    46   18   19 1
    47   19   57 1
    48   19   58 1
    49   19   59 1
    50   20   21 1
    51   21   60 1
    52   21   61 1
    53   21   62 1
    54   22   23 3
    55   24   29 ar
    56   24   25 ar
    57   25   26 ar
    58   25   63 1
    59   26   27 ar
    60   26   64 1
    61   27   28 ar
    62   27   32 1
    63   28   29 ar
    64   28   30 1
    65   29   65 1
    66   30   31 1
    67   31   66 1
    68   31   67 1
    69   31   68 1
    70   32   33 1
    71   33   69 1
    72   33   70 1
    73   33   71 1
@<TRIPOS>MOLECULE
ZINC25760037
   43    46     0     0     0
SMALL
USER_CHARGES

@<TRIPOS>ATOM
      1 C1         -0.0268    1.3474    0.0633 C.ar      1 <0>        -0.1752
      2 C2          1.1642    2.0489    0.0412 C.ar      1 <0>        -0.0527
      3 C3          2.3551    1.3200    0.0176 C.ar      1 <0>        -0.1461
      4 C4          3.7739    1.6795   -0.0097 C.2       1 <0>        -0.2577
      5 C5          4.4667    0.5300   -0.0245 C.2       1 <0>         0.1407
      6 N1          3.6053   -0.5342   -0.0088 N.pl3     1 <0>        -0.5673
      7 H1          3.8729   -1.4665   -0.0150 H         1 <0>         0.4335
      8 C6          2.3060   -0.0875    0.0170 C.ar      1 <0>         0.2913
      9 N2          1.1333   -0.7066    0.0393 N.ar      1 <0>        -0.4851
     10 C7         -0.0005   -0.0386    0.0614 C.ar      1 <0>         0.1534
     11 C8          4.3469    3.0733   -0.0199 C.3       1 <0>         0.0839
     12 N3          4.3372    3.6166    1.3449 N.4       1 <0>        -0.3806
     13 C9          2.9495    3.7595    1.8031 C.3       1 <0>        -0.0319
     14 C10         2.9400    4.2172    3.2653 C.3       1 <0>         0.1008
     15 N4          3.7450    5.4435    3.3754 N.pl3     1 <0>        -0.6426
     16 C11         5.0963    5.4403    2.7937 C.3       1 <0>         0.0994
     17 C12         5.0040    4.9248    1.3537 C.3       1 <0>        -0.0233
     18 C13         3.2403    6.5795    4.0139 C.ar      1 <0>         0.2031
     19 C14         1.9241    6.6016    4.4569 C.ar      1 <0>        -0.1758
     20 C15         1.4281    7.7254    5.0880 C.ar      1 <0>        -0.0604
     21 C16         2.2410    8.8289    5.2789 C.ar      1 <0>        -0.0751
     22 C17         3.5527    8.8096    4.8386 C.ar      1 <0>        -0.0604
     23 C18         4.0557    7.6864    4.2119 C.ar      1 <0>        -0.1748
     24 Cl1         1.6138   10.2403    6.0716 Cl        1 <0>        -0.0601
     25 H2         -0.9692    1.8744    0.0864 H         1 <0>         0.1492
     26 H3          1.1733    3.1289    0.0417 H         1 <0>         0.1347
     27 H4          5.5440    0.4554   -0.0459 H         1 <0>         0.1910
     28 H5         -0.9329   -0.5834    0.0787 H         1 <0>         0.1725
     29 H6          5.3712    3.0423   -0.3913 H         1 <0>         0.1384
     30 H7          3.7443    3.7092   -0.6684 H         1 <0>         0.1332
     31 H8          2.4378    4.4992    1.1874 H         1 <0>         0.1308
     32 H9          2.4385    2.8004    1.7191 H         1 <0>         0.1450
     33 H10         1.9162    4.4218    3.5784 H         1 <0>         0.1255
     34 H11         3.3702    3.4388    3.8955 H         1 <0>         0.0876
     35 H12         5.4980    6.4535    2.7951 H         1 <0>         0.1268
     36 H13         5.7442    4.7854    3.3763 H         1 <0>         0.0888
     37 H14         6.0068    4.8245    0.9387 H         1 <0>         0.1424
     38 H15         4.4301    5.6293    0.7516 H         1 <0>         0.1331
     39 H16         1.2890    5.7409    4.3075 H         1 <0>         0.1319
     40 H17         0.4047    7.7432    5.4327 H         1 <0>         0.1391
     41 H18         4.1850    9.6722    4.9888 H         1 <0>         0.1392
     42 H19         5.0808    7.6702    3.8724 H         1 <0>         0.1326
     43 H20         4.8287    2.9858    1.9602 H         1 <0>         0.4209
@<TRIPOS>BOND
     1    1   10 ar
     2    1    2 ar
     3    1   25 1
     4    2    3 ar
     5    2   26 1
     6    3    8 ar
     7    3    4 1
     8    4    5 2
     9    4   11 1
    10    5    6 1
    11    5   27 1
    12    6    7 1
    13    6    8 1
    14    8    9 ar
    15    9   10 ar
    16   10   28 1
    17   11   12 1
    18   11   29 1
    19   11   30 1
    20   12   17 1
    21   12   13 1
    22   12   43 1
    23   13   14 1
    24   13   31 1
    25   13   32 1
    26   14   15 1
    27   14   33 1
    28   14   34 1
    29   15   16 1
    30   15   18 1
    31   16   17 1
    32   16   35 1
    33   16   36 1
    34   17   37 1
    35   17   38 1
    36   18   23 ar
    37   18   19 ar
    38   19   20 ar
    39   19   39 1
    40   20   21 ar
    41   20   40 1
    42   21   22 ar
    43   21   24 1
    44   22   23 ar
    45   22   41 1
    46   23   42 1
@<TRIPOS>MOLECULE
ZINC25760037
   42    45     0     0     0
SMALL
USER_CHARGES

@<TRIPOS>ATOM
      1 C1         -0.0271    1.3456    0.0639 C.ar      1 <0>        -0.1986
      2 C2          1.1635    2.0478    0.0416 C.ar      1 <0>        -0.0357
      3 C3          2.3549    1.3195    0.0173 C.ar      1 <0>        -0.1433
      4 C4          3.7735    1.6798   -0.0104 C.2       1 <0>        -0.1623
      5 C5          4.4669    0.5307   -0.0259 C.2       1 <0>         0.0865
      6 N1          3.6061   -0.5339   -0.0103 N.pl3     1 <0>        -0.5808
      7 H1          3.8741   -1.4661   -0.0170 H         1 <0>         0.4217
      8 C6          2.3065   -0.0879    0.0162 C.ar      1 <0>         0.2862
      9 N2          1.1341   -0.7077    0.0386 N.ar      1 <0>        -0.4979
     10 C7         -0.0000   -0.0404    0.0614 C.ar      1 <0>         0.1384
     11 C8          4.3457    3.0739   -0.0202 C.3       1 <0>         0.1304
     12 N3          4.3361    3.6167    1.3449 N.3       1 <0>        -0.5310
     13 C9          2.9614    3.7989    1.8294 C.3       1 <0>         0.0328
     14 C10         2.9931    4.1916    3.3103 C.3       1 <0>         0.1246
     15 N4          3.8672    5.3644    3.4640 N.pl3     1 <0>        -0.6269
     16 C11         5.2167    5.3075    2.8820 C.3       1 <0>         0.1252
     17 C12         5.0975    4.8709    1.4180 C.3       1 <0>         0.0388
     18 C13         3.4269    6.5028    4.1446 C.ar      1 <0>         0.2273
     19 C14         2.1134    6.5833    4.5888 C.ar      1 <0>        -0.1910
     20 C15         1.6812    7.7093    5.2616 C.ar      1 <0>        -0.0581
     21 C16         2.5552    8.7569    5.4928 C.ar      1 <0>        -0.0958
     22 C17         3.8644    8.6794    5.0513 C.ar      1 <0>        -0.0582
     23 C18         4.3036    7.5534    4.3830 C.ar      1 <0>        -0.1905
     24 Cl1         2.0082   10.1713    6.3378 Cl        1 <0>        -0.0804
     25 H2         -0.9697    1.8721    0.0875 H         1 <0>         0.1382
     26 H3          1.1720    3.1278    0.0426 H         1 <0>         0.1304
     27 H4          5.5441    0.4568   -0.0477 H         1 <0>         0.1792
     28 H5         -0.9321   -0.5857    0.0788 H         1 <0>         0.1616
     29 H6          5.3698    3.0437   -0.3920 H         1 <0>         0.0860
     30 H7          3.7424    3.7098   -0.6682 H         1 <0>         0.0430
     31 H8          2.4745    4.5866    1.2545 H         1 <0>         0.0365
     32 H9          2.4079    2.8672    1.7119 H         1 <0>         0.0966
     33 H10         1.9857    4.4393    3.6450 H         1 <0>         0.0859
     34 H11         3.3847    3.3631    3.9005 H         1 <0>         0.0707
     35 H12         5.6796    6.2930    2.9337 H         1 <0>         0.0870
     36 H13         5.8221    4.5864    3.4311 H         1 <0>         0.0720
     37 H14         6.0932    4.7167    1.0022 H         1 <0>         0.0880
     38 H15         4.5809    5.6437    0.8489 H         1 <0>         0.0393
     39 H16         1.4306    5.7663    4.4080 H         1 <0>         0.1305
     40 H17         0.6599    7.7725    5.6073 H         1 <0>         0.1313
     41 H18         4.5445    9.4985    5.2331 H         1 <0>         0.1314
     42 H19         5.3267    7.4915    4.0426 H         1 <0>         0.1308
@<TRIPOS>BOND
     1    1   10 ar
     2    1    2 ar
     3    1   25 1
     4    2    3 ar
     5    2   26 1
     6    3    8 ar
     7    3    4 1
     8    4    5 2
     9    4   11 1
    10    5    6 1
    11    5   27 1
    12    6    7 1
    13    6    8 1
    14    8    9 ar
    15    9   10 ar
    16   10   28 1
    17   11   12 1
    18   11   29 1
    19   11   30 1
    20   12   17 1
    21   12   13 1
    22   13   14 1
    23   13   31 1
    24   13   32 1
    25   14   15 1
    26   14   33 1
    27   14   34 1
    28   15   16 1
    29   15   18 1
    30   16   17 1
    31   16   35 1
    32   16   36 1
    33   17   37 1
    34   17   38 1
    35   18   23 ar
    36   18   19 ar
    37   19   20 ar
    38   19   39 1
    39   20   21 ar
    40   20   40 1
    41   21   22 ar
    42   21   24 1
    43   22   23 ar
    44   22   41 1
    45   23   42 1
@<TRIPOS>MOLECULE
ZINC28404175
   40    41     0     0     0
SMALL
USER_CHARGES

@<TRIPOS>ATOM
      1 C1          0.0454    1.4791    0.3611 C.3       1 <0>        -0.1155
      2 C2          0.0341   -0.0166    0.1771 C.2       1 <0>         0.2460
      3 C3         -1.1315   -0.6888    0.2354 C.2       1 <0>        -0.2573
      4 C4         -1.1817   -2.1807    0.0663 C.3       1 <0>         0.0709
      5 H1         -2.0175   -2.4398   -0.5836 H         1 <0>         0.1036
      6 C5          0.0927   -2.6941   -0.5399 C.2       1 <0>        -0.1319
      7 C6          1.1868   -1.9663   -0.5725 C.2       1 <0>         0.2039
      8 N1          1.2052   -0.6804   -0.0532 N.pl3     1 <0>        -0.6260
      9 C7          2.4389   -2.5355   -1.1884 C.3       1 <0>        -0.1443
     10 N2          0.1175   -4.0574   -1.1161 N.pl3     1 <0>         0.0367
     11 O1          0.3205   -5.0118   -0.4023 O.2       1 <0>        -0.1317
     12 O2         -0.0652   -4.2165   -2.3006 O.3       1 <0>        -0.1413
     13 C8         -1.3833   -2.8255    1.4134 C.ar      1 <0>        -0.0350
     14 C9         -0.4579   -2.6257    2.4210 C.ar      1 <0>        -0.1024
     15 C10        -0.6428   -3.2170    3.6564 C.ar      1 <0>        -0.0849
     16 C11        -1.7534   -4.0081    3.8849 C.ar      1 <0>        -0.1141
     17 C12        -2.6790   -4.2072    2.8780 C.ar      1 <0>        -0.0695
     18 C13        -2.4962   -3.6121    1.6435 C.ar      1 <0>        -0.1626
     19 C14        -3.5082   -3.8249    0.5472 C.3       1 <0>         0.4968
     20 F1         -4.5364   -4.6500    1.0154 F         1 <0>        -0.1768
     21 F2         -4.0408   -2.5911    0.1583 F         1 <0>        -0.1496
     22 F3         -2.8867   -4.4311   -0.5498 F         1 <0>        -0.1793
     23 C15        -2.3302    0.0227    0.4604 C.2       1 <0>         0.5179
     24 O3         -2.3033    1.2316    0.5995 O.2       1 <0>        -0.5175
     25 O4         -3.5058   -0.6377    0.5213 O.3       1 <0>        -0.3335
     26 C16        -4.6787    0.1455    0.7517 C.3       1 <0>         0.0361
     27 H2          1.0678    1.8477    0.2775 H         1 <0>         0.0680
     28 H3         -0.5725    1.9443   -0.4070 H         1 <0>         0.1094
     29 H4         -0.3509    1.7270    1.3457 H         1 <0>         0.1067
     30 H5          2.0522   -0.2535    0.1498 H         1 <0>         0.4308
     31 H6          2.4305   -2.3533   -2.2630 H         1 <0>         0.1061
     32 H7          3.3120   -2.0562   -0.7454 H         1 <0>         0.0956
     33 H8          2.4800   -3.6087   -1.0021 H         1 <0>         0.0914
     34 H9          0.4097   -2.0077    2.2425 H         1 <0>         0.1220
     35 H10         0.0805   -3.0615    4.4432 H         1 <0>         0.1335
     36 H11        -1.8975   -4.4708    4.8501 H         1 <0>         0.1375
     37 H12        -3.5464   -4.8254    3.0563 H         1 <0>         0.1412
     38 H13        -4.5860    0.6670    1.7043 H         1 <0>         0.0590
     39 H14        -4.7930    0.8735   -0.0514 H         1 <0>         0.0598
     40 H15        -5.5517   -0.5066    0.7779 H         1 <0>         0.1002
@<TRIPOS>BOND
     1    1    2 1
     2    1   27 1
     3    1   28 1
     4    1   29 1
     5    2    8 1
     6    2    3 2
     7    3    4 1
     8    3   23 1
     9    4    5 1
    10    4    6 1
    11    4   13 1
    12    6    7 2
    13    6   10 1
    14    7    8 1
    15    7    9 1
    16    8   30 1
    17    9   31 1
    18    9   32 1
    19    9   33 1
    20   10   11 2
    21   10   12 1
    22   13   18 ar
    23   13   14 ar
    24   14   15 ar
    25   14   34 1
    26   15   16 ar
    27   15   35 1
    28   16   17 ar
    29   16   36 1
    30   17   18 ar
    31   17   37 1
    32   18   19 1
    33   19   20 1
    34   19   21 1
    35   19   22 1
    36   23   24 2
    37   23   25 1
    38   25   26 1
    39   26   38 1
    40   26   39 1
    41   26   40 1
@<TRIPOS>MOLECULE
ZINC28404175
   39    40     0     0     0
SMALL
USER_CHARGES

@<TRIPOS>ATOM
      1 C1          0.1040    1.4858    0.3250 C.3       1 <0>        -0.1103
      2 C2          0.0617   -0.0116    0.1600 C.2       1 <0>         0.2698
      3 C3         -1.1087   -0.6347    0.2916 C.2       1 <0>        -0.2529
      4 C4         -1.1344   -2.1419    0.1219 C.3       1 <0>         0.1039
      5 H1         -1.5261   -2.5808    1.0396 H         1 <0>         0.0581
      6 C5          0.1994   -2.7992   -0.1860 C.2       1 <0>        -0.3960
      7 C6          0.3070   -4.1438   -0.3605 C.2       1 <0>         0.4775
      8 O1          1.5251   -4.7140   -0.4765 O.3       1 <0>        -0.6483
      9 O2         -0.8043   -4.9080   -0.4178 O.3       1 <0>        -0.3227
     10 C7         -0.6169   -6.3126   -0.6027 C.3       1 <0>         0.0449
     11 C8          1.3186   -1.9522   -0.2829 C.2       1 <0>         0.3183
     12 N1          1.2075   -0.6616   -0.1197 N.2       1 <0>        -0.6269
     13 C9          2.6704   -2.5453   -0.5861 C.3       1 <0>        -0.0889
     14 C10        -2.0870   -2.4729   -0.9979 C.ar      1 <0>         0.0022
     15 C11        -1.8554   -1.9831   -2.2699 C.ar      1 <0>        -0.1115
     16 C12        -2.7291   -2.2866   -3.2970 C.ar      1 <0>        -0.0965
     17 C13        -3.8343   -3.0805   -3.0525 C.ar      1 <0>        -0.1370
     18 C14        -4.0653   -3.5709   -1.7811 C.ar      1 <0>        -0.0803
     19 C15        -3.1891   -3.2708   -0.7547 C.ar      1 <0>        -0.1516
     20 C16        -3.4381   -3.8098    0.6304 C.3       1 <0>         0.5017
     21 F1         -4.6037   -4.5834    0.6272 F         1 <0>        -0.1913
     22 F2         -2.3540   -4.6015    1.0246 F         1 <0>        -0.1610
     23 F3         -3.5876   -2.7450    1.5253 F         1 <0>        -0.1630
     24 N2         -2.3513    0.1240    0.5959 N.pl3     1 <0>         0.0816
     25 O3         -2.3093    1.3250    0.7277 O.2       1 <0>        -0.2404
     26 O4         -3.4034   -0.4604    0.7114 O.3       1 <0>        -0.2080
     27 H2          1.1256    1.8382    0.1832 H         1 <0>         0.0674
     28 H3         -0.5471    1.9514   -0.4148 H         1 <0>         0.0828
     29 H4         -0.2360    1.7506    1.3262 H         1 <0>         0.0829
     30 H5         -0.0917   -6.4885   -1.5415 H         1 <0>         0.0487
     31 H6         -0.0286   -6.7125    0.2231 H         1 <0>         0.0503
     32 H7         -1.5873   -6.8080   -0.6309 H         1 <0>         0.0814
     33 H8          2.6198   -3.1071   -1.5188 H         1 <0>         0.0816
     34 H9          3.4046   -1.7455   -0.6831 H         1 <0>         0.0522
     35 H10         2.9646   -3.2122    0.2243 H         1 <0>         0.0869
     36 H11        -0.9921   -1.3629   -2.4609 H         1 <0>         0.1192
     37 H12        -2.5486   -1.9034   -4.2904 H         1 <0>         0.1216
     38 H13        -4.5174   -3.3171   -3.8549 H         1 <0>         0.1244
     39 H14        -4.9289   -4.1907   -1.5901 H         1 <0>         0.1294
@<TRIPOS>BOND
     1    1    2 1
     2    1   27 1
     3    1   28 1
     4    1   29 1
     5    2   12 1
     6    2    3 2
     7    3    4 1
     8    3   24 1
     9    4    5 1
    10    4    6 1
    11    4   14 1
    12    6    7 2
    13    6   11 1
    14    7    8 1
    15    7    9 1
    16    9   10 1
    17   10   30 1
    18   10   31 1
    19   10   32 1
    20   11   12 2
    21   11   13 1
    22   13   33 1
    23   13   34 1
    24   13   35 1
    25   14   19 ar
    26   14   15 ar
    27   15   16 ar
    28   15   36 1
    29   16   17 ar
    30   16   37 1
    31   17   18 ar
    32   17   38 1
    33   18   19 ar
    34   18   39 1
    35   19   20 1
    36   20   21 1
    37   20   22 1
    38   20   23 1
    39   24   25 2
    40   24   26 1
@<TRIPOS>MOLECULE
ZINC19536858
   48    49     0     0     0
SMALL
USER_CHARGES

@<TRIPOS>ATOM
      1 C1          0.8858    1.4103   -0.5277 C.3       1 <0>        -0.1506
      2 C2          0.7552   -0.1111   -0.4313 C.3       1 <0>         0.0663
      3 O1          1.2452   -0.5518    0.8366 O.3       1 <0>        -0.3325
      4 C3          1.2007   -1.8766    1.0832 C.2       1 <0>         0.4860
      5 O2          0.7151   -2.7095    0.1634 O.2       1 <0>        -0.6227
      6 C4          1.6614   -2.3737    2.2971 C.2       1 <0>        -0.3757
      7 C5          1.5052   -3.7086    2.6353 C.2       1 <0>         0.3064
      8 N1          1.9370   -4.1952    3.7823 N.2       1 <0>        -0.6426
      9 C6          2.5504   -3.5035    4.7226 C.2       1 <0>         0.2882
     10 C7          2.8089   -2.1485    4.5888 C.2       1 <0>        -0.3787
     11 C8          3.4568   -1.4337    5.5899 C.2       1 <0>         0.4806
     12 O3          3.6918   -0.1314    5.4333 O.3       1 <0>        -0.6225
     13 O4          3.8473   -2.0581    6.7192 O.3       1 <0>        -0.3316
     14 C9          4.5074   -1.2622    7.7056 C.3       1 <0>         0.0597
     15 C10         4.8724   -2.1374    8.9063 C.3       1 <0>        -0.1494
     16 C11         2.3613   -1.4772    3.3027 C.3       1 <0>         0.1263
     17 H1          1.6835   -0.6646    3.5643 H         1 <0>         0.0502
     18 C12         3.5709   -0.8754    2.6351 C.ar      1 <0>        -0.0318
     19 C13         4.5649   -1.6963    2.1356 C.ar      1 <0>        -0.0578
     20 C14         5.6743   -1.1443    1.5233 C.ar      1 <0>        -0.1288
     21 C15         5.7898    0.2287    1.4100 C.ar      1 <0>        -0.0784
     22 C16         4.7957    1.0494    1.9086 C.ar      1 <0>        -0.0561
     23 C17         3.6840    0.4971    2.5172 C.ar      1 <0>        -0.0111
     24 N2          4.9197    2.5194    1.7877 N.pl3     1 <0>         0.0439
     25 O5          5.8905    3.0023    1.2529 O.2       1 <0>        -0.1836
     26 O6          4.0501    3.2372    2.2239 O.3       1 <0>        -0.1664
     27 C18         2.9835   -4.2083    5.9822 C.3       1 <0>        -0.1056
     28 C19         0.8202   -4.6329    1.6619 C.3       1 <0>        -0.1146
     29 H2          1.9338    1.6922   -0.4253 H         1 <0>         0.0582
     30 H3          0.5121    1.7465   -1.4949 H         1 <0>         0.0726
     31 H4          0.3048    1.8760    0.2682 H         1 <0>         0.0656
     32 H5         -0.2927   -0.3930   -0.5338 H         1 <0>         0.0615
     33 H6          1.3363   -0.5768   -1.2273 H         1 <0>         0.0586
     34 H7          5.4144   -0.8338    7.2792 H         1 <0>         0.0586
     35 H8          3.8439   -0.4602    8.0289 H         1 <0>         0.0604
     36 H9          3.9653   -2.5659    9.3327 H         1 <0>         0.0630
     37 H10         5.5359   -2.9394    8.5830 H         1 <0>         0.0623
     38 H11         5.3759   -1.5303    9.6587 H         1 <0>         0.0708
     39 H12         4.4747   -2.7689    2.2241 H         1 <0>         0.1291
     40 H13         6.4511   -1.7856    1.1337 H         1 <0>         0.1357
     41 H14         6.6570    0.6601    0.9322 H         1 <0>         0.1408
     42 H15         2.9054    1.1382    2.9035 H         1 <0>         0.1430
     43 H16         2.7050   -5.2605    5.9239 H         1 <0>         0.0649
     44 H17         4.0646   -4.1242    6.0923 H         1 <0>         0.0784
     45 H18         2.4940   -3.7501    6.8416 H         1 <0>         0.0795
     46 H19         1.5437   -4.9895    0.9287 H         1 <0>         0.0731
     47 H20         0.4006   -5.4822    2.2011 H         1 <0>         0.0517
     48 H21         0.0207   -4.0955    1.1518 H         1 <0>         0.1052
@<TRIPOS>BOND
     1    1    2 1
     2    1   29 1
     3    1   30 1
     4    1   31 1
     5    2    3 1
     6    2   32 1
     7    2   33 1
     8    3    4 1
     9    4    5 2
    10    4    6 1
    11    6   16 1
    12    6    7 2
    13    7    8 1
    14    7   28 1
    15    8    9 2
    16    9   10 1
    17    9   27 1
    18   10   11 2
    19   10   16 1
    20   11   12 1
    21   11   13 1
    22   13   14 1
    23   14   15 1
    24   14   34 1
    25   14   35 1
    26   15   36 1
    27   15   37 1
    28   15   38 1
    29   16   17 1
    30   16   18 1
    31   18   23 ar
    32   18   19 ar
    33   19   20 ar
    34   19   39 1
    35   20   21 ar
    36   20   40 1
    37   21   22 ar
    38   21   41 1
    39   22   23 ar
    40   22   24 1
    41   23   42 1
    42   24   25 2
    43   24   26 1
    44   27   43 1
    45   27   44 1
    46   27   45 1
    47   28   46 1
    48   28   47 1
    49   28   48 1
@<TRIPOS>MOLECULE
ZINC00591993
   52    53     0     0     0
SMALL
USER_CHARGES

@<TRIPOS>ATOM
      1 C1         -0.9523    1.7471    2.4510 C.3       1 <0>        -0.1174
      2 C2         -0.9151    0.5612    1.5218 C.2       1 <0>         0.2465
      3 C3         -2.0152   -0.1958    1.3672 C.2       1 <0>        -0.2665
      4 C4         -2.0213   -1.3924    0.4588 C.3       1 <0>         0.0436
      5 H1         -2.9432   -1.3969   -0.1226 H         1 <0>         0.1393
      6 C5         -0.8464   -1.3560   -0.4769 C.2       1 <0>        -0.2123
      7 C6          0.2068   -0.5526   -0.2485 C.2       1 <0>         0.1798
      8 N1          0.2361    0.2715    0.8416 N.pl3     1 <0>        -0.6272
      9 C7          1.3676   -0.5559   -1.2096 C.3       1 <0>        -0.1323
     10 C8         -0.8485   -2.1852   -1.6224 C.2       1 <0>         0.5317
     11 O1         -1.4124   -1.8199   -2.6370 O.2       1 <0>        -0.4807
     12 O2         -0.2250   -3.3816   -1.5904 O.3       1 <0>        -0.3489
     13 C9         -0.2670   -4.1672   -2.7834 C.3       1 <0>         0.0658
     14 C10         0.4875   -5.4788   -2.5572 C.3       1 <0>        -0.0938
     15 C11         0.3373   -6.3726   -3.7899 C.3       1 <0>        -0.1478
     16 C12         1.9694   -5.1805   -2.3210 C.3       1 <0>        -0.1469
     17 C13        -1.9533   -2.6472    1.2907 C.ar      1 <0>        -0.0038
     18 C14        -0.9607   -2.7930    2.2419 C.ar      1 <0>        -0.1040
     19 C15        -0.8983   -3.9439    3.0048 C.ar      1 <0>        -0.0685
     20 C16        -1.8288   -4.9490    2.8170 C.ar      1 <0>        -0.1181
     21 C17        -2.8217   -4.8028    1.8667 C.ar      1 <0>        -0.0571
     22 C18        -2.8866   -3.6498    1.1065 C.ar      1 <0>        -0.0327
     23 N2         -3.9530   -3.4911    0.0923 N.pl3     1 <0>         0.0376
     24 O3         -4.9752   -4.1300    0.1848 O.2       1 <0>        -0.1530
     25 O4         -3.8018   -2.7225   -0.8286 O.3       1 <0>        -0.1527
     26 C19        -3.1919    0.1412    2.0754 C.2       1 <0>         0.5199
     27 O5         -3.2013    1.1075    2.8149 O.2       1 <0>        -0.5192
     28 O6         -4.3045   -0.6088    1.9309 O.3       1 <0>        -0.3549
     29 C20        -5.4567   -0.2104    2.6764 C.3       1 <0>         0.0373
     30 H2          0.0189    2.2421    2.4473 H         1 <0>         0.0656
     31 H3         -1.7180    2.4469    2.1164 H         1 <0>         0.1065
     32 H4         -1.1845    1.4100    3.4612 H         1 <0>         0.1028
     33 H5          1.0793    0.6495    1.1366 H         1 <0>         0.4239
     34 H6          1.2036    0.1977   -1.9799 H         1 <0>         0.0939
     35 H7          2.2870   -0.3294   -0.6696 H         1 <0>         0.0856
     36 H8          1.4517   -1.5382   -1.6743 H         1 <0>         0.0893
     37 H9         -1.3042   -4.3840   -3.0393 H         1 <0>         0.0679
     38 H10         0.2005   -3.6150   -3.5987 H         1 <0>         0.0692
     39 H11         0.0762   -5.9890   -1.6862 H         1 <0>         0.0787
     40 H12         0.7486   -5.8625   -4.6609 H         1 <0>         0.0597
     41 H13         0.8749   -7.3071   -3.6287 H         1 <0>         0.0658
     42 H14        -0.7184   -6.5851   -3.9582 H         1 <0>         0.0590
     43 H15         2.0763   -4.5438   -1.4428 H         1 <0>         0.0603
     44 H16         2.5069   -6.1150   -2.1598 H         1 <0>         0.0582
     45 H17         2.3807   -4.6703   -3.1920 H         1 <0>         0.0551
     46 H18        -0.2338   -2.0079    2.3886 H         1 <0>         0.1352
     47 H19        -0.1225   -4.0581    3.7474 H         1 <0>         0.1411
     48 H20        -1.7797   -5.8486    3.4127 H         1 <0>         0.1464
     49 H21        -3.5484   -5.5882    1.7197 H         1 <0>         0.1505
     50 H22        -6.2784   -0.8961    2.4693 H         1 <0>         0.1001
     51 H23        -5.2256   -0.2314    3.7414 H         1 <0>         0.0594
     52 H24        -5.7452    0.8001    2.3870 H         1 <0>         0.0622
@<TRIPOS>BOND
     1    1    2 1
     2    1   30 1
     3    1   31 1
     4    1   32 1
     5    2    8 1
     6    2    3 2
     7    3    4 1
     8    3   26 1
     9    4    5 1
    10    4    6 1
    11    4   17 1
    12    6    7 2
    13    6   10 1
    14    7    8 1
    15    7    9 1
    16    8   33 1
    17    9   34 1
    18    9   35 1
    19    9   36 1
    20   10   11 2
    21   10   12 1
    22   12   13 1
    23   13   14 1
    24   13   37 1
    25   13   38 1
    26   14   15 1
    27   14   16 1
    28   14   39 1
    29   15   40 1
    30   15   41 1
    31   15   42 1
    32   16   43 1
    33   16   44 1
    34   16   45 1
    35   17   22 ar
    36   17   18 ar
    37   18   19 ar
    38   18   46 1
    39   19   20 ar
    40   19   47 1
    41   20   21 ar
    42   20   48 1
    43   21   22 ar
    44   21   49 1
    45   22   23 1
    46   23   24 2
    47   23   25 1
    48   26   27 2
    49   26   28 1
    50   28   29 1
    51   29   50 1
    52   29   51 1
    53   29   52 1
@<TRIPOS>MOLECULE
ZINC19632706
   52    53     0     0     0
SMALL
USER_CHARGES

@<TRIPOS>ATOM
      1 C1         -3.6191    2.1192   -2.3601 C.3       1 <0>        -0.1177
      2 C2         -2.8297    1.0231   -1.6918 C.2       1 <0>         0.2499
      3 C3         -3.2989   -0.2365   -1.7063 C.2       1 <0>        -0.2697
      4 C4         -2.5419   -1.3619   -1.0602 C.3       1 <0>         0.0705
      5 H1         -3.2374   -1.9879   -0.5012 H         1 <0>         0.1032
      6 C5         -1.4937   -0.8298   -0.1245 C.2       1 <0>        -0.2166
      7 C6         -1.0970    0.4536   -0.1735 C.2       1 <0>         0.1832
      8 N1         -1.6415    1.3213   -1.0825 N.pl3     1 <0>        -0.6287
      9 C7         -0.0363    0.9416    0.7794 C.3       1 <0>        -0.1311
     10 C8         -0.9123   -1.6978    0.8285 C.2       1 <0>         0.5320
     11 O1         -1.5133   -1.9686    1.8513 O.2       1 <0>        -0.4794
     12 O2          0.3091   -2.2258    0.6037 O.3       1 <0>        -0.3468
     13 C9          0.8355   -3.0944    1.6089 C.3       1 <0>         0.0666
     14 C10         2.2179   -3.5910    1.1809 C.3       1 <0>        -0.0925
     15 C11         2.8342   -4.4196    2.3098 C.3       1 <0>        -0.1477
     16 C12         2.0829   -4.4577   -0.0727 C.3       1 <0>        -0.1465
     17 C13        -1.8772   -2.1908   -2.1289 C.ar      1 <0>        -0.0159
     18 C14        -1.0560   -1.5857   -3.0622 C.ar      1 <0>        -0.0968
     19 C15        -0.4464   -2.3459   -4.0424 C.ar      1 <0>        -0.0759
     20 C16        -0.6574   -3.7115   -4.0892 C.ar      1 <0>        -0.1115
     21 C17        -1.4775   -4.3165   -3.1556 C.ar      1 <0>        -0.0653
     22 C18        -2.0840   -3.5567   -2.1726 C.ar      1 <0>        -0.0221
     23 N2         -2.9583   -4.2053   -1.1696 N.pl3     1 <0>         0.0292
     24 O3         -3.8294   -4.9635   -1.5273 O.2       1 <0>        -0.1407
     25 O4         -2.8012   -3.9769    0.0071 O.3       1 <0>        -0.1482
     26 C19        -4.5320   -0.5080   -2.3432 C.2       1 <0>         0.5186
     27 O5         -5.1561    0.3938   -2.8704 O.2       1 <0>        -0.5184
     28 O6         -5.0165   -1.7674   -2.3664 O.3       1 <0>        -0.3541
     29 C20        -6.2674   -1.9691   -3.0271 C.3       1 <0>         0.0384
     30 H2         -3.0887    3.0655   -2.2537 H         1 <0>         0.0663
     31 H3         -3.7393    1.8870   -3.4183 H         1 <0>         0.1040
     32 H4         -4.6001    2.1978   -1.8916 H         1 <0>         0.1065
     33 H5         -1.1862    2.1517   -1.2926 H         1 <0>         0.4251
     34 H6          0.9480    0.7872    0.3373 H         1 <0>         0.0967
     35 H7         -0.1843    2.0036    0.9749 H         1 <0>         0.0860
     36 H8         -0.1054    0.3868    1.7151 H         1 <0>         0.0874
     37 H9          0.9199   -2.5515    2.5503 H         1 <0>         0.0673
     38 H10         0.1677   -3.9460    1.7391 H         1 <0>         0.0711
     39 H11         2.8599   -2.7371    0.9648 H         1 <0>         0.0802
     40 H12         2.1922   -5.2736    2.5259 H         1 <0>         0.0595
     41 H13         3.8190   -4.7735    2.0049 H         1 <0>         0.0651
     42 H14         2.9304   -3.8022    3.2029 H         1 <0>         0.0590
     43 H15         1.6438   -3.8674   -0.8770 H         1 <0>         0.0587
     44 H16         3.0677   -4.8115   -0.3776 H         1 <0>         0.0576
     45 H17         1.4409   -5.3117    0.1434 H         1 <0>         0.0534
     46 H18        -0.8913   -0.5190   -3.0256 H         1 <0>         0.1351
     47 H19         0.1945   -1.8732   -4.7719 H         1 <0>         0.1411
     48 H20        -0.1816   -4.3054   -4.8555 H         1 <0>         0.1461
     49 H21        -1.6426   -5.3832   -3.1925 H         1 <0>         0.1445
     50 H22        -6.5412   -3.0228   -2.9728 H         1 <0>         0.1032
     51 H23        -7.0361   -1.3685   -2.5409 H         1 <0>         0.0609
     52 H24        -6.1791   -1.6700   -4.0715 H         1 <0>         0.0593
@<TRIPOS>BOND
     1    1    2 1
     2    1   30 1
     3    1   31 1
     4    1   32 1
     5    2    8 1
     6    2    3 2
     7    3    4 1
     8    3   26 1
     9    4    5 1
    10    4    6 1
    11    4   17 1
    12    6    7 2
    13    6   10 1
    14    7    8 1
    15    7    9 1
    16    8   33 1
    17    9   34 1
    18    9   35 1
    19    9   36 1
    20   10   11 2
    21   10   12 1
    22   12   13 1
    23   13   14 1
    24   13   37 1
    25   13   38 1
    26   14   15 1
    27   14   16 1
    28   14   39 1
    29   15   40 1
    30   15   41 1
    31   15   42 1
    32   16   43 1
    33   16   44 1
    34   16   45 1
    35   17   22 ar
    36   17   18 ar
    37   18   19 ar
    38   18   46 1
    39   19   20 ar
    40   19   47 1
    41   20   21 ar
    42   20   48 1
    43   21   22 ar
    44   21   49 1
    45   22   23 1
    46   23   24 2
    47   23   25 1
    48   26   27 2
    49   26   28 1
    50   28   29 1
    51   29   50 1
    52   29   51 1
    53   29   52 1
@<TRIPOS>MOLECULE
ZINC19227923
   45    46     0     0     0
SMALL
USER_CHARGES

@<TRIPOS>ATOM
      1 C1         -0.0684    1.5563    0.3771 C.3       1 <0>        -0.1494
      2 C2         -0.1115    0.0666    0.7231 C.3       1 <0>         0.0614
      3 O1         -1.3949   -0.4638    0.3862 O.3       1 <0>        -0.3322
      4 C3         -1.5989   -1.7733    0.6301 C.2       1 <0>         0.4728
      5 C4         -2.8138   -2.3490    0.3289 C.2       1 <0>        -0.3962
      6 C5         -3.0476   -3.8400    0.4967 C.3       1 <0>         0.1279
      7 H1         -2.3203   -4.3701   -0.1182 H         1 <0>         0.0487
      8 C6         -4.4331   -4.3381    0.1280 C.2       1 <0>        -0.3741
      9 C7         -5.3380   -3.4172   -0.3165 C.2       1 <0>         0.2821
     10 N1         -5.0444   -2.1309   -0.4314 N.2       1 <0>        -0.6434
     11 C8         -3.8857   -1.5862   -0.1382 C.2       1 <0>         0.2948
     12 C9         -3.7069   -0.1005   -0.3160 C.3       1 <0>        -0.1038
     13 C10        -6.7219   -3.8818   -0.6907 C.3       1 <0>        -0.1141
     14 C11        -4.7722   -5.6978    0.2396 C.2       1 <0>         0.5224
     15 O2         -5.9197   -6.0572    0.0457 O.2       1 <0>        -0.5546
     16 O3         -3.8255   -6.6057    0.5619 O.3       1 <0>        -0.3594
     17 C12        -4.2407   -7.9697    0.6580 C.3       1 <0>         0.0406
     18 C13        -2.7910   -4.1976    1.9380 C.ar      1 <0>        -0.0242
     19 C14        -3.5430   -3.6125    2.9398 C.ar      1 <0>        -0.0583
     20 C15        -3.3077   -3.9405    4.2617 C.ar      1 <0>        -0.1286
     21 C16        -2.3206   -4.8540    4.5821 C.ar      1 <0>        -0.0800
     22 C17        -1.5695   -5.4396    3.5805 C.ar      1 <0>        -0.0551
     23 C18        -1.8077   -5.1147    2.2579 C.ar      1 <0>        -0.0133
     24 N2         -0.5123   -6.4172    3.9236 N.pl3     1 <0>         0.0441
     25 O4         -0.3059   -6.7034    5.0799 O.2       1 <0>        -0.1839
     26 O5          0.1448   -6.9294    3.0475 O.3       1 <0>        -0.1682
     27 O6         -0.6146   -2.5198    1.1685 O.3       1 <0>        -0.6412
     28 H2          0.9105    1.9609    0.6341 H         1 <0>         0.0699
     29 H3         -0.2466    1.6867   -0.6903 H         1 <0>         0.0623
     30 H4         -0.8385    2.0827    0.9409 H         1 <0>         0.0618
     31 H5          0.6586   -0.4598    0.1593 H         1 <0>         0.0591
     32 H6          0.0667   -0.0638    1.7905 H         1 <0>         0.0577
     33 H7         -2.9246    0.0859   -1.0518 H         1 <0>         0.0801
     34 H8         -4.6426    0.3393   -0.6613 H         1 <0>         0.0633
     35 H9         -3.4243    0.3481    0.6363 H         1 <0>         0.0761
     36 H10        -7.3427   -3.9316    0.2038 H         1 <0>         0.0707
     37 H11        -7.1615   -3.1800   -1.3994 H         1 <0>         0.0549
     38 H12        -6.6624   -4.8698   -1.1472 H         1 <0>         0.0964
     39 H13        -3.3857   -8.5919    0.9224 H         1 <0>         0.0877
     40 H14        -5.0088   -8.0625    1.4257 H         1 <0>         0.0487
     41 H15        -4.6442   -8.2951   -0.3009 H         1 <0>         0.0515
     42 H16        -4.3141   -2.8990    2.6895 H         1 <0>         0.1279
     43 H17        -3.8947   -3.4830    5.0443 H         1 <0>         0.1347
     44 H18        -2.1363   -5.1098    5.6151 H         1 <0>         0.1400
     45 H19        -1.2233   -5.5750    1.4751 H         1 <0>         0.1420
@<TRIPOS>BOND
     1    1    2 1
     2    1   28 1
     3    1   29 1
     4    1   30 1
     5    2    3 1
     6    2   31 1
     7    2   32 1
     8    3    4 1
     9    4    5 2
    10    4   27 1
    11    5   11 1
    12    5    6 1
    13    6    7 1
    14    6    8 1
    15    6   18 1
    16    8    9 2
    17    8   14 1
    18    9   10 1
    19    9   13 1
    20   10   11 2
    21   11   12 1
    22   12   33 1
    23   12   34 1
    24   12   35 1
    25   13   36 1
    26   13   37 1
    27   13   38 1
    28   14   15 2
    29   14   16 1
    30   16   17 1
    31   17   39 1
    32   17   40 1
    33   17   41 1
    34   18   23 ar
    35   18   19 ar
    36   19   20 ar
    37   19   42 1
    38   20   21 ar
    39   20   43 1
    40   21   22 ar
    41   21   44 1
    42   22   23 ar
    43   22   24 1
    44   23   45 1
    45   24   25 2
    46   24   26 1
@<TRIPOS>MOLECULE
ZINC19227925
   46    47     0     0     0
SMALL
USER_CHARGES

@<TRIPOS>ATOM
      1 C1          1.1539   -1.9281    2.8628 C.3       1 <0>        -0.1517
      2 C2          0.5135   -1.5475    1.5264 C.3       1 <0>         0.0569
      3 O1         -0.7923   -2.1220    1.4432 O.3       1 <0>        -0.3471
      4 C3         -1.4975   -1.8801    0.3183 C.2       1 <0>         0.5316
      5 O2         -1.0153   -1.1993   -0.5676 O.2       1 <0>        -0.4933
      6 C4         -2.7969   -2.4177    0.1690 C.2       1 <0>        -0.2322
      7 C5         -2.9404   -3.7297   -0.0865 C.2       1 <0>         0.1907
      8 N1         -4.1825   -4.2811   -0.2445 N.pl3     1 <0>        -0.6287
      9 C6         -5.2637   -3.4838   -0.5041 C.2       1 <0>         0.2458
     10 C7         -5.2171   -2.1616   -0.2660 C.2       1 <0>        -0.2634
     11 C8         -3.9874   -1.5115    0.3055 C.3       1 <0>         0.0880
     12 H1         -3.7940   -0.5818   -0.2296 H         1 <0>         0.1012
     13 C9         -4.2137   -1.2058    1.7637 C.ar      1 <0>        -0.0739
     14 C10        -4.4615   -2.2332    2.6551 C.ar      1 <0>        -0.0488
     15 C11        -4.6690   -1.9528    3.9925 C.ar      1 <0>        -0.1162
     16 C12        -4.6283   -0.6450    4.4390 C.ar      1 <0>        -0.0560
     17 C13        -4.3797    0.3820    3.5481 C.ar      1 <0>        -0.0468
     18 C14        -4.1678    0.1011    2.2110 C.ar      1 <0>        -0.0387
     19 N2         -4.3366    1.7822    4.0261 N.pl3     1 <0>         0.0337
     20 O3         -4.5189    2.0276    5.1958 O.2       1 <0>        -0.1595
     21 O4         -4.1191    2.6806    3.2467 O.3       1 <0>        -0.1565
     22 C15        -6.3502   -1.3664   -0.5548 C.2       1 <0>         0.5195
     23 O5         -7.3532   -1.8802   -1.0138 O.2       1 <0>        -0.5192
     24 O6         -6.3192   -0.0376   -0.3214 O.3       1 <0>        -0.3507
     25 C16        -7.4992    0.7042   -0.6366 C.3       1 <0>         0.0364
     26 C17        -6.5220   -4.0953   -1.0642 C.3       1 <0>        -0.1180
     27 C18        -1.7180   -4.6037   -0.2009 C.3       1 <0>        -0.1325
     28 H2          2.1499   -1.4899    2.9262 H         1 <0>         0.0811
     29 H3          0.5388   -1.5524    3.6805 H         1 <0>         0.0657
     30 H4          1.2291   -3.0132    2.9336 H         1 <0>         0.0666
     31 H5          0.4382   -0.4624    1.4555 H         1 <0>         0.0685
     32 H6          1.1285   -1.9232    0.7087 H         1 <0>         0.0690
     33 H7         -4.2971   -5.2416   -0.1724 H         1 <0>         0.4251
     34 H8         -4.4933   -3.2549    2.3063 H         1 <0>         0.1324
     35 H9         -4.8633   -2.7553    4.6886 H         1 <0>         0.1470
     36 H10        -4.7911   -0.4258    5.4839 H         1 <0>         0.1529
     37 H11        -3.9699    0.9033    1.5155 H         1 <0>         0.1529
     38 H12        -7.3404    1.7567   -0.4017 H         1 <0>         0.1016
     39 H13        -7.7221    0.5985   -1.6983 H         1 <0>         0.0613
     40 H14        -8.3353    0.3233   -0.0501 H         1 <0>         0.0589
     41 H15        -6.3789   -5.1682   -1.1920 H         1 <0>         0.0656
     42 H16        -7.3492   -3.9184   -0.3767 H         1 <0>         0.1036
     43 H17        -6.7482   -3.6414   -2.0291 H         1 <0>         0.1065
     44 H18        -1.4391   -4.9693    0.7873 H         1 <0>         0.0981
     45 H19        -1.9358   -5.4494   -0.8531 H         1 <0>         0.0860
     46 H20        -0.8951   -4.0244   -0.6196 H         1 <0>         0.0863
@<TRIPOS>BOND
     1    1    2 1
     2    1   28 1
     3    1   29 1
     4    1   30 1
     5    2    3 1
     6    2   31 1
     7    2   32 1
     8    3    4 1
     9    4    5 2
    10    4    6 1
    11    6   11 1
    12    6    7 2
    13    7    8 1
    14    7   27 1
    15    8    9 1
    16    8   33 1
    17    9   10 2
    18    9   26 1
    19   10   11 1
    20   10   22 1
    21   11   12 1
    22   11   13 1
    23   13   18 ar
    24   13   14 ar
    25   14   15 ar
    26   14   34 1
    27   15   16 ar
    28   15   35 1
    29   16   17 ar
    30   16   36 1
    31   17   18 ar
    32   17   19 1
    33   18   37 1
    34   19   20 2
    35   19   21 1
    36   22   23 2
    37   22   24 1
    38   24   25 1
    39   25   38 1
    40   25   39 1
    41   25   40 1
    42   26   41 1
    43   26   42 1
    44   26   43 1
    45   27   44 1
    46   27   45 1
    47   27   46 1
@<TRIPOS>MOLECULE
ZINC19227925
   45    46     0     0     0
SMALL
USER_CHARGES

@<TRIPOS>ATOM
      1 C1         -0.1207    1.6149    0.2400 C.3       1 <0>        -0.1493
      2 C2         -0.1469    0.1373    0.6361 C.3       1 <0>         0.0612
      3 O1         -1.4224   -0.4199    0.3129 O.3       1 <0>        -0.3323
      4 C3         -1.6114   -1.7229    0.6003 C.2       1 <0>         0.4736
      5 C4         -2.8180   -2.3234    0.3146 C.2       1 <0>        -0.3961
      6 C5         -3.0195   -3.8186    0.4865 C.3       1 <0>         0.1278
      7 H1         -2.8124   -4.0729    1.5260 H         1 <0>         0.0488
      8 C6         -4.3990   -4.3450    0.1353 C.2       1 <0>        -0.3743
      9 C7         -5.3278   -3.4431   -0.2988 C.2       1 <0>         0.2823
     10 N1         -5.0617   -2.1513   -0.4183 N.2       1 <0>        -0.6435
     11 C8         -3.9107   -1.5829   -0.1399 C.2       1 <0>         0.2947
     12 C9         -3.7643   -0.0941   -0.3212 C.3       1 <0>        -0.1041
     13 C10        -6.7065   -3.9360   -0.6555 C.3       1 <0>        -0.1140
     14 C11        -4.7091   -5.7112    0.2523 C.2       1 <0>         0.5221
     15 O2         -5.8532   -6.0928    0.0818 O.2       1 <0>        -0.5546
     16 O3         -3.7384   -6.6007    0.5536 O.3       1 <0>        -0.3589
     17 C12        -4.1248   -7.9726    0.6566 C.3       1 <0>         0.0406
     18 C13        -2.0131   -4.5319   -0.3792 C.ar      1 <0>        -0.0265
     19 C14        -2.0087   -4.3267   -1.7465 C.ar      1 <0>        -0.0582
     20 C15        -1.0857   -4.9809   -2.5405 C.ar      1 <0>        -0.1289
     21 C16        -0.1666   -5.8402   -1.9674 C.ar      1 <0>        -0.0793
     22 C17        -0.1704   -6.0446   -0.6005 C.ar      1 <0>        -0.0556
     23 C18        -1.0909   -5.3869    0.1943 C.ar      1 <0>        -0.0124
     24 N2          0.8132   -6.9649    0.0130 N.pl3     1 <0>         0.0439
     25 O4          1.6200   -7.5378   -0.6817 O.2       1 <0>        -0.1838
     26 O5          0.8099   -7.1437    1.2086 O.3       1 <0>        -0.1677
     27 O6         -0.6201   -2.4386    1.1670 O.3       1 <0>        -0.6416
     28 H2          0.8523    2.0400    0.4866 H         1 <0>         0.0700
     29 H3         -0.2963    1.7069   -0.8318 H         1 <0>         0.0617
     30 H4         -0.8993    2.1505    0.7831 H         1 <0>         0.0625
     31 H5          0.6318   -0.3983    0.0931 H         1 <0>         0.0576
     32 H6          0.0288    0.0453    1.7080 H         1 <0>         0.0592
     33 H7         -2.9830    0.1076   -1.0541 H         1 <0>         0.0806
     34 H8         -4.7080    0.3238   -0.6718 H         1 <0>         0.0634
     35 H9         -3.4958    0.3633    0.6311 H         1 <0>         0.0756
     36 H10        -7.3162   -3.9939    0.2462 H         1 <0>         0.0716
     37 H11        -7.1675   -3.2459   -1.3622 H         1 <0>         0.0547
     38 H12        -6.6329   -4.9247   -1.1085 H         1 <0>         0.0957
     39 H13        -3.2525   -8.5783    0.9024 H         1 <0>         0.0863
     40 H14        -4.8748   -8.0810    1.4401 H         1 <0>         0.0518
     41 H15        -4.5418   -8.3050   -0.2941 H         1 <0>         0.0491
     42 H16        -2.7267   -3.6555   -2.1941 H         1 <0>         0.1288
     43 H17        -1.0827   -4.8212   -3.6086 H         1 <0>         0.1350
     44 H18         0.5541   -6.3519   -2.5879 H         1 <0>         0.1402
     45 H19        -1.0915   -5.5438    1.2628 H         1 <0>         0.1423
@<TRIPOS>BOND
     1    1    2 1
     2    1   28 1
     3    1   29 1
     4    1   30 1
     5    2    3 1
     6    2   31 1
     7    2   32 1
     8    3    4 1
     9    4    5 2
    10    4   27 1
    11    5   11 1
    12    5    6 1
    13    6    7 1
    14    6    8 1
    15    6   18 1
    16    8    9 2
    17    8   14 1
    18    9   10 1
    19    9   13 1
    20   10   11 2
    21   11   12 1
    22   12   33 1
    23   12   34 1
    24   12   35 1
    25   13   36 1
    26   13   37 1
    27   13   38 1
    28   14   15 2
    29   14   16 1
    30   16   17 1
    31   17   39 1
    32   17   40 1
    33   17   41 1
    34   18   23 ar
    35   18   19 ar
    36   19   20 ar
    37   19   42 1
    38   20   21 ar
    39   20   43 1
    40   21   22 ar
    41   21   44 1
    42   22   23 ar
    43   22   24 1
    44   23   45 1
    45   24   25 2
    46   24   26 1
