@<TRIPOS>MOLECULE
ZINC19594578
   42    43     0     0     0
SMALL
USER_CHARGES

@<TRIPOS>ATOM
      1 C1          2.2963   -1.7884   -0.7145 C.3       1 <0>        -0.0923
      2 C2          1.4718   -3.0131   -0.4122 C.2       1 <0>         0.3012
      3 C3          0.0896   -2.9174   -0.4479 C.2       1 <0>        -0.3659
      4 C4         -0.7042   -4.1738   -0.1379 C.3       1 <0>         0.1078
      5 H1         -1.3383   -4.3964   -0.9961 H         1 <0>         0.0608
      6 C5          0.1142   -5.4119    0.1811 C.2       1 <0>        -0.3854
      7 C6         -0.4961   -6.6246    0.4812 C.2       1 <0>         0.4775
      8 O1         -1.8126   -6.7635    0.3291 O.3       1 <0>        -0.6205
      9 O2          0.2441   -7.6599    0.9261 O.3       1 <0>        -0.3341
     10 C7         -0.4487   -8.8759    1.2150 C.3       1 <0>         0.0364
     11 C8          1.4942   -5.2852    0.1607 C.2       1 <0>         0.2892
     12 N1          2.0880   -4.1435   -0.1272 N.2       1 <0>        -0.6421
     13 C9          2.3427   -6.4910    0.4723 C.3       1 <0>        -0.1054
     14 C10        -1.5971   -3.8874    1.0419 C.ar      1 <0>         0.0222
     15 C11        -1.0432   -3.6451    2.2853 C.ar      1 <0>        -0.1052
     16 C12        -1.8620   -3.3825    3.3673 C.ar      1 <0>        -0.0902
     17 C13        -3.2350   -3.3617    3.2062 C.ar      1 <0>        -0.1344
     18 C14        -3.7887   -3.6031    1.9630 C.ar      1 <0>        -0.0786
     19 C15        -2.9694   -3.8615    0.8798 C.ar      1 <0>        -0.0045
     20 N2         -3.5622   -4.1150   -0.4527 N.pl3     1 <0>         0.0414
     21 O3         -4.4639   -4.9114   -0.5715 O.2       1 <0>        -0.1804
     22 O4         -3.1445   -3.5256   -1.4221 O.3       1 <0>        -0.1243
     23 C16        -0.5445   -1.7188   -0.7549 C.2       1 <0>         0.4850
     24 O5          0.1786   -0.6320   -1.0224 O.2       1 <0>        -0.6277
     25 O6         -1.8910   -1.6562   -0.7820 O.3       1 <0>        -0.3126
     26 C17        -2.4753   -0.3927   -1.1050 C.3       1 <0>         0.0441
     27 H2          3.3553   -2.0378   -0.6477 H         1 <0>         0.0511
     28 H3          2.0687   -1.4364   -1.7207 H         1 <0>         0.0825
     29 H4          2.0613   -1.0052    0.0062 H         1 <0>         0.0805
     30 H5         -1.1939   -8.6944    1.9895 H         1 <0>         0.0514
     31 H6         -0.9429   -9.2357    0.3125 H         1 <0>         0.0531
     32 H7          0.2622   -9.6252    1.5632 H         1 <0>         0.0877
     33 H8          2.0952   -7.2976   -0.2177 H         1 <0>         0.0761
     34 H9          3.3960   -6.2316    0.3652 H         1 <0>         0.0659
     35 H10         2.1507   -6.8159    1.4949 H         1 <0>         0.0804
     36 H11         0.0294   -3.6613    2.4111 H         1 <0>         0.1319
     37 H12        -1.4294   -3.1939    4.3387 H         1 <0>         0.1296
     38 H13        -3.8749   -3.1572    4.0519 H         1 <0>         0.1333
     39 H14        -4.8612   -3.5872    1.8373 H         1 <0>         0.1319
     40 H15        -3.5617   -0.4808   -1.0919 H         1 <0>         0.0816
     41 H16        -2.1623    0.3504   -0.3716 H         1 <0>         0.0468
     42 H17        -2.1477   -0.0840   -2.0977 H         1 <0>         0.0541
@<TRIPOS>BOND
     1    1    2 1
     2    1   27 1
     3    1   28 1
     4    1   29 1
     5    2   12 1
     6    2    3 2
     7    3    4 1
     8    3   23 1
     9    4    5 1
    10    4    6 1
    11    4   14 1
    12    6    7 2
    13    6   11 1
    14    7    8 1
    15    7    9 1
    16    9   10 1
    17   10   30 1
    18   10   31 1
    19   10   32 1
    20   11   12 2
    21   11   13 1
    22   13   33 1
    23   13   34 1
    24   13   35 1
    25   14   19 ar
    26   14   15 ar
    27   15   16 ar
    28   15   36 1
    29   16   17 ar
    30   16   37 1
    31   17   18 ar
    32   17   38 1
    33   18   19 ar
    34   18   39 1
    35   19   20 1
    36   20   21 2
    37   20   22 1
    38   23   24 2
    39   23   25 1
    40   25   26 1
    41   26   40 1
    42   26   41 1
    43   26   42 1
