@<TRIPOS>MOLECULE
ZINC00601265
   64    66     0     0     0
SMALL
USER_CHARGES

@<TRIPOS>ATOM
      1 C1         -0.0215    0.6123    0.1122 C.3       1 <0>        -0.1028
      2 C2         -0.3328   -0.8583    0.2189 C.2       1 <0>         0.3018
      3 C3         -1.6378   -1.2584    0.1811 C.2       1 <0>        -0.3963
      4 C4         -1.9198   -2.7457    0.2903 C.3       1 <0>         0.1349
      5 H1         -2.5640   -2.9077    1.1544 H         1 <0>         0.0448
      6 C5         -0.7020   -3.6417    0.4318 C.2       1 <0>        -0.3929
      7 C6         -0.8244   -5.0097    0.5393 C.2       1 <0>         0.4764
      8 O1         -2.0446   -5.5700    0.6539 O.3       1 <0>        -0.6396
      9 O2          0.2760   -5.7875    0.5297 O.3       1 <0>        -0.3314
     10 C7          0.0749   -7.1976    0.6450 C.3       1 <0>         0.0366
     11 C8          0.5471   -3.0185    0.4479 C.2       1 <0>         0.3009
     12 N1          0.6696   -1.7151    0.3403 N.2       1 <0>        -0.6384
     13 C9          1.7873   -3.8634    0.5863 C.3       1 <0>        -0.1107
     14 C10        -2.6737   -3.1738   -0.9424 C.ar      1 <0>        -0.0312
     15 C11        -2.1014   -3.0188   -2.1913 C.ar      1 <0>        -0.0531
     16 C12        -2.7929   -3.4114   -3.3218 C.ar      1 <0>        -0.1220
     17 C13        -4.0567   -3.9594   -3.2037 C.ar      1 <0>        -0.0746
     18 C14        -4.6284   -4.1152   -1.9550 C.ar      1 <0>        -0.0609
     19 C15        -3.9350   -3.7264   -0.8239 C.ar      1 <0>        -0.0265
     20 N2         -5.9817   -4.7014   -1.8286 N.pl3     1 <0>         0.0436
     21 O3         -6.5868   -5.0441   -2.8175 O.2       1 <0>        -0.1681
     22 O4         -6.4818   -4.8377   -0.7363 O.3       1 <0>        -0.1847
     23 C16        -2.6820   -0.3267    0.0465 C.2       1 <0>         0.5291
     24 O5         -2.4304    0.8619   -0.0389 O.2       1 <0>        -0.5459
     25 O6         -3.9642   -0.7498    0.0119 O.3       1 <0>        -0.3748
     26 C17        -4.9743    0.2516   -0.1266 C.3       1 <0>         0.0360
     27 C18        -6.3522   -0.4132   -0.1463 C.3       1 <0>        -0.0015
     28 N3         -6.5959   -1.0731    1.1433 N.4       1 <0>        -0.3855
     29 C19        -7.8507   -1.8339    1.0746 C.3       1 <0>        -0.0535
     30 C20        -6.6954   -0.0589    2.2013 C.3       1 <0>         0.0378
     31 C21        -6.8226   -0.7399    3.5396 C.ar      1 <0>        -0.1561
     32 C22        -8.0724   -1.0566    4.0380 C.ar      1 <0>        -0.0972
     33 C23        -8.1890   -1.6813    5.2657 C.ar      1 <0>        -0.1170
     34 C24        -7.0557   -1.9897    5.9947 C.ar      1 <0>        -0.0868
     35 C25        -5.8058   -1.6739    5.4958 C.ar      1 <0>        -0.1114
     36 C26        -5.6890   -1.0530    4.2663 C.ar      1 <0>        -0.0880
     37 H2          1.0578    0.7592    0.1541 H         1 <0>         0.0608
     38 H3         -0.4041    0.9971   -0.8331 H         1 <0>         0.0790
     39 H4         -0.4928    1.1444    0.9385 H         1 <0>         0.0783
     40 H5          1.0393   -7.7051    0.6239 H         1 <0>         0.0906
     41 H6         -0.4306   -7.4168    1.5855 H         1 <0>         0.0542
     42 H7         -0.5375   -7.5464   -0.1865 H         1 <0>         0.0522
     43 H8          1.8838   -4.5125   -0.2840 H         1 <0>         0.0828
     44 H9          2.6618   -3.2164    0.6558 H         1 <0>         0.0686
     45 H10         1.7134   -4.4724    1.4873 H         1 <0>         0.0808
     46 H11        -1.1142   -2.5907   -2.2836 H         1 <0>         0.1321
     47 H12        -2.3461   -3.2897   -4.2976 H         1 <0>         0.1399
     48 H13        -4.5973   -4.2655   -4.0871 H         1 <0>         0.1441
     49 H14        -4.3802   -3.8516    0.1521 H         1 <0>         0.1359
     50 H15        -4.9169    0.9441    0.7131 H         1 <0>         0.0840
     51 H16        -4.8204    0.7964   -1.0581 H         1 <0>         0.1046
     52 H17        -7.1181    0.3432   -0.3179 H         1 <0>         0.1451
     53 H18        -6.3871   -1.1534   -0.9456 H         1 <0>         0.1335
     54 H19        -8.6655   -1.1662    0.7945 H         1 <0>         0.1201
     55 H20        -7.7562   -2.6241    0.3298 H         1 <0>         0.1277
     56 H21        -8.0615   -2.2757    2.0485 H         1 <0>         0.1261
     57 H22        -5.8004    0.5631    2.1937 H         1 <0>         0.1352
     58 H23        -7.5724    0.5642    2.0260 H         1 <0>         0.1352
     59 H24        -8.9578   -0.8157    3.4685 H         1 <0>         0.1301
     60 H25        -9.1656   -1.9281    5.6554 H         1 <0>         0.1335
     61 H26        -7.1469   -2.4772    6.9541 H         1 <0>         0.1332
     62 H27        -4.9204   -1.9145    6.0655 H         1 <0>         0.1352
     63 H28        -4.7123   -0.8096    3.8748 H         1 <0>         0.1327
     64 H29        -5.8331   -1.7005    1.3495 H         1 <0>         0.4337
@<TRIPOS>BOND
     1    1    2 1
     2    1   37 1
     3    1   38 1
     4    1   39 1
     5    2   12 1
     6    2    3 2
     7    3    4 1
     8    3   23 1
     9    4    5 1
    10    4    6 1
    11    4   14 1
    12    6    7 2
    13    6   11 1
    14    7    8 1
    15    7    9 1
    16    9   10 1
    17   10   40 1
    18   10   41 1
    19   10   42 1
    20   11   12 2
    21   11   13 1
    22   13   43 1
    23   13   44 1
    24   13   45 1
    25   14   19 ar
    26   14   15 ar
    27   15   16 ar
    28   15   46 1
    29   16   17 ar
    30   16   47 1
    31   17   18 ar
    32   17   48 1
    33   18   19 ar
    34   18   20 1
    35   19   49 1
    36   20   21 2
    37   20   22 1
    38   23   24 2
    39   23   25 1
    40   25   26 1
    41   26   27 1
    42   26   50 1
    43   26   51 1
    44   27   28 1
    45   27   52 1
    46   27   53 1
    47   28   29 1
    48   28   30 1
    49   28   64 1
    50   29   54 1
    51   29   55 1
    52   29   56 1
    53   30   31 1
    54   30   57 1
    55   30   58 1
    56   31   36 ar
    57   31   32 ar
    58   32   33 ar
    59   32   59 1
    60   33   34 ar
    61   33   60 1
    62   34   35 ar
    63   34   61 1
    64   35   36 ar
    65   35   62 1
    66   36   63 1
@<TRIPOS>MOLECULE
ZINC00601265
   63    65     0     0     0
SMALL
USER_CHARGES

@<TRIPOS>ATOM
      1 C1          0.3477    0.3184   -0.5725 C.3       1 <0>        -0.0952
      2 C2          0.1335   -1.1442   -0.2795 C.2       1 <0>         0.2774
      3 C3         -1.1446   -1.6156   -0.1863 C.2       1 <0>        -0.3695
      4 C4         -1.3284   -3.0930    0.1092 C.3       1 <0>         0.1300
      5 H1         -1.9098   -3.1871    1.0264 H         1 <0>         0.0509
      6 C5         -0.0520   -3.8994    0.2716 C.2       1 <0>        -0.3955
      7 C6         -0.0842   -5.2500    0.5414 C.2       1 <0>         0.4702
      8 O1         -1.2599   -5.8592    0.7916 O.3       1 <0>        -0.6399
      9 O2          1.0600   -5.9618    0.5551 O.3       1 <0>        -0.3356
     10 C7          0.9523   -7.3575    0.8421 C.3       1 <0>         0.0382
     11 C8          1.1555   -3.2122    0.1352 C.2       1 <0>         0.2937
     12 N1          1.1917   -1.9257   -0.1273 N.2       1 <0>        -0.6436
     13 C9          2.4510   -3.9671    0.2873 C.3       1 <0>        -0.1041
     14 C10        -2.1258   -3.7024   -1.0150 C.ar      1 <0>        -0.0275
     15 C11        -1.6384   -3.6641   -2.3082 C.ar      1 <0>        -0.0603
     16 C12        -2.3697   -4.2230   -3.3393 C.ar      1 <0>        -0.1314
     17 C13        -3.5886   -4.8207   -3.0773 C.ar      1 <0>        -0.0813
     18 C14        -4.0755   -4.8597   -1.7844 C.ar      1 <0>        -0.0577
     19 C15        -3.3419   -4.3045   -0.7524 C.ar      1 <0>        -0.0011
     20 N2         -5.3807   -5.4991   -1.5041 N.pl3     1 <0>         0.0447
     21 O3         -6.0208   -5.9873   -2.4061 O.2       1 <0>        -0.1905
     22 O4         -5.8066   -5.5333   -0.3731 O.3       1 <0>        -0.1619
     23 C16        -2.2498   -0.7637   -0.3572 C.2       1 <0>         0.5224
     24 O5         -2.0766    0.4185   -0.5932 O.2       1 <0>        -0.5614
     25 O6         -3.5037   -1.2563   -0.2597 O.3       1 <0>        -0.3367
     26 C17        -4.5793   -0.3339   -0.4448 C.3       1 <0>         0.0766
     27 C18        -5.9129   -1.0696   -0.2988 C.3       1 <0>         0.0591
     28 N3         -6.0415   -1.5829    1.0716 N.3       1 <0>        -0.5218
     29 C19        -7.0931   -2.6053    1.1543 C.3       1 <0>         0.0213
     30 C20        -6.2931   -0.4908    2.0214 C.3       1 <0>         0.0901
     31 C21        -6.1754   -1.0131    3.4300 C.ar      1 <0>        -0.0729
     32 C22        -7.2871   -1.5253    4.0724 C.ar      1 <0>        -0.1145
     33 C23        -7.1792   -2.0044    5.3646 C.ar      1 <0>        -0.1243
     34 C24        -5.9594   -1.9717    6.0142 C.ar      1 <0>        -0.1221
     35 C25        -4.8475   -1.4604    5.3715 C.ar      1 <0>        -0.1196
     36 C26        -4.9545   -0.9852    4.0778 C.ar      1 <0>        -0.0918
     37 H2          1.4166    0.5270   -0.6182 H         1 <0>         0.0535
     38 H3         -0.1125    0.5687   -1.5284 H         1 <0>         0.0754
     39 H4         -0.1059    0.9174    0.2171 H         1 <0>         0.0758
     40 H5          0.3195   -7.8346    0.0937 H         1 <0>         0.0497
     41 H6          1.9436   -7.8102    0.8217 H         1 <0>         0.0850
     42 H7          0.5116   -7.4924    1.8299 H         1 <0>         0.0518
     43 H8          2.5271   -4.7200   -0.4972 H         1 <0>         0.0784
     44 H9          3.2875   -3.2730    0.2072 H         1 <0>         0.0632
     45 H10         2.4752   -4.4544    1.2621 H         1 <0>         0.0765
     46 H11        -0.6862   -3.1972   -2.5128 H         1 <0>         0.1274
     47 H12        -1.9893   -4.1925   -4.3496 H         1 <0>         0.1333
     48 H13        -4.1604   -5.2567   -3.8831 H         1 <0>         0.1382
     49 H14        -3.7206   -4.3382    0.2585 H         1 <0>         0.1450
     50 H15        -4.5151    0.4542    0.3054 H         1 <0>         0.0587
     51 H16        -4.5139    0.1056   -1.4401 H         1 <0>         0.0592
     52 H17        -6.7321   -0.3816   -0.5074 H         1 <0>         0.0507
     53 H18        -5.9482   -1.9009   -1.0029 H         1 <0>         0.0787
     54 H19        -6.8349   -3.4450    0.5091 H         1 <0>         0.0773
     55 H20        -7.1825   -2.9521    2.1837 H         1 <0>         0.0740
     56 H21        -8.0421   -2.1773    0.8314 H         1 <0>         0.0179
     57 H22        -5.5616    0.3020    1.8655 H         1 <0>         0.0819
     58 H23        -7.2965   -0.0956    1.8630 H         1 <0>         0.0391
     59 H24        -8.2401   -1.5509    3.5649 H         1 <0>         0.1162
     60 H25        -8.0479   -2.4039    5.8668 H         1 <0>         0.1180
     61 H26        -5.8752   -2.3454    7.0240 H         1 <0>         0.1178
     62 H27        -3.8946   -1.4345    5.8792 H         1 <0>         0.1204
     63 H28        -4.0850   -0.5892    3.5743 H         1 <0>         0.1223
@<TRIPOS>BOND
     1    1    2 1
     2    1   37 1
     3    1   38 1
     4    1   39 1
     5    2   12 1
     6    2    3 2
     7    3    4 1
     8    3   23 1
     9    4    5 1
    10    4    6 1
    11    4   14 1
    12    6    7 2
    13    6   11 1
    14    7    8 1
    15    7    9 1
    16    9   10 1
    17   10   40 1
    18   10   41 1
    19   10   42 1
    20   11   12 2
    21   11   13 1
    22   13   43 1
    23   13   44 1
    24   13   45 1
    25   14   19 ar
    26   14   15 ar
    27   15   16 ar
    28   15   46 1
    29   16   17 ar
    30   16   47 1
    31   17   18 ar
    32   17   48 1
    33   18   19 ar
    34   18   20 1
    35   19   49 1
    36   20   21 2
    37   20   22 1
    38   23   24 2
    39   23   25 1
    40   25   26 1
    41   26   27 1
    42   26   50 1
    43   26   51 1
    44   27   28 1
    45   27   52 1
    46   27   53 1
    47   28   29 1
    48   28   30 1
    49   29   54 1
    50   29   55 1
    51   29   56 1
    52   30   31 1
    53   30   57 1
    54   30   58 1
    55   31   36 ar
    56   31   32 ar
    57   32   33 ar
    58   32   59 1
    59   33   34 ar
    60   33   60 1
    61   34   35 ar
    62   34   61 1
    63   35   36 ar
    64   35   62 1
    65   36   63 1
@<TRIPOS>MOLECULE
ZINC00601265
   63    65     0     0     0
SMALL
USER_CHARGES

@<TRIPOS>ATOM
      1 C1         -0.1447    1.4930    0.1304 C.3       1 <0>        -0.0959
      2 C2         -0.0591   -0.0099    0.0595 C.2       1 <0>         0.2818
      3 C3         -1.2163   -0.7321   -0.0018 C.2       1 <0>        -0.3765
      4 C4         -1.0979   -2.2435   -0.0729 C.3       1 <0>         0.1154
      5 H1         -1.6327   -2.6674    0.7770 H         1 <0>         0.0503
      6 C5          0.3158   -2.7977   -0.0682 C.2       1 <0>        -0.3978
      7 C6          0.5572   -4.1527   -0.1294 C.2       1 <0>         0.4742
      8 O1          1.8205   -4.6076   -0.2441 O.3       1 <0>        -0.6458
      9 O2         -0.4701   -5.0232   -0.0744 O.3       1 <0>        -0.3361
     10 C7         -0.1467   -6.4134   -0.1432 C.3       1 <0>         0.0434
     11 C8          1.3603   -1.8740    0.0004 C.2       1 <0>         0.3161
     12 N1          1.1357   -0.5809    0.0534 N.2       1 <0>        -0.6451
     13 C9          2.7823   -2.3730    0.0080 C.3       1 <0>        -0.0919
     14 C10        -1.7783   -2.7103   -1.3340 C.ar      1 <0>        -0.0335
     15 C11        -1.3310   -2.2679   -2.5651 C.ar      1 <0>        -0.0540
     16 C12        -1.9550   -2.6960   -3.7217 C.ar      1 <0>        -0.1278
     17 C13        -3.0261   -3.5670   -3.6476 C.ar      1 <0>        -0.0789
     18 C14        -3.4727   -4.0100   -2.4168 C.ar      1 <0>        -0.0571
     19 C15        -2.8458   -3.5851   -1.2601 C.ar      1 <0>        -0.0180
     20 N2         -4.6198   -4.9421   -2.3374 N.pl3     1 <0>         0.0451
     21 O3         -5.1661   -5.3159   -3.3491 O.2       1 <0>        -0.1871
     22 O4         -5.0104   -5.3296   -1.2609 O.3       1 <0>        -0.1641
     23 C16        -2.4715   -0.0988    0.0013 C.2       1 <0>         0.5223
     24 O5         -2.5407    1.1158    0.0595 O.2       1 <0>        -0.5622
     25 O6         -3.6007   -0.8374   -0.0601 O.3       1 <0>        -0.3389
     26 C17        -4.8411   -0.1280   -0.0529 C.3       1 <0>         0.0759
     27 C18        -5.9993   -1.1249   -0.1277 C.3       1 <0>         0.0599
     28 N3         -6.0156   -1.9487    1.0885 N.3       1 <0>        -0.5221
     29 C19        -6.3302   -1.1356    2.2708 C.3       1 <0>         0.0183
     30 C20        -6.9574   -3.0680    0.9536 C.3       1 <0>         0.0949
     31 C21        -6.7714   -4.0224    2.1049 C.ar      1 <0>        -0.0741
     32 C22        -5.8690   -5.0643    2.0001 C.ar      1 <0>        -0.0860
     33 C23        -5.6984   -5.9399    3.0561 C.ar      1 <0>        -0.1208
     34 C24        -6.4299   -5.7732    4.2172 C.ar      1 <0>        -0.1230
     35 C25        -7.3317   -4.7308    4.3223 C.ar      1 <0>        -0.1286
     36 C26        -7.4991   -3.8527    3.2679 C.ar      1 <0>        -0.1172
     37 H2          0.8605    1.9128    0.1687 H         1 <0>         0.0540
     38 H3         -0.6623    1.8695   -0.7519 H         1 <0>         0.0755
     39 H4         -0.6942    1.7838    1.0257 H         1 <0>         0.0760
     40 H5          0.5050   -6.6765    0.6899 H         1 <0>         0.0524
     41 H6         -1.0622   -7.0025   -0.0885 H         1 <0>         0.0837
     42 H7          0.3636   -6.6217   -1.0836 H         1 <0>         0.0491
     43 H8          2.9907   -2.8906   -0.9284 H         1 <0>         0.0816
     44 H9          3.4631   -1.5287    0.1158 H         1 <0>         0.0493
     45 H10         2.9215   -3.0608    0.8421 H         1 <0>         0.0790
     46 H11        -0.4943   -1.5875   -2.6231 H         1 <0>         0.1294
     47 H12        -1.6061   -2.3498   -4.6834 H         1 <0>         0.1350
     48 H13        -3.5141   -3.9010   -4.5513 H         1 <0>         0.1397
     49 H14        -3.1923   -3.9342   -0.2986 H         1 <0>         0.1456
     50 H15        -4.9215    0.4541    0.8652 H         1 <0>         0.0605
     51 H16        -4.8819    0.5414   -0.9122 H         1 <0>         0.0590
     52 H17        -6.9409   -0.5823   -0.2117 H         1 <0>         0.0491
     53 H18        -5.8706   -1.7666   -0.9994 H         1 <0>         0.0778
     54 H19        -7.3112   -0.6772    2.1460 H         1 <0>         0.0209
     55 H20        -6.3358   -1.7701    3.1571 H         1 <0>         0.0737
     56 H21        -5.5771   -0.3562    2.3867 H         1 <0>         0.0689
     57 H22        -7.9784   -2.6865    0.9592 H         1 <0>         0.0369
     58 H23        -6.7696   -3.5897    0.0152 H         1 <0>         0.0861
     59 H24        -5.2975   -5.1945    1.0930 H         1 <0>         0.1362
     60 H25        -4.9939   -6.7543    2.9740 H         1 <0>         0.1204
     61 H26        -6.2972   -6.4577    5.0420 H         1 <0>         0.1161
     62 H27        -7.9035   -4.6008    5.2293 H         1 <0>         0.1156
     63 H28        -8.2009   -3.0361    3.3514 H         1 <0>         0.1134
@<TRIPOS>BOND
     1    1    2 1
     2    1   37 1
     3    1   38 1
     4    1   39 1
     5    2   12 1
     6    2    3 2
     7    3    4 1
     8    3   23 1
     9    4    5 1
    10    4    6 1
    11    4   14 1
    12    6    7 2
    13    6   11 1
    14    7    8 1
    15    7    9 1
    16    9   10 1
    17   10   40 1
    18   10   41 1
    19   10   42 1
    20   11   12 2
    21   11   13 1
    22   13   43 1
    23   13   44 1
    24   13   45 1
    25   14   19 ar
    26   14   15 ar
    27   15   16 ar
    28   15   46 1
    29   16   17 ar
    30   16   47 1
    31   17   18 ar
    32   17   48 1
    33   18   19 ar
    34   18   20 1
    35   19   49 1
    36   20   21 2
    37   20   22 1
    38   23   24 2
    39   23   25 1
    40   25   26 1
    41   26   27 1
    42   26   50 1
    43   26   51 1
    44   27   28 1
    45   27   52 1
    46   27   53 1
    47   28   29 1
    48   28   30 1
    49   29   54 1
    50   29   55 1
    51   29   56 1
    52   30   31 1
    53   30   57 1
    54   30   58 1
    55   31   36 ar
    56   31   32 ar
    57   32   33 ar
    58   32   59 1
    59   33   34 ar
    60   33   60 1
    61   34   35 ar
    62   34   61 1
    63   35   36 ar
    64   35   62 1
    65   36   63 1
@<TRIPOS>MOLECULE
ZINC00601265
   63    65     0     0     0
SMALL
USER_CHARGES

@<TRIPOS>ATOM
      1 C1          2.1844    2.5720   -0.5351 C.3       1 <0>        -0.0963
      2 C2          1.8111    1.1121   -0.5586 C.2       1 <0>         0.2822
      3 C3          0.5003    0.7714   -0.7317 C.2       1 <0>        -0.3777
      4 C4          0.1555   -0.7065   -0.7514 C.3       1 <0>         0.1288
      5 H1         -0.3264   -0.9311   -1.7030 H         1 <0>         0.0459
      6 C5          1.3231   -1.6611   -0.5740 C.2       1 <0>        -0.3946
      7 C6          1.1417   -3.0267   -0.5739 C.2       1 <0>         0.4728
      8 O1         -0.1032   -3.5411   -0.6154 O.3       1 <0>        -0.6448
      9 O2          2.2091   -3.8482   -0.5325 O.3       1 <0>        -0.3142
     10 C7          1.9543   -5.2495   -0.6494 C.3       1 <0>         0.0740
     11 C8          3.2618   -6.0226   -0.4659 C.3       1 <0>         0.0568
     12 N1          4.1676   -5.7250   -1.5834 N.3       1 <0>        -0.5256
     13 C9          3.7300   -6.4030   -2.8108 C.3       1 <0>         0.0173
     14 C10         5.5522   -6.0840   -1.2487 C.3       1 <0>         0.0938
     15 C11         6.4806   -5.5452   -2.3064 C.ar      1 <0>        -0.0753
     16 C12         6.7875   -6.3141   -3.4134 C.ar      1 <0>        -0.1161
     17 C13         7.6391   -5.8198   -4.3837 C.ar      1 <0>        -0.1247
     18 C14         8.1834   -4.5565   -4.2471 C.ar      1 <0>        -0.1224
     19 C15         7.8757   -3.7872   -3.1406 C.ar      1 <0>        -0.1199
     20 C16         7.0208   -4.2798   -2.1725 C.ar      1 <0>        -0.0931
     21 C17         2.5884   -1.0942   -0.4114 C.2       1 <0>         0.2970
     22 N2          2.7674    0.2071   -0.4161 N.2       1 <0>        -0.6442
     23 C18         3.7804   -1.9985   -0.2315 C.3       1 <0>        -0.1018
     24 C19        -0.8373   -0.9732    0.3505 C.ar      1 <0>        -0.0218
     25 C20        -0.5016   -0.7021    1.6640 C.ar      1 <0>        -0.0597
     26 C21        -1.4122   -0.9467    2.6746 C.ar      1 <0>        -0.1294
     27 C22        -2.6589   -1.4620    2.3720 C.ar      1 <0>        -0.0809
     28 C23        -2.9949   -1.7322    1.0588 C.ar      1 <0>        -0.0554
     29 C24        -2.0855   -1.4835    0.0474 C.ar      1 <0>        -0.0069
     30 N3         -4.3294   -2.2845    0.7349 N.pl3     1 <0>         0.0445
     31 O3         -5.1256   -2.4992    1.6190 O.2       1 <0>        -0.1855
     32 O4         -4.6233   -2.5208   -0.4138 O.3       1 <0>        -0.1687
     33 C25        -0.4937    1.7537   -0.8854 C.2       1 <0>         0.5216
     34 O5         -0.1922    2.9335   -0.8656 O.2       1 <0>        -0.5579
     35 O6         -1.7831    1.3889   -1.0551 O.3       1 <0>        -0.3600
     36 C26        -2.7402    2.4394   -1.2050 C.3       1 <0>         0.0413
     37 H2          3.2609    2.6695   -0.3945 H         1 <0>         0.0545
     38 H3          1.8978    3.0355   -1.4791 H         1 <0>         0.0763
     39 H4          1.6644    3.0668    0.2852 H         1 <0>         0.0753
     40 H5          1.2414   -5.5543    0.1167 H         1 <0>         0.0643
     41 H6          1.5414   -5.4626   -1.6354 H         1 <0>         0.0590
     42 H7          3.7313   -5.7251    0.4717 H         1 <0>         0.0834
     43 H8          3.0515   -7.0919   -0.4436 H         1 <0>         0.0518
     44 H9          2.7493   -6.0278   -3.1033 H         1 <0>         0.0702
     45 H10         4.4464   -6.2080   -3.6088 H         1 <0>         0.0728
     46 H11         3.6695   -7.4764   -2.6311 H         1 <0>         0.0227
     47 H12         5.8152   -5.6551   -0.2817 H         1 <0>         0.0845
     48 H13         5.6451   -7.1690   -1.2022 H         1 <0>         0.0392
     49 H14         6.3623   -7.3011   -3.5201 H         1 <0>         0.1159
     50 H15         7.8795   -6.4208   -5.2482 H         1 <0>         0.1178
     51 H16         8.8493   -4.1706   -5.0048 H         1 <0>         0.1181
     52 H17         8.3012   -2.8003   -3.0338 H         1 <0>         0.1216
     53 H18         6.7774   -3.6773   -1.3098 H         1 <0>         0.1257
     54 H19         3.9161   -2.6034   -1.1280 H         1 <0>         0.0892
     55 H20         4.6721   -1.3950   -0.0620 H         1 <0>         0.0588
     56 H21         3.6152   -2.6513    0.6256 H         1 <0>         0.0734
     57 H22         0.4722   -0.2995    1.9004 H         1 <0>         0.1272
     58 H23        -1.1497   -0.7355    3.7007 H         1 <0>         0.1337
     59 H24        -3.3702   -1.6538    3.1617 H         1 <0>         0.1390
     60 H25        -2.3494   -1.6912   -0.9791 H         1 <0>         0.1407
     61 H26        -3.7338    2.0101   -1.3331 H         1 <0>         0.0861
     62 H27        -2.7289    3.0708   -0.3165 H         1 <0>         0.0486
     63 H28        -2.4878    3.0387   -2.0798 H         1 <0>         0.0509
@<TRIPOS>BOND
     1    1    2 1
     2    1   37 1
     3    1   38 1
     4    1   39 1
     5    2   22 1
     6    2    3 2
     7    3    4 1
     8    3   33 1
     9    4    5 1
    10    4    6 1
    11    4   24 1
    12    6    7 2
    13    6   21 1
    14    7    8 1
    15    7    9 1
    16    9   10 1
    17   10   11 1
    18   10   40 1
    19   10   41 1
    20   11   12 1
    21   11   42 1
    22   11   43 1
    23   12   13 1
    24   12   14 1
    25   13   44 1
    26   13   45 1
    27   13   46 1
    28   14   15 1
    29   14   47 1
    30   14   48 1
    31   15   20 ar
    32   15   16 ar
    33   16   17 ar
    34   16   49 1
    35   17   18 ar
    36   17   50 1
    37   18   19 ar
    38   18   51 1
    39   19   20 ar
    40   19   52 1
    41   20   53 1
    42   21   22 2
    43   21   23 1
    44   23   54 1
    45   23   55 1
    46   23   56 1
    47   24   29 ar
    48   24   25 ar
    49   25   26 ar
    50   25   57 1
    51   26   27 ar
    52   26   58 1
    53   27   28 ar
    54   27   59 1
    55   28   29 ar
    56   28   30 1
    57   29   60 1
    58   30   31 2
    59   30   32 1
    60   33   34 2
    61   33   35 1
    62   35   36 1
    63   36   61 1
    64   36   62 1
    65   36   63 1
@<TRIPOS>MOLECULE
ZINC19796087
   65    67     0     0     0
SMALL
USER_CHARGES

@<TRIPOS>ATOM
      1 C1          0.7782    1.5823    1.6623 C.3       1 <0>        -0.1212
      2 C2          0.7333    0.1247    1.2822 C.2       1 <0>         0.2410
      3 C3         -0.4478   -0.4515    0.9991 C.2       1 <0>        -0.2540
      4 C4         -0.5393   -1.8991    0.6077 C.3       1 <0>         0.0879
      5 H1         -1.3770   -2.3601    1.1311 H         1 <0>         0.1033
      6 C5          0.7263   -2.6270    0.9620 C.2       1 <0>        -0.2441
      7 C6          1.8602   -1.9635    1.2466 C.2       1 <0>         0.2018
      8 N1          1.8957   -0.5946    1.2241 N.pl3     1 <0>        -0.6286
      9 C7          3.1084   -2.7355    1.5887 C.3       1 <0>        -0.1352
     10 C8          0.7246   -4.0407    0.9973 C.2       1 <0>         0.5449
     11 O1          0.1953   -4.6255    1.9239 O.2       1 <0>        -0.4703
     12 O2          1.3099   -4.7412    0.0034 O.3       1 <0>        -0.3657
     13 C9          1.3697   -6.1605    0.1581 C.3       1 <0>         0.0268
     14 C10         2.1674   -6.7665   -0.9984 C.3       1 <0>        -0.0026
     15 N2          3.5533   -6.2825   -0.9440 N.4       1 <0>        -0.3868
     16 C11         4.2074   -6.8053    0.2630 C.3       1 <0>        -0.0595
     17 C12         4.2803   -6.7442   -2.1340 C.3       1 <0>         0.0430
     18 C13         5.6576   -6.1328   -2.1499 C.ar      1 <0>        -0.1619
     19 C14         5.8461   -4.8675   -2.6738 C.ar      1 <0>        -0.0964
     20 C15         7.1095   -4.3067   -2.6884 C.ar      1 <0>        -0.1131
     21 C16         8.1843   -5.0109   -2.1786 C.ar      1 <0>        -0.0834
     22 C17         7.9956   -6.2758   -1.6538 C.ar      1 <0>        -0.1132
     23 C18         6.7315   -6.8349   -1.6353 C.ar      1 <0>        -0.0931
     24 C19        -0.7680   -1.9978   -0.8785 C.ar      1 <0>        -0.0751
     25 C20         0.1118   -1.3903   -1.7552 C.ar      1 <0>        -0.0538
     26 C21        -0.0980   -1.4808   -3.1183 C.ar      1 <0>        -0.1162
     27 C22        -1.1873   -2.1792   -3.6052 C.ar      1 <0>        -0.0554
     28 C23        -2.0663   -2.7872   -2.7289 C.ar      1 <0>        -0.0434
     29 C24        -1.8541   -2.7003   -1.3655 C.ar      1 <0>        -0.0412
     30 N3         -3.2328   -3.5345   -3.2502 N.pl3     1 <0>         0.0293
     31 O3         -3.3658   -3.6934   -4.4413 O.2       1 <0>        -0.1536
     32 O4         -4.0526   -3.9860   -2.4849 O.3       1 <0>        -0.1516
     33 C25        -1.6297    0.3216    1.0717 C.2       1 <0>         0.5149
     34 O5         -1.5706    1.4952    1.3877 O.2       1 <0>        -0.5108
     35 O6         -2.8231   -0.2423    0.7905 O.3       1 <0>        -0.3516
     36 C26        -3.9755    0.5975    0.8839 C.3       1 <0>         0.0353
     37 H2          1.8105    1.8770    1.8509 H         1 <0>         0.0676
     38 H3          0.3719    2.1827    0.8483 H         1 <0>         0.1065
     39 H4          0.1846    1.7415    2.5625 H         1 <0>         0.1091
     40 H5          2.7471   -0.1328    1.1708 H         1 <0>         0.4275
     41 H6          3.7035   -2.8821    0.6873 H         1 <0>         0.0911
     42 H7          3.6910   -2.1779    2.3220 H         1 <0>         0.0956
     43 H8          2.8336   -3.7050    2.0043 H         1 <0>         0.0811
     44 H9          1.8576   -6.4028    1.1022 H         1 <0>         0.0947
     45 H10         0.3592   -6.5692    0.1560 H         1 <0>         0.1179
     46 H11         2.1585   -7.8533   -0.9158 H         1 <0>         0.1538
     47 H12         1.7161   -6.4704   -1.9454 H         1 <0>         0.1435
     48 H13         3.6679   -6.4627    1.1460 H         1 <0>         0.1210
     49 H14         4.2039   -7.8949    0.2351 H         1 <0>         0.1279
     50 H15         5.2358   -6.4462    0.3034 H         1 <0>         0.1275
     51 H16         4.3653   -7.8306   -2.1090 H         1 <0>         0.1383
     52 H17         3.7386   -6.4427   -3.0305 H         1 <0>         0.1383
     53 H18         5.0064   -4.3174   -3.0721 H         1 <0>         0.1300
     54 H19         7.2569   -3.3185   -3.0983 H         1 <0>         0.1357
     55 H20         9.1714   -4.5730   -2.1906 H         1 <0>         0.1360
     56 H21         8.8353   -6.8261   -1.2558 H         1 <0>         0.1366
     57 H22         6.5834   -7.8216   -1.2220 H         1 <0>         0.1320
     58 H23         0.9627   -0.8448   -1.3748 H         1 <0>         0.1320
     59 H24         0.5889   -1.0057   -3.8031 H         1 <0>         0.1474
     60 H25        -1.3516   -2.2493   -4.6704 H         1 <0>         0.1544
     61 H26        -2.5389   -3.1786   -0.6808 H         1 <0>         0.1527
     62 H27        -4.8662    0.0214    0.6331 H         1 <0>         0.1038
     63 H28        -4.0647    0.9802    1.9006 H         1 <0>         0.0637
     64 H29        -3.8747    1.4314    0.1893 H         1 <0>         0.0611
     65 H30         3.5565   -5.2738   -0.9182 H         1 <0>         0.4270
@<TRIPOS>BOND
     1    1    2 1
     2    1   37 1
     3    1   38 1
     4    1   39 1
     5    2    8 1
     6    2    3 2
     7    3    4 1
     8    3   33 1
     9    4    5 1
    10    4    6 1
    11    4   24 1
    12    6    7 2
    13    6   10 1
    14    7    8 1
    15    7    9 1
    16    8   40 1
    17    9   41 1
    18    9   42 1
    19    9   43 1
    20   10   11 2
    21   10   12 1
    22   12   13 1
    23   13   14 1
    24   13   44 1
    25   13   45 1
    26   14   15 1
    27   14   46 1
    28   14   47 1
    29   15   16 1
    30   15   17 1
    31   15   65 1
    32   16   48 1
    33   16   49 1
    34   16   50 1
    35   17   18 1
    36   17   51 1
    37   17   52 1
    38   18   23 ar
    39   18   19 ar
    40   19   20 ar
    41   19   53 1
    42   20   21 ar
    43   20   54 1
    44   21   22 ar
    45   21   55 1
    46   22   23 ar
    47   22   56 1
    48   23   57 1
    49   24   29 ar
    50   24   25 ar
    51   25   26 ar
    52   25   58 1
    53   26   27 ar
    54   26   59 1
    55   27   28 ar
    56   27   60 1
    57   28   29 ar
    58   28   30 1
    59   29   61 1
    60   30   31 2
    61   30   32 1
    62   33   34 2
    63   33   35 1
    64   35   36 1
    65   36   62 1
    66   36   63 1
    67   36   64 1
@<TRIPOS>MOLECULE
ZINC19796087
   63    65     0     0     0
SMALL
USER_CHARGES

@<TRIPOS>ATOM
      1 C1          0.2573    1.4152   -0.0519 C.3       1 <0>        -0.0967
      2 C2         -0.2176    0.0503   -0.4791 C.2       1 <0>         0.2779
      3 C3         -1.5528   -0.1459   -0.6868 C.2       1 <0>        -0.3722
      4 C4         -2.0005   -1.5309   -1.1169 C.3       1 <0>         0.1293
      5 H1         -2.5192   -1.4401   -2.0713 H         1 <0>         0.0469
      6 C5         -0.8987   -2.5643   -1.2722 C.2       1 <0>        -0.3956
      7 C6         -1.1751   -3.8576   -1.6580 C.2       1 <0>         0.4704
      8 O1         -2.4249   -4.1970   -2.0308 O.3       1 <0>        -0.6403
      9 O2         -0.1958   -4.7833   -1.6627 O.3       1 <0>        -0.3354
     10 C7         -0.5536   -6.1042   -2.0741 C.3       1 <0>         0.0383
     11 C8          0.4067   -2.1462   -1.0074 C.2       1 <0>         0.2947
     12 N1          0.6761   -0.9128   -0.6445 N.2       1 <0>        -0.6433
     13 C9          1.5364   -3.1338   -1.1470 C.3       1 <0>        -0.1042
     14 C10        -2.9833   -2.0459   -0.0972 C.ar      1 <0>        -0.0269
     15 C11        -2.6681   -2.0061    1.2484 C.ar      1 <0>        -0.0551
     16 C12        -3.5695   -2.4784    2.1836 C.ar      1 <0>        -0.1253
     17 C13        -4.7867   -2.9903    1.7736 C.ar      1 <0>        -0.0781
     18 C14        -5.1021   -3.0293    0.4285 C.ar      1 <0>        -0.0522
     19 C15        -4.2022   -2.5529   -0.5067 C.ar      1 <0>        -0.0028
     20 N2         -6.4050   -3.5778   -0.0105 N.pl3     1 <0>         0.0445
     21 O3         -7.2078   -3.9583    0.8094 O.2       1 <0>        -0.1831
     22 O4         -6.6662   -3.6454   -1.1890 O.3       1 <0>        -0.1704
     23 C16        -2.4790    0.8965   -0.5082 C.2       1 <0>         0.5253
     24 O5         -2.0869    2.0281   -0.2864 O.2       1 <0>        -0.5595
     25 O6         -3.8036    0.6432   -0.5826 O.3       1 <0>        -0.3439
     26 C17        -4.6838    1.7670   -0.5165 C.3       1 <0>         0.0756
     27 C18        -6.1340    1.2794   -0.5129 C.3       1 <0>         0.0550
     28 N3         -6.4989    0.8385    0.8401 N.3       1 <0>        -0.5271
     29 C19        -6.5712    1.9785    1.7637 C.3       1 <0>         0.0190
     30 C20        -7.7632    0.0906    0.8269 C.3       1 <0>         0.0962
     31 C21        -8.0622   -0.4152    2.2147 C.ar      1 <0>        -0.0800
     32 C22        -7.4894   -1.5919    2.6597 C.ar      1 <0>        -0.0918
     33 C23        -7.7636   -2.0558    3.9327 C.ar      1 <0>        -0.1178
     34 C24        -8.6102   -1.3428    4.7608 C.ar      1 <0>        -0.1208
     35 C25        -9.1823   -0.1656    4.3160 C.ar      1 <0>        -0.1273
     36 C26        -8.9047    0.3006    3.0446 C.ar      1 <0>        -0.1152
     37 H2          1.3410    1.4028    0.0648 H         1 <0>         0.0543
     38 H3         -0.0183    2.1493   -0.8090 H         1 <0>         0.0801
     39 H4         -0.2073    1.6808    0.8977 H         1 <0>         0.0718
     40 H5         -0.9348   -6.0760   -3.0949 H         1 <0>         0.0520
     41 H6          0.3248   -6.7483   -2.0319 H         1 <0>         0.0850
     42 H7         -1.3235   -6.4957   -1.4093 H         1 <0>         0.0499
     43 H8          1.5221   -3.5628   -2.1489 H         1 <0>         0.0772
     44 H9          2.4862   -2.6248   -0.9832 H         1 <0>         0.0634
     45 H10         1.4178   -3.9280   -0.4100 H         1 <0>         0.0782
     46 H11        -1.7174   -1.6062    1.5687 H         1 <0>         0.1253
     47 H12        -3.3230   -2.4479    3.2346 H         1 <0>         0.1313
     48 H13        -5.4907   -3.3600    2.5043 H         1 <0>         0.1365
     49 H14        -4.4502   -2.5799   -1.5575 H         1 <0>         0.1417
     50 H15        -4.4872    2.3293    0.3963 H         1 <0>         0.0653
     51 H16        -4.5186    2.4092   -1.3816 H         1 <0>         0.0596
     52 H17        -6.7916    2.0928   -0.8196 H         1 <0>         0.0512
     53 H18        -6.2389    0.4459   -1.2073 H         1 <0>         0.0865
     54 H19        -7.3233    2.6844    1.4115 H         1 <0>         0.0227
     55 H20        -6.8431    1.6239    2.7579 H         1 <0>         0.0724
     56 H21        -5.6008    2.4730    1.8072 H         1 <0>         0.0694
     57 H22        -8.5696    0.7459    0.4975 H         1 <0>         0.0405
     58 H23        -7.6788   -0.7538    0.1428 H         1 <0>         0.0767
     59 H24        -6.8280   -2.1490    2.0128 H         1 <0>         0.1305
     60 H25        -7.3167   -2.9756    4.2802 H         1 <0>         0.1204
     61 H26        -8.8250   -1.7056    5.7551 H         1 <0>         0.1179
     62 H27        -9.8440    0.3913    4.9629 H         1 <0>         0.1173
     63 H28        -9.3487    1.2223    2.6985 H         1 <0>         0.1146
@<TRIPOS>BOND
     1    1    2 1
     2    1   37 1
     3    1   38 1
     4    1   39 1
     5    2   12 1
     6    2    3 2
     7    3    4 1
     8    3   23 1
     9    4    5 1
    10    4    6 1
    11    4   14 1
    12    6    7 2
    13    6   11 1
    14    7    8 1
    15    7    9 1
    16    9   10 1
    17   10   40 1
    18   10   41 1
    19   10   42 1
    20   11   12 2
    21   11   13 1
    22   13   43 1
    23   13   44 1
    24   13   45 1
    25   14   19 ar
    26   14   15 ar
    27   15   16 ar
    28   15   46 1
    29   16   17 ar
    30   16   47 1
    31   17   18 ar
    32   17   48 1
    33   18   19 ar
    34   18   20 1
    35   19   49 1
    36   20   21 2
    37   20   22 1
    38   23   24 2
    39   23   25 1
    40   25   26 1
    41   26   27 1
    42   26   50 1
    43   26   51 1
    44   27   28 1
    45   27   52 1
    46   27   53 1
    47   28   29 1
    48   28   30 1
    49   29   54 1
    50   29   55 1
    51   29   56 1
    52   30   31 1
    53   30   57 1
    54   30   58 1
    55   31   36 ar
    56   31   32 ar
    57   32   33 ar
    58   32   59 1
    59   33   34 ar
    60   33   60 1
    61   34   35 ar
    62   34   61 1
    63   35   36 ar
    64   35   62 1
    65   36   63 1
@<TRIPOS>MOLECULE
ZINC19796087
   63    65     0     0     0
SMALL
USER_CHARGES

@<TRIPOS>ATOM
      1 C1          1.3947   -0.2351    1.5837 C.3       1 <0>        -0.0963
      2 C2          1.2348   -1.7274    1.7190 C.2       1 <0>         0.2813
      3 C3         -0.0098   -2.2708    1.5772 C.2       1 <0>        -0.3767
      4 C4         -0.1389   -3.7765    1.7183 C.3       1 <0>         0.1156
      5 H1         -0.5632   -4.1700    0.7946 H         1 <0>         0.0509
      6 C5          1.1491   -4.5272    2.0064 C.2       1 <0>        -0.3974
      7 C6          1.1651   -5.8967    2.1559 C.2       1 <0>         0.4735
      8 O1          2.3097   -6.5247    2.4900 O.3       1 <0>        -0.6459
      9 O2          0.0362   -6.6082    1.9680 O.3       1 <0>        -0.3360
     10 C7          0.1256   -8.0241    2.1395 C.3       1 <0>         0.0433
     11 C8          2.3165   -3.7691    2.1128 C.2       1 <0>         0.3164
     12 N1          2.3075   -2.4638    1.9658 N.2       1 <0>        -0.6451
     13 C9          3.6215   -4.4667    2.3979 C.3       1 <0>        -0.0918
     14 C10        -1.1068   -4.0632    2.8373 C.ar      1 <0>        -0.0333
     15 C11        -0.8840   -3.5364    4.0960 C.ar      1 <0>        -0.0545
     16 C12        -1.7717   -3.7994    5.1222 C.ar      1 <0>        -0.1270
     17 C13        -2.8828   -4.5887    4.8899 C.ar      1 <0>        -0.0788
     18 C14        -3.1060   -5.1146    3.6314 C.ar      1 <0>        -0.0570
     19 C15        -2.2203   -4.8480    2.6038 C.ar      1 <0>        -0.0205
     20 N2         -4.2952   -5.9601    3.3828 N.pl3     1 <0>         0.0438
     21 O3         -5.1137   -6.1242    4.2574 O.2       1 <0>        -0.1858
     22 O4         -4.4480   -6.4866    2.3053 O.3       1 <0>        -0.1636
     23 C16        -1.1306   -1.4651    1.3105 C.2       1 <0>         0.5231
     24 O5         -1.0153   -0.2531    1.2774 O.2       1 <0>        -0.5621
     25 O6         -2.3353   -2.0352    1.0911 O.3       1 <0>        -0.3397
     26 C17        -3.4202   -1.1592    0.7785 C.3       1 <0>         0.0787
     27 C18        -4.6950   -1.9797    0.5726 C.3       1 <0>         0.0587
     28 N3         -4.5394   -2.8381   -0.6093 N.3       1 <0>        -0.5241
     29 C19        -4.6425   -2.0536   -1.8470 C.3       1 <0>         0.0209
     30 C20        -5.5183   -3.9333   -0.5972 C.3       1 <0>         0.0954
     31 C21        -5.1018   -4.9903   -1.5873 C.ar      1 <0>        -0.0743
     32 C22        -5.6112   -4.9727   -2.8723 C.ar      1 <0>        -0.1177
     33 C23        -5.2292   -5.9422   -3.7806 C.ar      1 <0>        -0.1283
     34 C24        -4.3375   -6.9291   -3.4040 C.ar      1 <0>        -0.1228
     35 C25        -3.8274   -6.9462   -2.1193 C.ar      1 <0>        -0.1188
     36 C26        -4.2061   -5.9742   -1.2123 C.ar      1 <0>        -0.0816
     37 H2          2.4428    0.0318    1.7188 H         1 <0>         0.0542
     38 H3          1.0651    0.0773    0.5928 H         1 <0>         0.0740
     39 H4          0.7917    0.2652    2.3416 H         1 <0>         0.0776
     40 H5          0.4465   -8.2472    3.1570 H         1 <0>         0.0487
     41 H6         -0.8506   -8.4742    1.9595 H         1 <0>         0.0842
     42 H7          0.8492   -8.4307    1.4329 H         1 <0>         0.0524
     43 H8          3.7980   -5.2308    1.6409 H         1 <0>         0.0815
     44 H9          4.4339   -3.7403    2.3773 H         1 <0>         0.0491
     45 H10         3.5765   -4.9336    3.3818 H         1 <0>         0.0795
     46 H11        -0.0161   -2.9198    4.2775 H         1 <0>         0.1299
     47 H12        -1.5973   -3.3885    6.1057 H         1 <0>         0.1354
     48 H13        -3.5760   -4.7948    5.6920 H         1 <0>         0.1399
     49 H14        -2.3967   -5.2558    1.6194 H         1 <0>         0.1443
     50 H15        -3.5684   -0.4573    1.5991 H         1 <0>         0.0589
     51 H16        -3.1912   -0.6085   -0.1339 H         1 <0>         0.0588
     52 H17        -4.8738   -2.5999    1.4510 H         1 <0>         0.0775
     53 H18        -5.5400   -1.3073    0.4245 H         1 <0>         0.0517
     54 H19        -3.8118   -1.3500   -1.9015 H         1 <0>         0.0679
     55 H20        -4.6081   -2.7237   -2.7059 H         1 <0>         0.0720
     56 H21        -5.5843   -1.5048   -1.8519 H         1 <0>         0.0222
     57 H22        -5.5641   -4.3686    0.4011 H         1 <0>         0.0830
     58 H23        -6.5000   -3.5463   -0.8703 H         1 <0>         0.0388
     59 H24        -6.3078   -4.2017   -3.1665 H         1 <0>         0.1132
     60 H25        -5.6277   -5.9289   -4.7843 H         1 <0>         0.1156
     61 H26        -4.0396   -7.6870   -4.1134 H         1 <0>         0.1163
     62 H27        -3.1310   -7.7175   -1.8250 H         1 <0>         0.1210
     63 H28        -3.8048   -5.9854   -0.2097 H         1 <0>         0.1299
@<TRIPOS>BOND
     1    1    2 1
     2    1   37 1
     3    1   38 1
     4    1   39 1
     5    2   12 1
     6    2    3 2
     7    3    4 1
     8    3   23 1
     9    4    5 1
    10    4    6 1
    11    4   14 1
    12    6    7 2
    13    6   11 1
    14    7    8 1
    15    7    9 1
    16    9   10 1
    17   10   40 1
    18   10   41 1
    19   10   42 1
    20   11   12 2
    21   11   13 1
    22   13   43 1
    23   13   44 1
    24   13   45 1
    25   14   19 ar
    26   14   15 ar
    27   15   16 ar
    28   15   46 1
    29   16   17 ar
    30   16   47 1
    31   17   18 ar
    32   17   48 1
    33   18   19 ar
    34   18   20 1
    35   19   49 1
    36   20   21 2
    37   20   22 1
    38   23   24 2
    39   23   25 1
    40   25   26 1
    41   26   27 1
    42   26   50 1
    43   26   51 1
    44   27   28 1
    45   27   52 1
    46   27   53 1
    47   28   29 1
    48   28   30 1
    49   29   54 1
    50   29   55 1
    51   29   56 1
    52   30   31 1
    53   30   57 1
    54   30   58 1
    55   31   36 ar
    56   31   32 ar
    57   32   33 ar
    58   32   59 1
    59   33   34 ar
    60   33   60 1
    61   34   35 ar
    62   34   61 1
    63   35   36 ar
    64   35   62 1
    65   36   63 1
@<TRIPOS>MOLECULE
ZINC19796087
   63    65     0     0     0
SMALL
USER_CHARGES

@<TRIPOS>ATOM
      1 C1          1.9250    2.2404   -0.3129 C.3       1 <0>        -0.0962
      2 C2          1.5956    0.7700   -0.3363 C.2       1 <0>         0.2823
      3 C3          0.2875    0.3908   -0.4338 C.2       1 <0>        -0.3776
      4 C4         -0.0127   -1.0968   -0.4556 C.3       1 <0>         0.1287
      5 H1         -0.6768   -1.3224    0.3787 H         1 <0>         0.0479
      6 C5          1.1921   -2.0166   -0.3653 C.2       1 <0>        -0.3943
      7 C6          1.0526   -3.3872   -0.3756 C.2       1 <0>         0.4729
      8 O1         -0.1764   -3.9396   -0.3555 O.3       1 <0>        -0.6452
      9 O2          2.1452   -4.1754   -0.4057 O.3       1 <0>        -0.3140
     10 C7          1.9270   -5.5825   -0.5258 C.3       1 <0>         0.0738
     11 C8          3.2661   -6.3163   -0.4304 C.3       1 <0>         0.0567
     12 N1          4.0962   -5.9737   -1.5929 N.3       1 <0>        -0.5254
     13 C9          3.6078   -6.6452   -2.8047 C.3       1 <0>         0.0178
     14 C10         5.5078   -6.2958   -1.3451 C.3       1 <0>         0.0937
     15 C11         6.3568   -5.7125   -2.4451 C.ar      1 <0>        -0.0752
     16 C12         6.6211   -6.4541   -3.5814 C.ar      1 <0>        -0.1161
     17 C13         7.3999   -5.9190   -4.5904 C.ar      1 <0>        -0.1247
     18 C14         7.9139   -4.6420   -4.4634 C.ar      1 <0>        -0.1225
     19 C15         7.6488   -3.9001   -3.3275 C.ar      1 <0>        -0.1199
     20 C16         6.8665   -4.4336   -2.3204 C.ar      1 <0>        -0.0931
     21 C17         2.4472   -1.4127   -0.2718 C.2       1 <0>         0.2969
     22 N2          2.5859   -0.1065   -0.2671 N.2       1 <0>        -0.6443
     23 C18         3.6750   -2.2817   -0.1798 C.3       1 <0>        -0.1018
     24 C19        -0.7450   -1.4107   -1.7348 C.ar      1 <0>        -0.0273
     25 C20        -0.1448   -1.1589   -2.9546 C.ar      1 <0>        -0.0575
     26 C21        -0.8164   -1.4467   -4.1278 C.ar      1 <0>        -0.1295
     27 C22        -2.0883   -1.9869   -4.0815 C.ar      1 <0>        -0.0800
     28 C23        -2.6879   -2.2394   -2.8621 C.ar      1 <0>        -0.0565
     29 C24        -2.0144   -1.9555   -1.6886 C.ar      1 <0>        -0.0107
     30 N3         -4.0498   -2.8172   -2.8127 N.pl3     1 <0>         0.0440
     31 O3         -4.6376   -3.0683   -3.8389 O.2       1 <0>        -0.1849
     32 O4         -4.5743   -3.0382   -1.7460 O.3       1 <0>        -0.1675
     33 C25        -0.7435    1.3435   -0.5108 C.2       1 <0>         0.5215
     34 O5         -0.4773    2.5318   -0.4910 O.2       1 <0>        -0.5581
     35 O6         -2.0292    0.9409   -0.6066 O.3       1 <0>        -0.3599
     36 C26        -3.0252    1.9629   -0.6810 C.3       1 <0>         0.0413
     37 H2          3.0047    2.3696   -0.2371 H         1 <0>         0.0545
     38 H3          1.5666    2.7077   -1.2301 H         1 <0>         0.0756
     39 H4          1.4421    2.7072    0.5455 H         1 <0>         0.0759
     40 H5          1.2707   -5.9182    0.2771 H         1 <0>         0.0656
     41 H6          1.4627   -5.7974   -1.4883 H         1 <0>         0.0572
     42 H7          3.7797   -6.0177    0.4835 H         1 <0>         0.0841
     43 H8          3.0906   -7.3920   -0.4136 H         1 <0>         0.0519
     44 H9          2.5954   -6.3066   -3.0248 H         1 <0>         0.0693
     45 H10         4.2619   -6.4037   -3.6426 H         1 <0>         0.0727
     46 H11         3.6038   -7.7236   -2.6460 H         1 <0>         0.0228
     47 H12         5.8140   -5.8745   -0.3876 H         1 <0>         0.0848
     48 H13         5.6351   -7.3782   -1.3232 H         1 <0>         0.0392
     49 H14         6.2196   -7.4517   -3.6806 H         1 <0>         0.1158
     50 H15         7.6070   -6.4987   -5.4778 H         1 <0>         0.1178
     51 H16         8.5228   -4.2242   -5.2514 H         1 <0>         0.1180
     52 H17         8.0506   -2.9025   -3.2282 H         1 <0>         0.1216
     53 H18         6.6563   -3.8525   -1.4347 H         1 <0>         0.1258
     54 H19         3.7730   -2.8699   -1.0922 H         1 <0>         0.0884
     55 H20         4.5567   -1.6529   -0.0563 H         1 <0>         0.0588
     56 H21         3.5832   -2.9508    0.6758 H         1 <0>         0.0743
     57 H22         0.8487   -0.7369   -2.9907 H         1 <0>         0.1285
     58 H23        -0.3479   -1.2494   -5.0806 H         1 <0>         0.1344
     59 H24        -2.6134   -2.2112   -4.9983 H         1 <0>         0.1396
     60 H25        -2.4815   -2.1563   -0.7357 H         1 <0>         0.1428
     61 H26        -4.0114    1.5045   -0.7545 H         1 <0>         0.0861
     62 H27        -2.9782    2.5820    0.2150 H         1 <0>         0.0509
     63 H28        -2.8458    2.5819   -1.5601 H         1 <0>         0.0485
@<TRIPOS>BOND
     1    1    2 1
     2    1   37 1
     3    1   38 1
     4    1   39 1
     5    2   22 1
     6    2    3 2
     7    3    4 1
     8    3   33 1
     9    4    5 1
    10    4    6 1
    11    4   24 1
    12    6    7 2
    13    6   21 1
    14    7    8 1
    15    7    9 1
    16    9   10 1
    17   10   11 1
    18   10   40 1
    19   10   41 1
    20   11   12 1
    21   11   42 1
    22   11   43 1
    23   12   13 1
    24   12   14 1
    25   13   44 1
    26   13   45 1
    27   13   46 1
    28   14   15 1
    29   14   47 1
    30   14   48 1
    31   15   20 ar
    32   15   16 ar
    33   16   17 ar
    34   16   49 1
    35   17   18 ar
    36   17   50 1
    37   18   19 ar
    38   18   51 1
    39   19   20 ar
    40   19   52 1
    41   20   53 1
    42   21   22 2
    43   21   23 1
    44   23   54 1
    45   23   55 1
    46   23   56 1
    47   24   29 ar
    48   24   25 ar
    49   25   26 ar
    50   25   57 1
    51   26   27 ar
    52   26   58 1
    53   27   28 ar
    54   27   59 1
    55   28   29 ar
    56   28   30 1
    57   29   60 1
    58   30   31 2
    59   30   32 1
    60   33   34 2
    61   33   35 1
    62   35   36 1
    63   36   61 1
    64   36   62 1
    65   36   63 1
@<TRIPOS>MOLECULE
ZINC01999850
   56    58     0     0     0
SMALL
USER_CHARGES
[10-chloro-6-(2-dimethylaminoethyl)-3-(4-methoxyphenyl)-5-oxo-2-thia-6-azabicyclo[5.4.0]undeca-8,10,12-trien-4-yl] acetate
@<TRIPOS>ATOM
      1 C1          4.4097   -0.0807    4.3764 C.3       1 <0>        -0.1464
      2 C2          3.5361    0.5922    3.3493 C.2       1 <0>         0.4595
      3 O1          2.4429    0.1428    3.0983 O.2       1 <0>        -0.5102
      4 O2          3.9724    1.6907    2.7132 O.3       1 <0>        -0.3094
      5 C3          3.0779    2.2859    1.7365 C.3       1 <0>         0.0760
      6 H1          2.0456    2.1024    2.0345 H         1 <0>         0.1123
      7 C4          3.3278    3.8027    1.6760 C.3       1 <0>        -0.0115
      8 H2          2.8444    4.2919    2.5216 H         1 <0>         0.1278
      9 S1          2.6091    4.4112    0.1136 S.3       1 <0>        -0.0866
     10 C5          1.0860    3.5291   -0.0003 C.ar      1 <0>        -0.1367
     11 C6         -0.1217    4.1761    0.2047 C.ar      1 <0>        -0.0354
     12 C7         -1.3048    3.4638    0.1074 C.ar      1 <0>        -0.0392
     13 C8         -1.2824    2.1140   -0.1979 C.ar      1 <0>        -0.0620
     14 C9         -0.0783    1.4626   -0.3974 C.ar      1 <0>        -0.1129
     15 C10         1.1092    2.1689   -0.3013 C.ar      1 <0>         0.1544
     16 N1          2.3417    1.5275   -0.5014 N.am      1 <0>        -0.5505
     17 C11         3.3259    1.6594    0.3964 C.2       1 <0>         0.5217
     18 O3          4.4393    1.2649    0.1210 O.2       1 <0>        -0.4812
     19 C12         2.5520    0.7097   -1.6986 C.3       1 <0>         0.0915
     20 C13         3.1138    1.5842   -2.8213 C.3       1 <0>        -0.0267
     21 C14         2.0462    0.2818   -4.5610 C.3       1 <0>        -0.0492
     22 C15         4.0792    1.5064   -5.0405 C.3       1 <0>        -0.0415
     23 Cl1        -2.8220    4.2678    0.3631 Cl        1 <0>        -0.0361
     24 C16         4.8086    4.0809    1.7013 C.ar      1 <0>        -0.1203
     25 C17         5.3840    4.6546    2.8201 C.ar      1 <0>        -0.0432
     26 C18         6.7422    4.9054    2.8480 C.ar      1 <0>        -0.2076
     27 C19         7.5270    4.5920    1.7478 C.ar      1 <0>         0.1473
     28 C20         6.9464    4.0217    0.6243 C.ar      1 <0>        -0.1528
     29 C21         5.5887    3.7672    0.6037 C.ar      1 <0>        -0.0428
     30 O4          8.8623    4.8438    1.7703 O.3       1 <0>        -0.3149
     31 C22         9.3916    5.4322    2.9602 C.3       1 <0>         0.0242
     32 H3          5.3500    0.4633    4.4661 H         1 <0>         0.0964
     33 H4          3.8997   -0.0861    5.3398 H         1 <0>         0.1129
     34 H5          4.6113   -1.1061    4.0664 H         1 <0>         0.1106
     35 H6         -0.1401    5.2301    0.4394 H         1 <0>         0.1580
     36 H7         -2.2095    1.5656   -0.2766 H         1 <0>         0.1526
     37 H8         -0.0646    0.4084   -0.6316 H         1 <0>         0.1462
     38 H9          3.2576   -0.0898   -1.4731 H         1 <0>         0.1129
     39 H10         1.6025    0.2779   -2.0149 H         1 <0>         0.1074
     40 H11         2.4082    2.3838   -3.0468 H         1 <0>         0.1366
     41 H12         4.0633    2.0161   -2.5049 H         1 <0>         0.1392
     42 H13         1.4188    1.1332   -4.8251 H         1 <0>         0.1254
     43 H14         2.2313   -0.3224   -5.4491 H         1 <0>         0.1272
     44 H15         1.5398   -0.3233   -3.8090 H         1 <0>         0.1201
     45 H16         5.0507    1.7917   -4.6370 H         1 <0>         0.1236
     46 H17         4.2212    0.8762   -5.9184 H         1 <0>         0.1258
     47 H18         3.5254    2.4022   -5.3219 H         1 <0>         0.1240
     48 H19         4.7718    4.9030    3.6744 H         1 <0>         0.1290
     49 H20         7.1918    5.3498    3.7237 H         1 <0>         0.1351
     50 H21         7.5553    3.7765   -0.2333 H         1 <0>         0.1314
     51 H22         5.1362    3.3233   -0.2707 H         1 <0>         0.1262
     52 H23         8.9093    6.3938    3.1355 H         1 <0>         0.0591
     53 H24         9.2037    4.7718    3.8067 H         1 <0>         0.0590
     54 H25        10.4655    5.5798    2.8458 H         1 <0>         0.1049
     55 N2          3.3402    0.7413   -4.0142 N.4       1 <0>        -0.3943
     56 H26         3.8974   -0.0775   -3.7432 H         1 <0>         0.4333
@<TRIPOS>BOND
     1    1    2 1
     2    1   32 1
     3    1   33 1
     4    1   34 1
     5    2    3 2
     6    2    4 1
     7    4    5 1
     8    5    6 1
     9    5   17 1
    10    5    7 1
    11    7    8 1
    12    7    9 1
    13    7   24 1
    14    9   10 1
    15   10   15 ar
    16   10   11 ar
    17   11   12 ar
    18   11   35 1
    19   12   13 ar
    20   12   23 1
    21   13   14 ar
    22   13   36 1
    23   14   15 ar
    24   14   37 1
    25   15   16 1
    26   16   17 am
    27   16   19 1
    28   17   18 2
    29   19   20 1
    30   19   38 1
    31   19   39 1
    32   20   40 1
    33   20   41 1
    34   20   55 1
    35   21   42 1
    36   21   43 1
    37   21   44 1
    38   21   55 1
    39   22   45 1
    40   22   46 1
    41   22   47 1
    42   22   55 1
    43   24   29 ar
    44   24   25 ar
    45   25   26 ar
    46   25   48 1
    47   26   27 ar
    48   26   49 1
    49   27   28 ar
    50   27   30 1
    51   28   29 ar
    52   28   50 1
    53   29   51 1
    54   30   31 1
    55   31   52 1
    56   31   53 1
    57   31   54 1
    58   55   56 1
@<TRIPOS>MOLECULE
ZINC11678447
   56    58     0     0     0
SMALL
USER_CHARGES
[(2S,3S)-8-chloro-5-(2-dimethylaminoethyl)-2-(4-methoxyphenyl)-4-oxo-2,3-dihydro-1,5-benzothiazepin-3-yl] acetate
@<TRIPOS>ATOM
      1 C1         -2.2399   -1.1981   -2.8073 C.3       1 <0>        -0.1464
      2 C2         -1.0615   -0.6889   -2.0178 C.2       1 <0>         0.4595
      3 O1         -0.0161   -0.4541   -2.5763 O.2       1 <0>        -0.5101
      4 O2         -1.1733   -0.4962   -0.6941 O.3       1 <0>        -0.3088
      5 C3          0.0021   -0.0041    0.0020 C.3       1 <0>         0.0751
      6 H1          0.8976   -0.3494   -0.5145 H         1 <0>         0.1131
      7 C4          0.0071   -0.5500    1.4403 C.3       1 <0>        -0.0105
      8 H2          0.3482   -1.5853    1.4426 H         1 <0>         0.1285
      9 S1          1.1550    0.4834    2.4110 S.3       1 <0>        -0.0901
     10 C5          2.5099    0.7262    1.3082 C.ar      1 <0>        -0.1356
     11 C6          3.7199    0.0874    1.5253 C.ar      1 <0>        -0.0355
     12 C7          4.7705    0.2951    0.6479 C.ar      1 <0>        -0.0386
     13 C8          4.6134    1.1352   -0.4407 C.ar      1 <0>        -0.0622
     14 C9          3.4065    1.7744   -0.6617 C.ar      1 <0>        -0.1125
     15 C10         2.3511    1.5710    0.2118 C.ar      1 <0>         0.1527
     16 N1          1.1166    2.2059    0.0032 N.am      1 <0>        -0.5489
     17 C11        -0.0183    1.4957    0.0103 C.2       1 <0>         0.5222
     18 O3         -1.0833    2.0762    0.0184 O.2       1 <0>        -0.4829
     19 C12         1.0698    3.6525   -0.2231 C.3       1 <0>         0.0910
     20 C13         0.9258    4.3742    1.1183 C.3       1 <0>        -0.0266
     21 C14         0.5055    6.5381    2.1200 C.3       1 <0>        -0.0415
     22 C15         2.1592    6.3170    0.3653 C.3       1 <0>        -0.0493
     23 Cl1         6.2898   -0.5017    0.9136 Cl        1 <0>        -0.0357
     24 C16        -1.3789   -0.4647    2.0256 C.ar      1 <0>        -0.1227
     25 C17        -2.0023    0.7635    2.1474 C.ar      1 <0>        -0.0460
     26 C18        -3.2751    0.8438    2.6784 C.ar      1 <0>        -0.2100
     27 C19        -3.9232   -0.3079    3.1005 C.ar      1 <0>         0.1471
     28 C20        -3.2933   -1.5384    2.9825 C.ar      1 <0>        -0.1519
     29 C21        -2.0229   -1.6140    2.4452 C.ar      1 <0>        -0.0467
     30 O4         -5.1728   -0.2309    3.6292 O.3       1 <0>        -0.3127
     31 C22        -5.7597    1.0688    3.7200 C.3       1 <0>         0.0262
     32 H3         -3.0867   -1.3510   -2.1382 H         1 <0>         0.0969
     33 H4         -2.5077   -0.4685   -3.5715 H         1 <0>         0.1104
     34 H5         -1.9774   -2.1430   -3.2830 H         1 <0>         0.1133
     35 H6          3.8432   -0.5680    2.3747 H         1 <0>         0.1582
     36 H7          5.4374    1.2929   -1.1209 H         1 <0>         0.1528
     37 H8          3.2879    2.4298   -1.5119 H         1 <0>         0.1462
     38 H9          1.9897    3.9737   -0.7116 H         1 <0>         0.1080
     39 H10         0.2177    3.8935   -0.8586 H         1 <0>         0.1132
     40 H11         0.0059    4.0530    1.6068 H         1 <0>         0.1386
     41 H12         1.7780    4.1332    1.7538 H         1 <0>         0.1369
     42 H13         1.2395    6.3297    2.8985 H         1 <0>         0.1242
     43 H14         0.4783    7.6100    1.9239 H         1 <0>         0.1261
     44 H15        -0.4783    6.2039    2.4494 H         1 <0>         0.1230
     45 H16         2.3776    5.8221   -0.5810 H         1 <0>         0.1203
     46 H17         2.0969    7.3935    0.2064 H         1 <0>         0.1273
     47 H18         2.9531    6.1006    1.0802 H         1 <0>         0.1256
     48 H19        -1.4953    1.6604    1.8233 H         1 <0>         0.1331
     49 H20        -3.7635    1.8028    2.7688 H         1 <0>         0.1284
     50 H21        -3.7959   -2.4364    3.3101 H         1 <0>         0.1380
     51 H22        -1.5322   -2.5717    2.3531 H         1 <0>         0.1336
     52 H23        -5.8360    1.5036    2.7234 H         1 <0>         0.0568
     53 H24        -6.7544    0.9885    4.1585 H         1 <0>         0.1047
     54 H25        -5.1364    1.7059    4.3476 H         1 <0>         0.0557
     55 N2          0.8588    5.8300    0.8716 N.4       1 <0>        -0.3943
     56 H26         0.1357    6.0159    0.1667 H         1 <0>         0.4331
@<TRIPOS>BOND
     1    1    2 1
     2    1   32 1
     3    1   33 1
     4    1   34 1
     5    2    3 2
     6    2    4 1
     7    4    5 1
     8    5    6 1
     9    5   17 1
    10    5    7 1
    11    7    8 1
    12    7    9 1
    13    7   24 1
    14    9   10 1
    15   10   15 ar
    16   10   11 ar
    17   11   12 ar
    18   11   35 1
    19   12   13 ar
    20   12   23 1
    21   13   14 ar
    22   13   36 1
    23   14   15 ar
    24   14   37 1
    25   15   16 1
    26   16   17 am
    27   16   19 1
    28   17   18 2
    29   19   20 1
    30   19   38 1
    31   19   39 1
    32   20   40 1
    33   20   41 1
    34   20   55 1
    35   21   42 1
    36   21   43 1
    37   21   44 1
    38   21   55 1
    39   22   45 1
    40   22   46 1
    41   22   47 1
    42   22   55 1
    43   24   29 ar
    44   24   25 ar
    45   25   26 ar
    46   25   48 1
    47   26   27 ar
    48   26   49 1
    49   27   28 ar
    50   27   30 1
    51   28   29 ar
    52   28   50 1
    53   29   51 1
    54   30   31 1
    55   31   52 1
    56   31   53 1
    57   31   54 1
    58   55   56 1
@<TRIPOS>MOLECULE
ZINC11678452
   56    58     0     0     0
SMALL
USER_CHARGES
[(2R,3S)-8-chloro-5-(2-dimethylaminoethyl)-2-(4-methoxyphenyl)-4-oxo-2,3-dihydro-1,5-benzothiazepin-3-yl] acetate
@<TRIPOS>ATOM
      1 C1         -0.6532    2.5728    6.1809 C.3       1 <0>        -0.1471
      2 C2         -0.7365    1.3240    5.3414 C.2       1 <0>         0.4565
      3 O1         -1.8091    0.8110    5.1264 O.2       1 <0>        -0.4955
      4 O2          0.3809    0.7817    4.8324 O.3       1 <0>        -0.3423
      5 C3          0.2253   -0.4207    4.0335 C.3       1 <0>         0.0704
      6 H1         -0.6371   -0.9826    4.3923 H         1 <0>         0.1391
      7 C4          1.4890   -1.2878    4.1681 C.3       1 <0>        -0.0047
      8 H2          1.8283   -1.2902    5.2039 H         1 <0>         0.1309
      9 S1          2.7702   -0.5530    3.0975 S.3       1 <0>        -0.1055
     10 C5          2.5756    1.1793    3.3661 C.ar      1 <0>        -0.1116
     11 C6          3.5141    1.8905    4.0959 C.ar      1 <0>        -0.0320
     12 C7          3.3434    3.2507    4.2889 C.ar      1 <0>        -0.0415
     13 C8          2.2415    3.8972    3.7565 C.ar      1 <0>        -0.0636
     14 C9          1.3008    3.1904    3.0288 C.ar      1 <0>        -0.1269
     15 C10         1.4651    1.8294    2.8320 C.ar      1 <0>         0.1776
     16 N1          0.5218    1.0932    2.0980 N.am      1 <0>        -0.5514
     17 C11         0.0006   -0.0316    2.6033 C.2       1 <0>         0.5295
     18 O3         -0.6637   -0.7526    1.8891 O.2       1 <0>        -0.4863
     19 C12         0.1011    1.5613    0.7751 C.3       1 <0>         0.0891
     20 C13         1.0200    0.9649   -0.2929 C.3       1 <0>        -0.0260
     21 C14         0.8003    2.8832   -1.7540 C.3       1 <0>        -0.0488
     22 C15         1.2992    0.7039   -2.6839 C.3       1 <0>        -0.0415
     23 Cl1         4.5159    4.1487    5.2014 Cl        1 <0>        -0.0414
     24 C16         1.1939   -2.6964    3.7212 C.ar      1 <0>        -0.1394
     25 C17         1.1445   -3.7192    4.6502 C.ar      1 <0>        -0.0457
     26 C18         0.8686   -5.0104    4.2438 C.ar      1 <0>        -0.2081
     27 C19         0.6525   -5.2823    2.9007 C.ar      1 <0>         0.1516
     28 C20         0.7082   -4.2552    1.9697 C.ar      1 <0>        -0.1526
     29 C21         0.9784   -2.9648    2.3820 C.ar      1 <0>        -0.0423
     30 O4          0.3872   -6.5527    2.4975 O.3       1 <0>        -0.3131
     31 C22         0.3454   -7.5595    3.5107 C.3       1 <0>         0.0231
     32 H3         -0.7389    3.4490    5.5382 H         1 <0>         0.1069
     33 H4         -1.4642    2.5757    6.9092 H         1 <0>         0.1115
     34 H5          0.3036    2.5968    6.7024 H         1 <0>         0.0987
     35 H6          4.3738    1.3865    4.5122 H         1 <0>         0.1537
     36 H7          2.1152    4.9587    3.9103 H         1 <0>         0.1491
     37 H8          0.4419    3.6982    2.6154 H         1 <0>         0.1407
     38 H9          0.1601    2.6491    0.7389 H         1 <0>         0.1067
     39 H10        -0.9256    1.2468    0.5879 H         1 <0>         0.1129
     40 H11         0.9610   -0.1229   -0.2568 H         1 <0>         0.1388
     41 H12         2.0467    1.2795   -0.1057 H         1 <0>         0.1367
     42 H13         1.8565    3.1166   -1.6202 H         1 <0>         0.1254
     43 H14         0.4799    3.2042   -2.7452 H         1 <0>         0.1270
     44 H15         0.2143    3.4036   -0.9965 H         1 <0>         0.1198
     45 H16         1.0761   -0.3599   -2.6023 H         1 <0>         0.1235
     46 H17         0.9683    1.0712   -3.6553 H         1 <0>         0.1258
     47 H18         2.3736    0.8585   -2.5838 H         1 <0>         0.1241
     48 H19         1.3179   -3.5079    5.6951 H         1 <0>         0.1321
     49 H20         0.8255   -5.8082    4.9705 H         1 <0>         0.1375
     50 H21         0.5400   -4.4643    0.9236 H         1 <0>         0.1342
     51 H22         1.0219   -2.1648    1.6577 H         1 <0>         0.1297
     52 H23         0.1250   -8.5248    3.0549 H         1 <0>         0.1063
     53 H24         1.3106   -7.6078    4.0150 H         1 <0>         0.0601
     54 H25        -0.4311   -7.3140    4.2351 H         1 <0>         0.0598
     55 N2          0.5701    1.4291   -1.6222 N.4       1 <0>        -0.3946
     56 H26        -0.4345    1.2404   -1.7189 H         1 <0>         0.4333
@<TRIPOS>BOND
     1    1    2 1
     2    1   32 1
     3    1   33 1
     4    1   34 1
     5    2    3 2
     6    2    4 1
     7    4    5 1
     8    5    6 1
     9    5   17 1
    10    5    7 1
    11    7    8 1
    12    7    9 1
    13    7   24 1
    14    9   10 1
    15   10   15 ar
    16   10   11 ar
    17   11   12 ar
    18   11   35 1
    19   12   13 ar
    20   12   23 1
    21   13   14 ar
    22   13   36 1
    23   14   15 ar
    24   14   37 1
    25   15   16 1
    26   16   17 am
    27   16   19 1
    28   17   18 2
    29   19   20 1
    30   19   38 1
    31   19   39 1
    32   20   40 1
    33   20   41 1
    34   20   55 1
    35   21   42 1
    36   21   43 1
    37   21   44 1
    38   21   55 1
    39   22   45 1
    40   22   46 1
    41   22   47 1
    42   22   55 1
    43   24   29 ar
    44   24   25 ar
    45   25   26 ar
    46   25   48 1
    47   26   27 ar
    48   26   49 1
    49   27   28 ar
    50   27   30 1
    51   28   29 ar
    52   28   50 1
    53   29   51 1
    54   30   31 1
    55   31   52 1
    56   31   53 1
    57   31   54 1
    58   55   56 1
@<TRIPOS>MOLECULE
ZINC11678458
   56    58     0     0     0
SMALL
USER_CHARGES
[(2S,3R)-8-chloro-5-(2-dimethylaminoethyl)-2-(4-methoxyphenyl)-4-oxo-2,3-dihydro-1,5-benzothiazepin-3-yl] acetate
@<TRIPOS>ATOM
      1 C1          0.0652    9.4274   -2.9825 C.3       1 <0>        -0.1490
      2 C2         -0.2963    7.9899   -2.7105 C.2       1 <0>         0.4563
      3 O1         -0.5161    7.2379   -3.6303 O.2       1 <0>        -0.4994
      4 O2         -0.3742    7.5450   -1.4465 O.3       1 <0>        -0.3408
      5 C3         -0.7274    6.1491   -1.2596 C.3       1 <0>         0.0713
      6 H1         -0.3604    5.5710   -2.1077 H         1 <0>         0.1392
      7 C4         -0.0743    5.6278    0.0320 C.3       1 <0>        -0.0082
      8 H2          0.9426    6.0116    0.1141 H         1 <0>         0.1304
      9 S1         -1.0783    6.2268    1.4324 S.3       1 <0>        -0.0951
     10 C5         -1.4643    7.8850    0.9718 C.ar      1 <0>        -0.1086
     11 C6         -0.8640    8.9545    1.6160 C.ar      1 <0>        -0.0288
     12 C7         -1.1845   10.2476    1.2396 C.ar      1 <0>        -0.0418
     13 C8         -2.0986   10.4716    0.2248 C.ar      1 <0>        -0.0649
     14 C9         -2.6996    9.4064   -0.4220 C.ar      1 <0>        -0.1345
     15 C10        -2.3836    8.1101   -0.0507 C.ar      1 <0>         0.1816
     16 N1         -2.9785    7.0150   -0.6969 N.am      1 <0>        -0.5517
     17 C11        -2.2215    6.0217   -1.1788 C.2       1 <0>         0.5283
     18 O3         -2.7524    4.9989   -1.5574 O.2       1 <0>        -0.4830
     19 C12        -4.4349    6.9592   -0.8449 C.3       1 <0>         0.0852
     20 C13        -4.8400    7.6295   -2.1592 C.3       1 <0>        -0.0328
     21 C14        -6.7478    8.4082   -3.4306 C.3       1 <0>        -0.0424
     22 C15        -6.7608    6.1875   -2.4658 C.3       1 <0>        -0.0490
     23 Cl1        -0.4372   11.5928    2.0432 Cl        1 <0>        -0.0405
     24 C16        -0.0539    4.1209    0.0237 C.ar      1 <0>        -0.1409
     25 C17        -1.2326    3.4139    0.1733 C.ar      1 <0>        -0.0413
     26 C18        -1.2166    2.0326    0.1656 C.ar      1 <0>        -0.1513
     27 C19        -0.0165    1.3548    0.0077 C.ar      1 <0>         0.1513
     28 C20         1.1656    2.0665   -0.1369 C.ar      1 <0>        -0.2093
     29 C21         1.1435    3.4478   -0.1338 C.ar      1 <0>        -0.0468
     30 O4          0.0020   -0.0041    0.0002 O.3       1 <0>        -0.3129
     31 C22         1.2733   -0.6347   -0.1668 C.3       1 <0>         0.0234
     32 H3          1.1473    9.5184   -3.0767 H         1 <0>         0.1146
     33 H4         -0.4088    9.7523   -3.9087 H         1 <0>         0.1079
     34 H5         -0.2815   10.0513   -2.1586 H         1 <0>         0.0950
     35 H6         -0.1508    8.7804    2.4082 H         1 <0>         0.1551
     36 H7         -2.3441   11.4830   -0.0635 H         1 <0>         0.1487
     37 H8         -3.4128    9.5851   -1.2131 H         1 <0>         0.1321
     38 H9         -4.7597    5.9187   -0.8525 H         1 <0>         0.1212
     39 H10        -4.9051    7.4805   -0.0111 H         1 <0>         0.1106
     40 H11        -4.5152    8.6700   -2.1517 H         1 <0>         0.1312
     41 H12        -4.3698    7.1081   -2.9930 H         1 <0>         0.1367
     42 H13        -6.2889    8.0526   -4.3531 H         1 <0>         0.1242
     43 H14        -7.8327    8.3486   -3.5181 H         1 <0>         0.1276
     44 H15        -6.4539    9.4429   -3.2540 H         1 <0>         0.1221
     45 H16        -6.4762    5.6077   -1.5878 H         1 <0>         0.1237
     46 H17        -7.8454    6.1749   -2.5737 H         1 <0>         0.1277
     47 H18        -6.3023    5.7514   -3.3534 H         1 <0>         0.1263
     48 H19        -2.1666    3.9420    0.2966 H         1 <0>         0.1334
     49 H20        -2.1376    1.4807    0.2828 H         1 <0>         0.1356
     50 H21         2.1017    1.5412   -0.2556 H         1 <0>         0.1369
     51 H22         2.0629    4.0023   -0.2504 H         1 <0>         0.1312
     52 H23         1.1464   -1.7172   -0.1543 H         1 <0>         0.1059
     53 H24         1.7074   -0.3307   -1.1193 H         1 <0>         0.0591
     54 H25         1.9360   -0.3373    0.6459 H         1 <0>         0.0599
     55 N2         -6.3121    7.5840   -2.2837 N.4       1 <0>        -0.3929
     56 H26        -6.7312    7.9596   -1.4248 H         1 <0>         0.4323
@<TRIPOS>BOND
     1    1    2 1
     2    1   32 1
     3    1   33 1
     4    1   34 1
     5    2    3 2
     6    2    4 1
     7    4    5 1
     8    5    6 1
     9    5   17 1
    10    5    7 1
    11    7    8 1
    12    7    9 1
    13    7   24 1
    14    9   10 1
    15   10   15 ar
    16   10   11 ar
    17   11   12 ar
    18   11   35 1
    19   12   13 ar
    20   12   23 1
    21   13   14 ar
    22   13   36 1
    23   14   15 ar
    24   14   37 1
    25   15   16 1
    26   16   17 am
    27   16   19 1
    28   17   18 2
    29   19   20 1
    30   19   38 1
    31   19   39 1
    32   20   40 1
    33   20   41 1
    34   20   55 1
    35   21   42 1
    36   21   43 1
    37   21   44 1
    38   21   55 1
    39   22   45 1
    40   22   46 1
    41   22   47 1
    42   22   55 1
    43   24   29 ar
    44   24   25 ar
    45   25   26 ar
    46   25   48 1
    47   26   27 ar
    48   26   49 1
    49   27   28 ar
    50   27   30 1
    51   28   29 ar
    52   28   50 1
    53   29   51 1
    54   30   31 1
    55   31   52 1
    56   31   53 1
    57   31   54 1
    58   55   56 1
@<TRIPOS>MOLECULE
ZINC19594578
   42    43     0     0     0
SMALL
USER_CHARGES

@<TRIPOS>ATOM
      1 C1          2.2963   -1.7884   -0.7145 C.3       1 <0>        -0.0923
      2 C2          1.4718   -3.0131   -0.4122 C.2       1 <0>         0.3012
      3 C3          0.0896   -2.9174   -0.4479 C.2       1 <0>        -0.3659
      4 C4         -0.7042   -4.1738   -0.1379 C.3       1 <0>         0.1078
      5 H1         -1.3383   -4.3964   -0.9961 H         1 <0>         0.0608
      6 C5          0.1142   -5.4119    0.1811 C.2       1 <0>        -0.3854
      7 C6         -0.4961   -6.6246    0.4812 C.2       1 <0>         0.4775
      8 O1         -1.8126   -6.7635    0.3291 O.3       1 <0>        -0.6205
      9 O2          0.2441   -7.6599    0.9261 O.3       1 <0>        -0.3341
     10 C7         -0.4487   -8.8759    1.2150 C.3       1 <0>         0.0364
     11 C8          1.4942   -5.2852    0.1607 C.2       1 <0>         0.2892
     12 N1          2.0880   -4.1435   -0.1272 N.2       1 <0>        -0.6421
     13 C9          2.3427   -6.4910    0.4723 C.3       1 <0>        -0.1054
     14 C10        -1.5971   -3.8874    1.0419 C.ar      1 <0>         0.0222
     15 C11        -1.0432   -3.6451    2.2853 C.ar      1 <0>        -0.1052
     16 C12        -1.8620   -3.3825    3.3673 C.ar      1 <0>        -0.0902
     17 C13        -3.2350   -3.3617    3.2062 C.ar      1 <0>        -0.1344
     18 C14        -3.7887   -3.6031    1.9630 C.ar      1 <0>        -0.0786
     19 C15        -2.9694   -3.8615    0.8798 C.ar      1 <0>        -0.0045
     20 N2         -3.5622   -4.1150   -0.4527 N.pl3     1 <0>         0.0414
     21 O3         -4.4639   -4.9114   -0.5715 O.2       1 <0>        -0.1804
     22 O4         -3.1445   -3.5256   -1.4221 O.3       1 <0>        -0.1243
     23 C16        -0.5445   -1.7188   -0.7549 C.2       1 <0>         0.4850
     24 O5          0.1786   -0.6320   -1.0224 O.2       1 <0>        -0.6277
     25 O6         -1.8910   -1.6562   -0.7820 O.3       1 <0>        -0.3126
     26 C17        -2.4753   -0.3927   -1.1050 C.3       1 <0>         0.0441
     27 H2          3.3553   -2.0378   -0.6477 H         1 <0>         0.0511
     28 H3          2.0687   -1.4364   -1.7207 H         1 <0>         0.0825
     29 H4          2.0613   -1.0052    0.0062 H         1 <0>         0.0805
     30 H5         -1.1939   -8.6944    1.9895 H         1 <0>         0.0514
     31 H6         -0.9429   -9.2357    0.3125 H         1 <0>         0.0531
     32 H7          0.2622   -9.6252    1.5632 H         1 <0>         0.0877
     33 H8          2.0952   -7.2976   -0.2177 H         1 <0>         0.0761
     34 H9          3.3960   -6.2316    0.3652 H         1 <0>         0.0659
     35 H10         2.1507   -6.8159    1.4949 H         1 <0>         0.0804
     36 H11         0.0294   -3.6613    2.4111 H         1 <0>         0.1319
     37 H12        -1.4294   -3.1939    4.3387 H         1 <0>         0.1296
     38 H13        -3.8749   -3.1572    4.0519 H         1 <0>         0.1333
     39 H14        -4.8612   -3.5872    1.8373 H         1 <0>         0.1319
     40 H15        -3.5617   -0.4808   -1.0919 H         1 <0>         0.0816
     41 H16        -2.1623    0.3504   -0.3716 H         1 <0>         0.0468
     42 H17        -2.1477   -0.0840   -2.0977 H         1 <0>         0.0541
@<TRIPOS>BOND
     1    1    2 1
     2    1   27 1
     3    1   28 1
     4    1   29 1
     5    2   12 1
     6    2    3 2
     7    3    4 1
     8    3   23 1
     9    4    5 1
    10    4    6 1
    11    4   14 1
    12    6    7 2
    13    6   11 1
    14    7    8 1
    15    7    9 1
    16    9   10 1
    17   10   30 1
    18   10   31 1
    19   10   32 1
    20   11   12 2
    21   11   13 1
    22   13   33 1
    23   13   34 1
    24   13   35 1
    25   14   19 ar
    26   14   15 ar
    27   15   16 ar
    28   15   36 1
    29   16   17 ar
    30   16   37 1
    31   17   18 ar
    32   17   38 1
    33   18   19 ar
    34   18   39 1
    35   19   20 1
    36   20   21 2
    37   20   22 1
    38   23   24 2
    39   23   25 1
    40   25   26 1
    41   26   40 1
    42   26   41 1
    43   26   42 1
@<TRIPOS>MOLECULE
ZINC03812888
   72    73     0     0     0
SMALL
USER_CHARGES

@<TRIPOS>ATOM
      1 C1          0.4643    1.3329   -0.2411 C.3       1 <0>        -0.1747
      2 C2          0.0733   -0.1223    0.0241 C.3       1 <0>        -0.0830
      3 C3          0.8761   -0.6579    1.2114 C.3       1 <0>        -0.1834
      4 C4         -1.4212   -0.1988    0.3430 C.3       1 <0>         0.1004
      5 C5         -2.2237    0.3455   -0.8405 C.3       1 <0>        -0.1048
      6 C6         -1.9247   -0.4899   -2.0868 C.3       1 <0>        -0.1606
      7 C7         -2.7272    0.0544   -3.2703 C.3       1 <0>        -0.0091
      8 N1         -2.4402   -0.7477   -4.4670 N.4       1 <0>        -0.3873
      9 C8         -1.0302   -0.5789   -4.8430 C.3       1 <0>        -0.0587
     10 C9         -3.2986   -0.3021   -5.5727 C.3       1 <0>        -0.0075
     11 C10        -3.0896   -1.2169   -6.7811 C.3       1 <0>        -0.0949
     12 C11        -3.9702   -0.7598   -7.9154 C.ar      1 <0>        -0.1088
     13 C12        -5.2517   -1.2635   -8.0399 C.ar      1 <0>        -0.1027
     14 C13        -6.0634   -0.8473   -9.0787 C.ar      1 <0>        -0.1717
     15 C14        -5.5933    0.0770   -9.9977 C.ar      1 <0>         0.1180
     16 C15        -4.3036    0.5843   -9.8722 C.ar      1 <0>         0.1059
     17 C16        -3.4969    0.1666   -8.8259 C.ar      1 <0>        -0.1655
     18 O1         -3.8377    1.4917  -10.7717 O.3       1 <0>        -0.3008
     19 C17        -2.5044    1.9690  -10.5804 C.3       1 <0>         0.0253
     20 O2         -6.3903    0.4871  -11.0204 O.3       1 <0>        -0.3014
     21 C18        -7.7019   -0.0764  -11.0869 C.3       1 <0>         0.0227
     22 C19        -1.7993   -1.6000    0.5892 C.1       1 <0>         0.2041
     23 N2         -2.0910   -2.6813    0.7792 N.1       1 <0>        -0.4101
     24 C20        -1.7157    0.6241    1.5707 C.ar      1 <0>        -0.0960
     25 C21        -0.6924    1.2978    2.2112 C.ar      1 <0>        -0.1135
     26 C22        -0.9573    2.0540    3.3377 C.ar      1 <0>        -0.1756
     27 C23        -2.2510    2.1383    3.8270 C.ar      1 <0>         0.1175
     28 C24        -3.2811    1.4605    3.1820 C.ar      1 <0>         0.1030
     29 C25        -3.0094    0.7082    2.0505 C.ar      1 <0>        -0.1606
     30 O3         -4.5524    1.5402    3.6584 O.3       1 <0>        -0.3010
     31 C26        -5.5587    0.8184    2.9454 C.3       1 <0>         0.0257
     32 O4         -2.5133    2.8814    4.9353 O.3       1 <0>        -0.3026
     33 C27        -1.4070    3.5493    5.5454 C.3       1 <0>         0.0232
     34 H1          1.5417    1.4471   -0.1220 H         1 <0>         0.0714
     35 H2          0.1801    1.6060   -1.2573 H         1 <0>         0.0573
     36 H3         -0.0504    1.9823    0.4671 H         1 <0>         0.0866
     37 H4          0.2874   -0.7230   -0.8599 H         1 <0>         0.0818
     38 H5          1.8959   -0.2762    1.1621 H         1 <0>         0.0724
     39 H6          0.4106   -0.3318    2.1415 H         1 <0>         0.0837
     40 H7          0.8938   -1.7472    1.1763 H         1 <0>         0.0565
     41 H8         -3.2884    0.2910   -0.6133 H         1 <0>         0.0854
     42 H9         -1.9437    1.3831   -1.0228 H         1 <0>         0.1040
     43 H10        -0.8600   -0.4354   -2.3140 H         1 <0>         0.0984
     44 H11        -2.2047   -1.5275   -1.9045 H         1 <0>         0.0867
     45 H12        -3.7919   -0.0001   -3.0431 H         1 <0>         0.1322
     46 H13        -2.4473    1.0920   -3.4526 H         1 <0>         0.1347
     47 H14        -0.8339    0.4722   -5.0545 H         1 <0>         0.1249
     48 H15        -0.3932   -0.9095   -4.0226 H         1 <0>         0.1255
     49 H16        -0.8172   -1.1741   -5.7310 H         1 <0>         0.1260
     50 H17        -4.3424   -0.3437   -5.2617 H         1 <0>         0.1327
     51 H18        -3.0405    0.7218   -5.8431 H         1 <0>         0.1319
     52 H19        -2.0457   -1.1754   -7.0921 H         1 <0>         0.0944
     53 H20        -3.3477   -2.2408   -6.5107 H         1 <0>         0.0957
     54 H21        -5.6193   -1.9840   -7.3242 H         1 <0>         0.1290
     55 H22        -7.0638   -1.2429   -9.1741 H         1 <0>         0.1420
     56 H23        -2.4969    0.5616   -8.7240 H         1 <0>         0.1364
     57 H24        -2.2588    2.6850  -11.3647 H         1 <0>         0.1070
     58 H25        -2.4286    2.4553   -9.6078 H         1 <0>         0.0539
     59 H26        -1.8088    1.1309  -10.6227 H         1 <0>         0.0563
     60 H27        -7.6275   -1.1590  -11.1896 H         1 <0>         0.0592
     61 H28        -8.2478    0.1654  -10.1750 H         1 <0>         0.0584
     62 H29        -8.2308    0.3347  -11.9468 H         1 <0>         0.1080
     63 H30         0.3164    1.2329    1.8308 H         1 <0>         0.1604
     64 H31        -0.1560    2.5788    3.8366 H         1 <0>         0.1426
     65 H32        -3.8077    0.1843    1.5459 H         1 <0>         0.1325
     66 H33        -6.5240    0.9669    3.4294 H         1 <0>         0.1055
     67 H34        -5.6074    1.1811    1.9187 H         1 <0>         0.0536
     68 H35        -5.3123   -0.2434    2.9444 H         1 <0>         0.0538
     69 H36        -0.6644    2.8139    5.8548 H         1 <0>         0.0583
     70 H37        -0.9593    4.2388    4.8297 H         1 <0>         0.0585
     71 H38        -1.7536    4.1046    6.4169 H         1 <0>         0.1058
     72 H39        -2.6218   -1.7207   -4.2712 H         1 <0>         0.4250
@<TRIPOS>BOND
     1    1    2 1
     2    1   34 1
     3    1   35 1
     4    1   36 1
     5    2    3 1
     6    2    4 1
     7    2   37 1
     8    3   38 1
     9    3   39 1
    10    3   40 1
    11    4    5 1
    12    4   22 1
    13    4   24 1
    14    5    6 1
    15    5   41 1
    16    5   42 1
    17    6    7 1
    18    6   43 1
    19    6   44 1
    20    7    8 1
    21    7   45 1
    22    7   46 1
    23    8    9 1
    24    8   10 1
    25    8   72 1
    26    9   47 1
    27    9   48 1
    28    9   49 1
    29   10   11 1
    30   10   50 1
    31   10   51 1
    32   11   12 1
    33   11   52 1
    34   11   53 1
    35   12   17 ar
    36   12   13 ar
    37   13   14 ar
    38   13   54 1
    39   14   15 ar
    40   14   55 1
    41   15   16 ar
    42   15   20 1
    43   16   17 ar
    44   16   18 1
    45   17   56 1
    46   18   19 1
    47   19   57 1
    48   19   58 1
    49   19   59 1
    50   20   21 1
    51   21   60 1
    52   21   61 1
    53   21   62 1
    54   22   23 3
    55   24   29 ar
    56   24   25 ar
    57   25   26 ar
    58   25   63 1
    59   26   27 ar
    60   26   64 1
    61   27   28 ar
    62   27   32 1
    63   28   29 ar
    64   28   30 1
    65   29   65 1
    66   30   31 1
    67   31   66 1
    68   31   67 1
    69   31   68 1
    70   32   33 1
    71   33   69 1
    72   33   70 1
    73   33   71 1
@<TRIPOS>MOLECULE
ZINC00621893
   56    58     0     0     0
SMALL
USER_CHARGES

@<TRIPOS>ATOM
      1 C1         -1.8116    0.6359    0.1103 C.3       1 <0>        -0.1479
      2 C2         -1.2733   -0.7661   -0.0154 C.2       1 <0>         0.4603
      3 O1         -1.2365   -1.4881    0.9527 O.2       1 <0>        -0.5144
      4 O2         -0.8348   -1.2127   -1.2028 O.3       1 <0>        -0.3048
      5 C3         -0.3379   -2.5517   -1.2491 C.3       1 <0>         0.0768
      6 H1          0.0909   -2.8105   -0.2809 H         1 <0>         0.1106
      7 C4          0.7511   -2.6529   -2.3310 C.3       1 <0>        -0.0132
      8 H2          1.6870   -2.2400   -1.9546 H         1 <0>         0.1261
      9 S1          0.9666   -4.4216   -2.7229 S.3       1 <0>        -0.0909
     10 C5          0.8947   -5.1967   -1.1401 C.ar      1 <0>        -0.1433
     11 C6          2.0380   -5.7182   -0.5569 C.ar      1 <0>        -0.0397
     12 C7          1.9577   -6.3228    0.6848 C.ar      1 <0>        -0.1165
     13 C8          0.7434   -6.4072    1.3414 C.ar      1 <0>        -0.0700
     14 C9         -0.4015   -5.8878    0.7635 C.ar      1 <0>        -0.1354
     15 C10        -0.3288   -5.2803   -0.4790 C.ar      1 <0>         0.1556
     16 N1         -1.4766   -4.7426   -1.0813 N.am      1 <0>        -0.5515
     17 C11        -1.4672   -3.4893   -1.5578 C.2       1 <0>         0.5190
     18 O3         -2.3887   -3.1045   -2.2463 O.2       1 <0>        -0.4824
     19 C12        -2.6897   -5.5561   -1.1945 C.3       1 <0>         0.0897
     20 C13        -3.5576   -5.3533    0.0492 C.3       1 <0>        -0.0366
     21 N2         -4.7740   -6.1690   -0.0643 N.4       1 <0>        -0.3827
     22 C14        -4.4114   -7.5925   -0.0573 C.3       1 <0>        -0.0556
     23 C15        -5.6621   -5.8842    1.0707 C.3       1 <0>        -0.0469
     24 C16         0.3194   -1.9022   -3.5643 C.ar      1 <0>        -0.1214
     25 C17         0.9449   -0.7172   -3.9053 C.ar      1 <0>        -0.0467
     26 C18         0.5507   -0.0269   -5.0351 C.ar      1 <0>        -0.1520
     27 C19        -0.4735   -0.5239   -5.8281 C.ar      1 <0>         0.1455
     28 C20        -1.0992   -1.7133   -5.4841 C.ar      1 <0>        -0.2080
     29 C21        -0.6978   -2.4025   -4.3561 C.ar      1 <0>        -0.0400
     30 O4         -0.8634    0.1536   -6.9398 O.3       1 <0>        -0.3134
     31 C22        -1.9240   -0.4173   -7.7087 C.3       1 <0>         0.0257
     32 H3         -0.9977    1.3165    0.3603 H         1 <0>         0.1138
     33 H4         -2.2610    0.9387   -0.8354 H         1 <0>         0.1003
     34 H5         -2.5654    0.6665    0.8971 H         1 <0>         0.1073
     35 H6          2.9869   -5.6528   -1.0686 H         1 <0>         0.1489
     36 H7          2.8465   -6.7307    1.1431 H         1 <0>         0.1429
     37 H8          0.6884   -6.8814    2.3101 H         1 <0>         0.1405
     38 H9         -1.3480   -5.9562    1.2791 H         1 <0>         0.1259
     39 H10        -3.2482   -5.2542   -2.0805 H         1 <0>         0.1186
     40 H11        -2.4155   -6.6076   -1.2786 H         1 <0>         0.1094
     41 H12        -2.9990   -5.6551    0.9352 H         1 <0>         0.1342
     42 H13        -3.8318   -4.3017    0.1333 H         1 <0>         0.1346
     43 H14        -5.3140   -8.1978   -0.1414 H         1 <0>         0.1301
     44 H15        -3.7524   -7.8038   -0.8994 H         1 <0>         0.1243
     45 H16        -3.8988   -7.8323    0.8743 H         1 <0>         0.1244
     46 H17        -5.9312   -4.8280    1.0654 H         1 <0>         0.1241
     47 H18        -6.5647   -6.4895    0.9865 H         1 <0>         0.1291
     48 H19        -5.1495   -6.1240    2.0022 H         1 <0>         0.1230
     49 H20         1.7421   -0.3308   -3.2876 H         1 <0>         0.1322
     50 H21         1.0391    0.8990   -5.3006 H         1 <0>         0.1373
     51 H22        -1.8967   -2.1022   -6.0998 H         1 <0>         0.1296
     52 H23        -1.1816   -3.3308   -4.0903 H         1 <0>         0.1259
     53 H24        -1.6283   -1.4067   -8.0574 H         1 <0>         0.0572
     54 H25        -2.8169   -0.5022   -7.0893 H         1 <0>         0.0563
     55 H26        -2.1360    0.2217   -8.5660 H         1 <0>         0.1044
     56 H27        -5.2486   -5.9470   -0.9266 H         1 <0>         0.4300
@<TRIPOS>BOND
     1    1    2 1
     2    1   32 1
     3    1   33 1
     4    1   34 1
     5    2    3 2
     6    2    4 1
     7    4    5 1
     8    5    6 1
     9    5   17 1
    10    5    7 1
    11    7    8 1
    12    7    9 1
    13    7   24 1
    14    9   10 1
    15   10   15 ar
    16   10   11 ar
    17   11   12 ar
    18   11   35 1
    19   12   13 ar
    20   12   36 1
    21   13   14 ar
    22   13   37 1
    23   14   15 ar
    24   14   38 1
    25   15   16 1
    26   16   17 am
    27   16   19 1
    28   17   18 2
    29   19   20 1
    30   19   39 1
    31   19   40 1
    32   20   21 1
    33   20   41 1
    34   20   42 1
    35   21   22 1
    36   21   23 1
    37   21   56 1
    38   22   43 1
    39   22   44 1
    40   22   45 1
    41   23   46 1
    42   23   47 1
    43   23   48 1
    44   24   29 ar
    45   24   25 ar
    46   25   26 ar
    47   25   49 1
    48   26   27 ar
    49   26   50 1
    50   27   28 ar
    51   27   30 1
    52   28   29 ar
    53   28   51 1
    54   29   52 1
    55   30   31 1
    56   31   53 1
    57   31   54 1
    58   31   55 1
@<TRIPOS>MOLECULE
ZINC01532185
   53    55     0     0     0
SMALL
USER_CHARGES

@<TRIPOS>ATOM
      1 C1         -0.4409    0.0564   -0.2782 C.3       1 <0>        -0.1837
      2 C2         -0.8674   -1.3379    0.1855 C.3       1 <0>         0.0315
      3 H1         -1.9344   -1.3361    0.4082 H         1 <0>         0.1401
      4 C3         -0.5792   -2.3539   -0.9215 C.3       1 <0>        -0.0993
      5 C4         -1.1104   -3.7042   -0.5148 C.ar      1 <0>        -0.1268
      6 C5         -0.3050   -4.5806    0.1882 C.ar      1 <0>        -0.1429
      7 C6         -0.7922   -5.8193    0.5613 C.ar      1 <0>        -0.1069
      8 C7         -2.0850   -6.1814    0.2318 C.ar      1 <0>        -0.1048
      9 C8         -2.8906   -5.3046   -0.4705 C.ar      1 <0>        -0.1052
     10 C9         -2.4048   -4.0643   -0.8398 C.ar      1 <0>        -0.1056
     11 N1         -0.1157   -1.7034    1.3935 N.4       1 <0>        -0.5090
     12 C10        -0.4834   -0.7993    2.4914 C.3       1 <0>        -0.0153
     13 C11         0.2995   -1.1801    3.7495 C.3       1 <0>        -0.1410
     14 C12        -0.0835   -0.2384    4.8930 C.3       1 <0>         0.0069
     15 C13         0.5933   -0.6881    6.1621 C.ar      1 <0>        -0.0878
     16 C14        -0.1521   -0.8916    7.3083 C.ar      1 <0>        -0.1102
     17 C15         0.4687   -1.3041    8.4725 C.ar      1 <0>        -0.1130
     18 C16         1.8350   -1.5135    8.4903 C.ar      1 <0>        -0.1123
     19 C17         2.5804   -1.3109    7.3439 C.ar      1 <0>        -0.1154
     20 C18         1.9589   -0.9025    6.1786 C.ar      1 <0>        -0.1161
     21 C19         0.3569    1.1634    4.5583 C.ar      1 <0>        -0.0932
     22 C20         1.6626    1.4043    4.1734 C.ar      1 <0>        -0.1205
     23 C21         2.0666    2.6901    3.8664 C.ar      1 <0>        -0.1143
     24 C22         1.1648    3.7350    3.9438 C.ar      1 <0>        -0.1132
     25 C23        -0.1411    3.4939    4.3278 C.ar      1 <0>        -0.1118
     26 C24        -0.5462    2.2074    4.6307 C.ar      1 <0>        -0.1134
     27 H2          0.6261    0.0546   -0.5009 H         1 <0>         0.0831
     28 H3         -0.9987    0.3276   -1.1745 H         1 <0>         0.1074
     29 H4         -0.6463    0.7802    0.5105 H         1 <0>         0.0840
     30 H5         -1.0656   -2.0347   -1.8433 H         1 <0>         0.1208
     31 H6          0.4968   -2.4202   -1.0827 H         1 <0>         0.0974
     32 H7          0.7050   -4.2977    0.4457 H         1 <0>         0.1208
     33 H8         -0.1628   -6.5042    1.1100 H         1 <0>         0.1314
     34 H9         -2.4654   -7.1494    0.5227 H         1 <0>         0.1320
     35 H10        -3.9005   -5.5877   -0.7282 H         1 <0>         0.1324
     36 H11        -3.0355   -3.3779   -1.3853 H         1 <0>         0.1295
     37 H12        -0.3360   -2.6535    1.6521 H         1 <0>         0.4254
     38 H13        -0.2455    0.2270    2.2120 H         1 <0>         0.1372
     39 H14        -1.5521   -0.8836    2.6890 H         1 <0>         0.1330
     40 H15         0.0615   -2.2064    4.0289 H         1 <0>         0.0944
     41 H16         1.3681   -1.0958    3.5519 H         1 <0>         0.0916
     42 H17        -1.1645   -0.2563    5.0318 H         1 <0>         0.0962
     43 H18        -1.2196   -0.7280    7.2944 H         1 <0>         0.1229
     44 H19        -0.1136   -1.4624    9.3682 H         1 <0>         0.1269
     45 H20         2.3202   -1.8351    9.4001 H         1 <0>         0.1263
     46 H21         3.6478   -1.4742    7.3579 H         1 <0>         0.1251
     47 H22         2.5406   -0.7478    5.2820 H         1 <0>         0.1188
     48 H23         2.3671    0.5880    4.1130 H         1 <0>         0.1208
     49 H24         3.0868    2.8785    3.5664 H         1 <0>         0.1252
     50 H25         1.4806    4.7397    3.7047 H         1 <0>         0.1262
     51 H26        -0.8455    4.3103    4.3886 H         1 <0>         0.1268
     52 H27        -1.5674    2.0185    4.9271 H         1 <0>         0.1237
     53 H28         0.8735   -1.6254    1.2105 H         1 <0>         0.4238
@<TRIPOS>BOND
     1    1    2 1
     2    1   27 1
     3    1   28 1
     4    1   29 1
     5    2    3 1
     6    2    4 1
     7    2   11 1
     8    4    5 1
     9    4   30 1
    10    4   31 1
    11    5   10 ar
    12    5    6 ar
    13    6    7 ar
    14    6   32 1
    15    7    8 ar
    16    7   33 1
    17    8    9 ar
    18    8   34 1
    19    9   10 ar
    20    9   35 1
    21   10   36 1
    22   11   12 1
    23   11   37 1
    24   11   53 1
    25   12   13 1
    26   12   38 1
    27   12   39 1
    28   13   14 1
    29   13   40 1
    30   13   41 1
    31   14   15 1
    32   14   21 1
    33   14   42 1
    34   15   20 ar
    35   15   16 ar
    36   16   17 ar
    37   16   43 1
    38   17   18 ar
    39   17   44 1
    40   18   19 ar
    41   18   45 1
    42   19   20 ar
    43   19   46 1
    44   20   47 1
    45   21   26 ar
    46   21   22 ar
    47   22   23 ar
    48   22   48 1
    49   23   24 ar
    50   23   49 1
    51   24   25 ar
    52   24   50 1
    53   25   26 ar
    54   25   51 1
    55   26   52 1
@<TRIPOS>MOLECULE
ZINC01532186
   53    55     0     0     0
SMALL
USER_CHARGES

@<TRIPOS>ATOM
      1 C1          0.1837    2.7840   -0.6454 C.3       1 <0>        -0.1835
      2 C2          0.7239    1.3858   -0.3387 C.3       1 <0>         0.0310
      3 H1         -0.0927    0.7464   -0.0032 H         1 <0>         0.1397
      4 C3          1.7839    1.4784    0.7607 C.3       1 <0>        -0.0994
      5 C4          2.2274    0.0914    1.1489 C.ar      1 <0>        -0.1269
      6 C5          1.5677   -0.5887    2.1555 C.ar      1 <0>        -0.1052
      7 C6          1.9745   -1.8610    2.5116 C.ar      1 <0>        -0.1052
      8 C7          3.0407   -2.4532    1.8610 C.ar      1 <0>        -0.1048
      9 C8          3.6998   -1.7734    0.8538 C.ar      1 <0>        -0.1070
     10 C9          3.2903   -0.5029    0.4947 C.ar      1 <0>        -0.1428
     11 N1          1.3251    0.8161   -1.5519 N.4       1 <0>        -0.5090
     12 C10         0.2826    0.6159   -2.5674 C.3       1 <0>        -0.0150
     13 C11         0.9088    0.0226   -3.8310 C.3       1 <0>        -0.1412
     14 C12        -0.1769   -0.1859   -4.8887 C.3       1 <0>         0.0073
     15 C13         0.4566   -0.6542   -6.1734 C.ar      1 <0>        -0.0878
     16 C14         0.1891    0.0075   -7.3572 C.ar      1 <0>        -0.1101
     17 C15         0.7702   -0.4221   -8.5357 C.ar      1 <0>        -0.1131
     18 C16         1.6191   -1.5130   -8.5301 C.ar      1 <0>        -0.1122
     19 C17         1.8873   -2.1742   -7.3461 C.ar      1 <0>        -0.1154
     20 C18         1.3096   -1.7420   -6.1670 C.ar      1 <0>        -0.1161
     21 C19        -1.1571   -1.2232   -4.4046 C.ar      1 <0>        -0.0935
     22 C20        -0.7013   -2.4489   -3.9565 C.ar      1 <0>        -0.1201
     23 C21        -1.6004   -3.4004   -3.5125 C.ar      1 <0>        -0.1143
     24 C22        -2.9553   -3.1260   -3.5162 C.ar      1 <0>        -0.1131
     25 C23        -3.4110   -1.9000   -3.9635 C.ar      1 <0>        -0.1119
     26 C24        -2.5116   -0.9469   -4.4035 C.ar      1 <0>        -0.1133
     27 H2          1.0002    3.4234   -0.9809 H         1 <0>         0.0835
     28 H3         -0.5715    2.7181   -1.4286 H         1 <0>         0.0838
     29 H4         -0.2624    3.2067    0.2549 H         1 <0>         0.1075
     30 H5          2.6401    2.0440    0.3931 H         1 <0>         0.0976
     31 H6          1.3622    1.9818    1.6306 H         1 <0>         0.1208
     32 H7          0.7348   -0.1260    2.6638 H         1 <0>         0.1293
     33 H8          1.4596   -2.3921    3.2985 H         1 <0>         0.1322
     34 H9          3.3590   -3.4469    2.1397 H         1 <0>         0.1318
     35 H10         4.5330   -2.2360    0.3457 H         1 <0>         0.1313
     36 H11         3.8029    0.0268   -0.2947 H         1 <0>         0.1209
     37 H12         2.0255    1.4486   -1.9091 H         1 <0>         0.4240
     38 H13        -0.4740   -0.0673   -2.1816 H         1 <0>         0.1337
     39 H14        -0.1804    1.5733   -2.8065 H         1 <0>         0.1363
     40 H15         1.6654    0.7058   -4.2168 H         1 <0>         0.0955
     41 H16         1.3718   -0.9348   -3.5920 H         1 <0>         0.0906
     42 H17        -0.6997    0.7545   -5.0631 H         1 <0>         0.0965
     43 H18        -0.4742    0.8598   -7.3615 H         1 <0>         0.1231
     44 H19         0.5607    0.0944   -9.4607 H         1 <0>         0.1269
     45 H20         2.0726   -1.8491   -9.4509 H         1 <0>         0.1263
     46 H21         2.5503   -3.0267   -7.3419 H         1 <0>         0.1250
     47 H22         1.5221   -2.2562   -5.2413 H         1 <0>         0.1187
     48 H23         0.3572   -2.6632   -3.9535 H         1 <0>         0.1205
     49 H24        -1.2444   -4.3583   -3.1630 H         1 <0>         0.1249
     50 H25        -3.6578   -3.8697   -3.1700 H         1 <0>         0.1261
     51 H26        -4.4695   -1.6858   -3.9668 H         1 <0>         0.1269
     52 H27        -2.8673    0.0123   -4.7495 H         1 <0>         0.1238
     53 H28         1.7537   -0.0701   -1.3307 H         1 <0>         0.4254
@<TRIPOS>BOND
     1    1    2 1
     2    1   27 1
     3    1   28 1
     4    1   29 1
     5    2    3 1
     6    2    4 1
     7    2   11 1
     8    4    5 1
     9    4   30 1
    10    4   31 1
    11    5   10 ar
    12    5    6 ar
    13    6    7 ar
    14    6   32 1
    15    7    8 ar
    16    7   33 1
    17    8    9 ar
    18    8   34 1
    19    9   10 ar
    20    9   35 1
    21   10   36 1
    22   11   12 1
    23   11   37 1
    24   11   53 1
    25   12   13 1
    26   12   38 1
    27   12   39 1
    28   13   14 1
    29   13   40 1
    30   13   41 1
    31   14   15 1
    32   14   21 1
    33   14   42 1
    34   15   20 ar
    35   15   16 ar
    36   16   17 ar
    37   16   43 1
    38   17   18 ar
    39   17   44 1
    40   18   19 ar
    41   18   45 1
    42   19   20 ar
    43   19   46 1
    44   20   47 1
    45   21   26 ar
    46   21   22 ar
    47   22   23 ar
    48   22   48 1
    49   23   24 ar
    50   23   49 1
    51   24   25 ar
    52   24   50 1
    53   25   26 ar
    54   25   51 1
    55   26   52 1
@<TRIPOS>MOLECULE
ZINC19227928
   43    44     0     0     0
SMALL
USER_CHARGES

@<TRIPOS>ATOM
      1 C1          0.2088    1.4967    0.1192 C.3       1 <0>        -0.1181
      2 C2          0.1129   -0.0059    0.0571 C.2       1 <0>         0.2458
      3 C3         -1.0906   -0.5985    0.1435 C.2       1 <0>        -0.2639
      4 C4         -1.2330   -2.0933    0.0949 C.3       1 <0>         0.0880
      5 C5          0.0186   -2.7299   -0.4394 C.2       1 <0>        -0.2323
      6 C6          1.1777   -2.0520   -0.5025 C.2       1 <0>         0.1898
      7 N1          1.2513   -0.7501   -0.0923 N.pl3     1 <0>        -0.6276
      8 C7          2.4107   -2.7341   -1.0368 C.3       1 <0>        -0.1352
      9 C8         -0.0235   -4.0713   -0.8850 C.2       1 <0>         0.5307
     10 O1         -0.4519   -4.3308   -1.9940 O.2       1 <0>        -0.4910
     11 O2          0.4116   -5.0636   -0.0805 O.3       1 <0>        -0.3487
     12 C9          0.3400   -6.3947   -0.5953 C.3       1 <0>         0.0290
     13 C10        -1.4991   -2.6119    1.4846 C.ar      1 <0>        -0.0731
     14 C11        -0.5808   -2.3881    2.4936 C.ar      1 <0>        -0.0487
     15 C12        -0.8248   -2.8637    3.7682 C.ar      1 <0>        -0.1160
     16 C13        -1.9876   -3.5628    4.0343 C.ar      1 <0>        -0.0559
     17 C14        -2.9061   -3.7857    3.0258 C.ar      1 <0>        -0.0466
     18 C15        -2.6639   -3.3062    1.7518 C.ar      1 <0>        -0.0387
     19 N2         -4.1507   -4.5346    3.3106 N.pl3     1 <0>         0.0338
     20 O3         -4.3638   -4.9513    4.4253 O.2       1 <0>        -0.1595
     21 O4         -4.9541   -4.7296    2.4285 O.3       1 <0>        -0.1568
     22 C16        -2.2476    0.2025    0.2837 C.2       1 <0>         0.5195
     23 O5         -2.1472    1.4145    0.3249 O.2       1 <0>        -0.5191
     24 O6         -3.4630   -0.3773    0.3718 O.3       1 <0>        -0.3508
     25 C17        -4.5881    0.4925    0.5119 C.3       1 <0>         0.0364
     26 H1          1.2524    1.7982    0.0292 H         1 <0>         0.0657
     27 H2         -0.3668    1.9317   -0.6979 H         1 <0>         0.1067
     28 H3         -0.1899    1.8472    1.0713 H         1 <0>         0.1036
     29 H4         -2.0717   -2.3531   -0.5511 H         1 <0>         0.1004
     30 H5          2.1158   -0.3533    0.0974 H         1 <0>         0.4249
     31 H6          2.4885   -2.5561   -2.1093 H         1 <0>         0.0944
     32 H7          3.2928   -2.3338   -0.5371 H         1 <0>         0.0873
     33 H8          2.3426   -3.8059   -0.8504 H         1 <0>         0.0907
     34 H9          0.7198   -7.0934    0.1501 H         1 <0>         0.1035
     35 H10        -0.6965   -6.6391   -0.8276 H         1 <0>         0.0627
     36 H11         0.9421   -6.4668   -1.5010 H         1 <0>         0.0626
     37 H12         0.3275   -1.8420    2.2857 H         1 <0>         0.1322
     38 H13        -0.1071   -2.6895    4.5562 H         1 <0>         0.1470
     39 H14        -2.1780   -3.9350    5.0301 H         1 <0>         0.1529
     40 H15        -3.3834   -3.4772    0.9647 H         1 <0>         0.1525
     41 H16        -5.5007   -0.1006    0.5714 H         1 <0>         0.1016
     42 H17        -4.4792    1.0839    1.4210 H         1 <0>         0.0590
     43 H18        -4.6427    1.1576   -0.3499 H         1 <0>         0.0613
@<TRIPOS>BOND
     1    1    2 1
     2    1   26 1
     3    1   27 1
     4    1   28 1
     5    2    7 1
     6    2    3 2
     7    3    4 1
     8    3   22 1
     9    4    5 1
    10    4   13 1
    11    4   29 1
    12    5    6 2
    13    5    9 1
    14    6    7 1
    15    6    8 1
    16    7   30 1
    17    8   31 1
    18    8   32 1
    19    8   33 1
    20    9   10 2
    21    9   11 1
    22   11   12 1
    23   12   34 1
    24   12   35 1
    25   12   36 1
    26   13   18 ar
    27   13   14 ar
    28   14   15 ar
    29   14   37 1
    30   15   16 ar
    31   15   38 1
    32   16   17 ar
    33   16   39 1
    34   17   18 ar
    35   17   19 1
    36   18   40 1
    37   19   20 2
    38   19   21 1
    39   22   23 2
    40   22   24 1
    41   24   25 1
    42   25   41 1
    43   25   42 1
    44   25   43 1
@<TRIPOS>MOLECULE
ZINC19685792
   83    87     0     0     0
SMALL
USER_CHARGES

@<TRIPOS>ATOM
      1 C1         -2.3190    3.9615   -1.1507 C.3       1 <0>        -0.1024
      2 C2         -3.0498    3.6401   -2.4289 C.2       1 <0>         0.3032
      3 C3         -4.0177    2.6772   -2.4085 C.2       1 <0>        -0.3996
      4 C4         -4.7363    2.3761   -3.7110 C.3       1 <0>         0.1171
      5 H1         -5.8024    2.5444   -3.5586 H         1 <0>         0.0492
      6 C5         -4.2947    3.1903   -4.9143 C.2       1 <0>        -0.3902
      7 C6         -4.8696    3.0119   -6.1534 C.2       1 <0>         0.4758
      8 O1         -4.3666    3.6509   -7.2280 O.3       1 <0>        -0.6298
      9 O2         -5.9351    2.1984   -6.2910 O.3       1 <0>        -0.3383
     10 C7         -6.4804    2.0601   -7.6046 C.3       1 <0>         0.0410
     11 C8         -3.2808    4.1280   -4.7097 C.2       1 <0>         0.3191
     12 N1         -2.7331    4.3057   -3.5291 N.2       1 <0>        -0.6397
     13 C9         -2.8065    4.9616   -5.8721 C.3       1 <0>        -0.0978
     14 C10        -4.5342    0.9181   -4.0341 C.ar      1 <0>        -0.0400
     15 C11        -3.2552    0.4012   -4.1260 C.ar      1 <0>        -0.0509
     16 C12        -3.0698   -0.9360   -4.4224 C.ar      1 <0>        -0.1226
     17 C13        -4.1635   -1.7568   -4.6265 C.ar      1 <0>        -0.0758
     18 C14        -5.4421   -1.2403   -4.5337 C.ar      1 <0>        -0.0587
     19 C15        -5.6276    0.0963   -4.2331 C.ar      1 <0>        -0.0356
     20 N2         -6.6129   -2.1190   -4.7528 N.pl3     1 <0>         0.0404
     21 O3         -6.4550   -3.3058   -4.9209 O.2       1 <0>        -0.1760
     22 O4         -7.7272   -1.6500   -4.7635 O.3       1 <0>        -0.1690
     23 C16        -4.3366    1.9896   -1.2245 C.2       1 <0>         0.5292
     24 O5         -3.6740    2.1693   -0.2185 O.2       1 <0>        -0.5537
     25 O6         -5.3780    1.1297   -1.2025 O.3       1 <0>        -0.3515
     26 C17        -5.7148    0.5508    0.0598 C.3       1 <0>         0.0470
     27 C18        -6.8292   -0.4797   -0.1327 C.3       1 <0>        -0.0098
     28 N3         -7.2479   -0.9985    1.1763 N.4       1 <0>        -0.3806
     29 C19        -7.8715    0.0805    1.9536 C.3       1 <0>        -0.0087
     30 C20        -8.2908   -0.4549    3.3245 C.3       1 <0>         0.0284
     31 N4         -9.2387   -1.5638    3.1452 N.3       1 <0>        -0.5295
     32 C21        -8.6366   -2.6413    2.3473 C.3       1 <0>         0.0252
     33 C22        -8.2144   -2.0879    0.9845 C.3       1 <0>         0.0003
     34 C23        -9.7093   -2.0689    4.4418 C.3       1 <0>         0.1776
     35 C24       -10.4614   -0.9797    5.1623 C.ar      1 <0>        -0.0909
     36 C25       -11.3896   -0.2141    4.4816 C.ar      1 <0>        -0.0909
     37 C26       -12.0794    0.7851    5.1425 C.ar      1 <0>        -0.1215
     38 C27       -11.8415    1.0183    6.4841 C.ar      1 <0>        -0.1106
     39 C28       -10.9140    0.2521    7.1649 C.ar      1 <0>        -0.1176
     40 C29       -10.2272   -0.7499    6.5051 C.ar      1 <0>        -0.1105
     41 C30       -10.6219   -3.2476    4.2205 C.ar      1 <0>        -0.0926
     42 C31       -11.6057   -3.1877    3.2512 C.ar      1 <0>        -0.0952
     43 C32       -12.4427   -4.2688    3.0482 C.ar      1 <0>        -0.1204
     44 C33       -12.2957   -5.4102    3.8142 C.ar      1 <0>        -0.1104
     45 C34       -11.3114   -5.4704    4.7828 C.ar      1 <0>        -0.1167
     46 C35       -10.4715   -4.3908    4.9829 C.ar      1 <0>        -0.1104
     47 H2         -1.5888    4.7488   -1.3378 H         1 <0>         0.0609
     48 H3         -3.0328    4.2991   -0.3992 H         1 <0>         0.0747
     49 H4         -1.8071    3.0691   -0.7906 H         1 <0>         0.0807
     50 H5         -6.8075    3.0348   -7.9667 H         1 <0>         0.0560
     51 H6         -5.7186    1.6607   -8.2741 H         1 <0>         0.0519
     52 H7         -7.3312    1.3793   -7.5750 H         1 <0>         0.0871
     53 H8         -3.6548    5.4832   -6.3152 H         1 <0>         0.0836
     54 H9         -2.0746    5.6898   -5.5222 H         1 <0>         0.0546
     55 H10        -2.3469    4.3149   -6.6194 H         1 <0>         0.0847
     56 H11        -2.4009    1.0425   -3.9666 H         1 <0>         0.1330
     57 H12        -2.0707   -1.3396   -4.4948 H         1 <0>         0.1396
     58 H13        -4.0186   -2.8016   -4.8587 H         1 <0>         0.1434
     59 H14        -6.6268    0.4991   -4.1569 H         1 <0>         0.1442
     60 H15        -4.8365    0.0617    0.4812 H         1 <0>         0.0793
     61 H16        -6.0560    1.3325    0.7385 H         1 <0>         0.0774
     62 H17        -7.6793   -0.0077   -0.6253 H         1 <0>         0.1431
     63 H18        -6.4624   -1.3008   -0.7486 H         1 <0>         0.1354
     64 H19        -7.1576    0.8937    2.0841 H         1 <0>         0.1381
     65 H20        -8.7496    0.4494    1.4236 H         1 <0>         0.1416
     66 H21        -7.4111   -0.8114    3.8603 H         1 <0>         0.0618
     67 H22        -8.7671    0.3418    3.8959 H         1 <0>         0.1260
     68 H23        -7.7626   -3.0338    2.8670 H         1 <0>         0.0612
     69 H24        -9.3650   -3.4396    2.2058 H         1 <0>         0.1282
     70 H25        -9.0907   -1.7078    0.4594 H         1 <0>         0.1411
     71 H26        -7.7546   -2.8821    0.3964 H         1 <0>         0.1365
     72 H27        -8.8546   -2.3790    5.0429 H         1 <0>         0.0663
     73 H28       -11.5755   -0.3963    3.4335 H         1 <0>         0.1278
     74 H29       -12.8040    1.3837    4.6105 H         1 <0>         0.1243
     75 H30       -12.3799    1.7994    7.0002 H         1 <0>         0.1241
     76 H31       -10.7278    0.4345    8.2130 H         1 <0>         0.1246
     77 H32        -9.5053   -1.3510    7.0379 H         1 <0>         0.1196
     78 H33       -11.7205   -2.2960    2.6528 H         1 <0>         0.1285
     79 H34       -13.2118   -4.2217    2.2914 H         1 <0>         0.1252
     80 H35       -12.9502   -6.2546    3.6560 H         1 <0>         0.1247
     81 H36       -11.1968   -6.3620    5.3815 H         1 <0>         0.1250
     82 H37        -9.7001   -4.4393    5.7372 H         1 <0>         0.1201
     83 H38        -6.4419   -1.3478    1.6728 H         1 <0>         0.4203
@<TRIPOS>BOND
     1    1    2 1
     2    1   47 1
     3    1   48 1
     4    1   49 1
     5    2   12 1
     6    2    3 2
     7    3    4 1
     8    3   23 1
     9    4    5 1
    10    4    6 1
    11    4   14 1
    12    6    7 2
    13    6   11 1
    14    7    8 1
    15    7    9 1
    16    9   10 1
    17   10   50 1
    18   10   51 1
    19   10   52 1
    20   11   12 2
    21   11   13 1
    22   13   53 1
    23   13   54 1
    24   13   55 1
    25   14   19 ar
    26   14   15 ar
    27   15   16 ar
    28   15   56 1
    29   16   17 ar
    30   16   57 1
    31   17   18 ar
    32   17   58 1
    33   18   19 ar
    34   18   20 1
    35   19   59 1
    36   20   21 2
    37   20   22 1
    38   23   24 2
    39   23   25 1
    40   25   26 1
    41   26   27 1
    42   26   60 1
    43   26   61 1
    44   27   28 1
    45   27   62 1
    46   27   63 1
    47   28   33 1
    48   28   29 1
    49   28   83 1
    50   29   30 1
    51   29   64 1
    52   29   65 1
    53   30   31 1
    54   30   66 1
    55   30   67 1
    56   31   32 1
    57   31   34 1
    58   32   33 1
    59   32   68 1
    60   32   69 1
    61   33   70 1
    62   33   71 1
    63   34   35 1
    64   34   41 1
    65   34   72 1
    66   35   40 ar
    67   35   36 ar
    68   36   37 ar
    69   36   73 1
    70   37   38 ar
    71   37   74 1
    72   38   39 ar
    73   38   75 1
    74   39   40 ar
    75   39   76 1
    76   40   77 1
    77   41   46 ar
    78   41   42 ar
    79   42   43 ar
    80   42   78 1
    81   43   44 ar
    82   43   79 1
    83   44   45 ar
    84   44   80 1
    85   45   46 ar
    86   45   81 1
    87   46   82 1
@<TRIPOS>MOLECULE
ZINC19685792
   84    88     0     0     0
SMALL
USER_CHARGES

@<TRIPOS>ATOM
      1 C1          6.0756  -12.6175   -2.2573 C.3       1 <0>        -0.1212
      2 C2          4.9896  -11.6174   -1.9550 C.2       1 <0>         0.2481
      3 C3          4.6629  -10.6936   -2.8753 C.2       1 <0>        -0.2657
      4 C4          3.5814   -9.6824   -2.6205 C.3       1 <0>         0.0881
      5 H1          3.9187   -8.7030   -2.9597 H         1 <0>         0.1000
      6 C5          3.2527   -9.6125   -1.1561 C.2       1 <0>        -0.2378
      7 C6          3.6360  -10.5797   -0.3049 C.2       1 <0>         0.1970
      8 N1          4.3443  -11.6643   -0.7495 N.pl3     1 <0>        -0.6294
      9 C7          3.2768  -10.4718    1.1547 C.3       1 <0>        -0.1335
     10 C8          2.5248   -8.5051   -0.6626 C.2       1 <0>         0.5338
     11 O1          3.0877   -7.4433   -0.4717 O.2       1 <0>        -0.4902
     12 O2          1.2060   -8.6259   -0.4033 O.3       1 <0>        -0.3323
     13 C9          0.5557   -7.5002    0.1900 C.3       1 <0>         0.0636
     14 C10        -0.8925   -7.8649    0.5229 C.3       1 <0>         0.0573
     15 N2         -1.6140   -8.1851   -0.7160 N.3       1 <0>        -0.5306
     16 C11        -1.8763   -6.9709   -1.5016 C.3       1 <0>         0.0238
     17 C12        -2.5744   -7.3534   -2.8085 C.3       1 <0>         0.0005
     18 N3         -3.8353   -8.0438   -2.5064 N.4       1 <0>        -0.3822
     19 C13        -3.5551   -9.2669   -1.7428 C.3       1 <0>        -0.0051
     20 C14        -2.8651   -8.9002   -0.4271 C.3       1 <0>         0.0311
     21 C15        -4.5138   -8.3948   -3.7611 C.3       1 <0>         0.1330
     22 C16        -5.7832   -9.1461   -3.4525 C.ar      1 <0>        -0.1281
     23 C17        -6.5796   -8.7520   -2.3936 C.ar      1 <0>        -0.1230
     24 C18        -7.7440   -9.4411   -2.1105 C.ar      1 <0>        -0.1031
     25 C19        -8.1123  -10.5241   -2.8867 C.ar      1 <0>        -0.0933
     26 C20        -7.3164  -10.9176   -3.9462 C.ar      1 <0>        -0.1031
     27 C21        -6.1542  -10.2259   -4.2318 C.ar      1 <0>        -0.0853
     28 C22        -4.8468   -7.1368   -4.5211 C.ar      1 <0>        -0.1366
     29 C23        -5.4141   -6.0615   -3.8632 C.ar      1 <0>        -0.1193
     30 C24        -5.7195   -4.9076   -4.5603 C.ar      1 <0>        -0.1065
     31 C25        -5.4571   -4.8287   -5.9153 C.ar      1 <0>        -0.0906
     32 C26        -4.8889   -5.9036   -6.5729 C.ar      1 <0>        -0.1024
     33 C27        -4.5796   -7.0560   -5.8750 C.ar      1 <0>        -0.0798
     34 C28         2.3449  -10.0744   -3.3875 C.ar      1 <0>        -0.0618
     35 C29         1.7806  -11.3223   -3.1983 C.ar      1 <0>        -0.0438
     36 C30         0.6465  -11.6817   -3.9018 C.ar      1 <0>        -0.1139
     37 C31         0.0761  -10.7933   -4.7944 C.ar      1 <0>        -0.0632
     38 C32         0.6397   -9.5454   -4.9829 C.ar      1 <0>        -0.0498
     39 C33         1.7717   -9.1842   -4.2760 C.ar      1 <0>        -0.0378
     40 N4          0.0293   -8.5944   -5.9390 N.pl3     1 <0>         0.0349
     41 O3         -1.0132   -8.8715   -6.4849 O.2       1 <0>        -0.1703
     42 O4          0.5733   -7.5406   -6.1739 O.3       1 <0>        -0.1519
     43 C34         5.3524  -10.6729   -4.1097 C.2       1 <0>         0.5166
     44 O5          6.2309  -11.4857   -4.3297 O.2       1 <0>        -0.5140
     45 O6          5.0362   -9.7517   -5.0439 O.3       1 <0>        -0.3532
     46 C35         5.7733   -9.7891   -6.2675 C.3       1 <0>         0.0358
     47 H2          6.2007  -13.2865   -1.4059 H         1 <0>         0.0676
     48 H3          5.8002  -13.1978   -3.1380 H         1 <0>         0.1051
     49 H4          7.0113  -12.0916   -2.4467 H         1 <0>         0.1083
     50 H5          4.3925  -12.4670   -0.2069 H         1 <0>         0.4267
     51 H6          2.3334  -10.9870    1.3358 H         1 <0>         0.0965
     52 H7          4.0619  -10.9291    1.7568 H         1 <0>         0.0894
     53 H8          3.1752   -9.4213    1.4272 H         1 <0>         0.0848
     54 H9          1.0787   -7.2185    1.1039 H         1 <0>         0.0814
     55 H10         0.5683   -6.6636   -0.5085 H         1 <0>         0.0694
     56 H11        -0.9061   -8.7303    1.1854 H         1 <0>         0.1004
     57 H12        -1.3751   -7.0216    1.0169 H         1 <0>         0.0723
     58 H13        -2.5170   -6.2993   -0.9301 H         1 <0>         0.0637
     59 H14        -0.9335   -6.4718   -1.7255 H         1 <0>         0.1226
     60 H15        -2.7827   -6.4529   -3.3862 H         1 <0>         0.1382
     61 H16        -1.9278   -8.0141   -3.3859 H         1 <0>         0.1300
     62 H17        -4.4903   -9.7849   -1.5306 H         1 <0>         0.1382
     63 H18        -2.9034   -9.9178   -2.3257 H         1 <0>         0.1374
     64 H19        -2.6436   -9.8088    0.1329 H         1 <0>         0.1257
     65 H20        -3.5220   -8.2604    0.1621 H         1 <0>         0.0603
     66 H21        -3.8584   -9.0217   -4.3655 H         1 <0>         0.1484
     67 H22        -6.2919   -7.9059   -1.7872 H         1 <0>         0.1130
     68 H23        -8.3659   -9.1336   -1.2827 H         1 <0>         0.1344
     69 H24        -9.0217  -11.0629   -2.6651 H         1 <0>         0.1354
     70 H25        -7.6039  -11.7640   -4.5524 H         1 <0>         0.1372
     71 H26        -5.5342  -10.5310   -5.0619 H         1 <0>         0.1343
     72 H27        -5.6191   -6.1231   -2.8046 H         1 <0>         0.1131
     73 H28        -6.1635   -4.0677   -4.0465 H         1 <0>         0.1335
     74 H29        -5.6964   -3.9274   -6.4601 H         1 <0>         0.1353
     75 H30        -4.6843   -5.8421   -7.6316 H         1 <0>         0.1385
     76 H31        -4.1322   -7.8945   -6.3880 H         1 <0>         0.1378
     77 H32         2.2261  -12.0163   -2.5011 H         1 <0>         0.1331
     78 H33         0.2061  -12.6568   -3.7545 H         1 <0>         0.1459
     79 H34        -0.8097  -11.0744   -5.3447 H         1 <0>         0.1481
     80 H35         2.2099   -8.2078   -4.4205 H         1 <0>         0.1509
     81 H36         5.4203   -8.9976   -6.9287 H         1 <0>         0.1018
     82 H37         6.8328   -9.6420   -6.0581 H         1 <0>         0.0630
     83 H38         5.6290  -10.7562   -6.7492 H         1 <0>         0.0598
     84 H39        -4.4290   -7.4363   -1.9619 H         1 <0>         0.4134
@<TRIPOS>BOND
     1    1    2 1
     2    1   47 1
     3    1   48 1
     4    1   49 1
     5    2    8 1
     6    2    3 2
     7    3    4 1
     8    3   43 1
     9    4    5 1
    10    4    6 1
    11    4   34 1
    12    6    7 2
    13    6   10 1
    14    7    8 1
    15    7    9 1
    16    8   50 1
    17    9   51 1
    18    9   52 1
    19    9   53 1
    20   10   11 2
    21   10   12 1
    22   12   13 1
    23   13   14 1
    24   13   54 1
    25   13   55 1
    26   14   15 1
    27   14   56 1
    28   14   57 1
    29   15   20 1
    30   15   16 1
    31   16   17 1
    32   16   58 1
    33   16   59 1
    34   17   18 1
    35   17   60 1
    36   17   61 1
    37   18   19 1
    38   18   21 1
    39   18   84 1
    40   19   20 1
    41   19   62 1
    42   19   63 1
    43   20   64 1
    44   20   65 1
    45   21   22 1
    46   21   28 1
    47   21   66 1
    48   22   27 ar
    49   22   23 ar
    50   23   24 ar
    51   23   67 1
    52   24   25 ar
    53   24   68 1
    54   25   26 ar
    55   25   69 1
    56   26   27 ar
    57   26   70 1
    58   27   71 1
    59   28   33 ar
    60   28   29 ar
    61   29   30 ar
    62   29   72 1
    63   30   31 ar
    64   30   73 1
    65   31   32 ar
    66   31   74 1
    67   32   33 ar
    68   32   75 1
    69   33   76 1
    70   34   39 ar
    71   34   35 ar
    72   35   36 ar
    73   35   77 1
    74   36   37 ar
    75   36   78 1
    76   37   38 ar
    77   37   79 1
    78   38   39 ar
    79   38   40 1
    80   39   80 1
    81   40   41 2
    82   40   42 1
    83   43   44 2
    84   43   45 1
    85   45   46 1
    86   46   81 1
    87   46   82 1
    88   46   83 1
@<TRIPOS>MOLECULE
ZINC19685792
   83    87     0     0     0
SMALL
USER_CHARGES

@<TRIPOS>ATOM
      1 C1         -1.3358    2.1091   -2.9286 C.3       1 <0>        -0.1181
      2 C2         -1.3476    0.8857   -2.0487 C.2       1 <0>         0.2462
      3 C3         -1.3834    1.0291   -0.7126 C.2       1 <0>        -0.2648
      4 C4         -1.4046   -0.1620    0.2028 C.3       1 <0>         0.0880
      5 H1         -0.7172    0.0097    1.0312 H         1 <0>         0.0990
      6 C5         -0.9922   -1.4055   -0.5325 C.2       1 <0>        -0.2250
      7 C6         -0.9721   -1.4513   -1.8758 C.2       1 <0>         0.1866
      8 N1         -1.3274   -0.3575   -2.6197 N.pl3     1 <0>        -0.6296
      9 C7         -0.5595   -2.7230   -2.5711 C.3       1 <0>        -0.1312
     10 C8         -0.6166   -2.5525    0.2044 C.2       1 <0>         0.5296
     11 O1          0.4914   -2.6195    0.7029 O.2       1 <0>        -0.4978
     12 O2         -1.4871   -3.5728    0.3549 O.3       1 <0>        -0.3259
     13 C9         -1.0056   -4.7440    1.0169 C.3       1 <0>         0.0683
     14 C10        -2.0849   -5.8279    0.9851 C.3       1 <0>         0.0567
     15 N2         -3.2615   -5.3696    1.7359 N.3       1 <0>        -0.5311
     16 C11        -2.9991   -5.3769    3.1818 C.3       1 <0>         0.0562
     17 C12        -4.2175   -4.8192    3.9214 C.3       1 <0>         0.0646
     18 N3         -5.3978   -5.6332    3.5991 N.3       1 <0>        -0.5254
     19 C13        -5.6602   -5.6260    2.1532 C.3       1 <0>         0.0578
     20 C14        -4.4418   -6.1836    1.4136 C.3       1 <0>         0.0620
     21 C15        -6.5744   -5.1749    4.3499 C.3       1 <0>         0.1688
     22 C16        -7.7594   -6.0390    4.0034 C.ar      1 <0>        -0.0742
     23 C17        -7.5992   -7.4039    3.8534 C.ar      1 <0>        -0.0913
     24 C18        -8.6862   -8.1965    3.5355 C.ar      1 <0>        -0.1246
     25 C19        -9.9334   -7.6244    3.3680 C.ar      1 <0>        -0.1195
     26 C20       -10.0937   -6.2597    3.5189 C.ar      1 <0>        -0.1203
     27 C21        -9.0076   -5.4676    3.8410 C.ar      1 <0>        -0.1122
     28 C22        -6.2965   -5.2726    5.8279 C.ar      1 <0>        -0.0779
     29 C23        -5.6926   -6.4037    6.3443 C.ar      1 <0>        -0.0903
     30 C24        -5.4377   -6.4933    7.7000 C.ar      1 <0>        -0.1267
     31 C25        -5.7864   -5.4516    8.5392 C.ar      1 <0>        -0.1181
     32 C26        -6.3895   -4.3202    8.0226 C.ar      1 <0>        -0.1187
     33 C27        -6.6405   -4.2287    6.6663 C.ar      1 <0>        -0.1070
     34 C28        -2.7986   -0.3463    0.7449 C.ar      1 <0>        -0.0678
     35 C29        -3.8648   -0.4885   -0.1236 C.ar      1 <0>        -0.0469
     36 C30        -5.1433   -0.6576    0.3736 C.ar      1 <0>        -0.1142
     37 C31        -5.3558   -0.6850    1.7395 C.ar      1 <0>        -0.0554
     38 C32        -4.2898   -0.5438    2.6077 C.ar      1 <0>        -0.0419
     39 C33        -3.0103   -0.3790    2.1104 C.ar      1 <0>        -0.0367
     40 N4         -4.5174   -0.5727    4.0700 N.pl3     1 <0>         0.0366
     41 O3         -5.6196   -0.8113    4.5057 O.2       1 <0>        -0.1617
     42 O4         -3.6010   -0.3576    4.8288 O.3       1 <0>        -0.1583
     43 C34        -1.4009    2.3293   -0.1567 C.2       1 <0>         0.5195
     44 O5         -1.3837    3.3032   -0.8861 O.2       1 <0>        -0.5200
     45 O6         -1.4368    2.4900    1.1827 O.3       1 <0>        -0.3503
     46 C35        -1.4528    3.8314    1.6750 C.3       1 <0>         0.0366
     47 H2         -1.3109    1.8040   -3.9747 H         1 <0>         0.0652
     48 H3         -2.2337    2.6986   -2.7432 H         1 <0>         0.1035
     49 H4         -0.4542    2.7095   -2.7041 H         1 <0>         0.1059
     50 H5         -1.5616   -0.4631   -3.5550 H         1 <0>         0.4247
     51 H6         -1.4428   -3.3271   -2.7780 H         1 <0>         0.0964
     52 H7         -0.0587   -2.4788   -3.5080 H         1 <0>         0.0860
     53 H8          0.1217   -3.2829   -1.9303 H         1 <0>         0.0849
     54 H9         -0.1115   -5.1065    0.5096 H         1 <0>         0.0719
     55 H10        -0.7634   -4.5027    2.0519 H         1 <0>         0.0685
     56 H11        -2.3686   -6.0280   -0.0482 H         1 <0>         0.0861
     57 H12        -1.6973   -6.7402    1.4386 H         1 <0>         0.0610
     58 H13        -2.8095   -6.3982    3.5119 H         1 <0>         0.0456
     59 H14        -2.1284   -4.7573    3.3966 H         1 <0>         0.0763
     60 H15        -4.0365   -4.8506    4.9958 H         1 <0>         0.0836
     61 H16        -4.3908   -3.7887    3.6115 H         1 <0>         0.0344
     62 H17        -6.5309   -6.2455    1.9385 H         1 <0>         0.0847
     63 H18        -5.8498   -4.6046    1.8231 H         1 <0>         0.0405
     64 H19        -4.6228   -6.1523    0.3392 H         1 <0>         0.0790
     65 H20        -4.2685   -7.2142    1.7236 H         1 <0>         0.0432
     66 H21        -6.7912   -4.1391    4.0887 H         1 <0>         0.0583
     67 H22        -6.6248   -7.8508    3.9842 H         1 <0>         0.1278
     68 H23        -8.5609   -9.2627    3.4176 H         1 <0>         0.1200
     69 H24       -10.7825   -8.2436    3.1190 H         1 <0>         0.1195
     70 H25       -11.0681   -5.8127    3.3878 H         1 <0>         0.1209
     71 H26        -9.1336   -4.4019    3.9626 H         1 <0>         0.1193
     72 H27        -5.4201   -7.2175    5.6887 H         1 <0>         0.1250
     73 H28        -4.9665   -7.3773    8.1036 H         1 <0>         0.1191
     74 H29        -5.5879   -5.5220    9.5984 H         1 <0>         0.1193
     75 H30        -6.6622   -3.5065    8.6783 H         1 <0>         0.1220
     76 H31        -7.1083   -3.3432    6.2622 H         1 <0>         0.1221
     77 H32        -3.6988   -0.4670   -1.1905 H         1 <0>         0.1303
     78 H33        -5.9764   -0.7679   -0.3048 H         1 <0>         0.1439
     79 H34        -6.3549   -0.8164    2.1280 H         1 <0>         0.1480
     80 H35        -2.1768   -0.2724    2.7888 H         1 <0>         0.1489
     81 H36        -1.4817    3.8183    2.7645 H         1 <0>         0.1011
     82 H37        -0.5548    4.3515    1.3416 H         1 <0>         0.0609
     83 H38        -2.3341    4.3477    1.2943 H         1 <0>         0.0587
@<TRIPOS>BOND
     1    1    2 1
     2    1   47 1
     3    1   48 1
     4    1   49 1
     5    2    8 1
     6    2    3 2
     7    3    4 1
     8    3   43 1
     9    4    5 1
    10    4    6 1
    11    4   34 1
    12    6    7 2
    13    6   10 1
    14    7    8 1
    15    7    9 1
    16    8   50 1
    17    9   51 1
    18    9   52 1
    19    9   53 1
    20   10   11 2
    21   10   12 1
    22   12   13 1
    23   13   14 1
    24   13   54 1
    25   13   55 1
    26   14   15 1
    27   14   56 1
    28   14   57 1
    29   15   20 1
    30   15   16 1
    31   16   17 1
    32   16   58 1
    33   16   59 1
    34   17   18 1
    35   17   60 1
    36   17   61 1
    37   18   19 1
    38   18   21 1
    39   19   20 1
    40   19   62 1
    41   19   63 1
    42   20   64 1
    43   20   65 1
    44   21   22 1
    45   21   28 1
    46   21   66 1
    47   22   27 ar
    48   22   23 ar
    49   23   24 ar
    50   23   67 1
    51   24   25 ar
    52   24   68 1
    53   25   26 ar
    54   25   69 1
    55   26   27 ar
    56   26   70 1
    57   27   71 1
    58   28   33 ar
    59   28   29 ar
    60   29   30 ar
    61   29   72 1
    62   30   31 ar
    63   30   73 1
    64   31   32 ar
    65   31   74 1
    66   32   33 ar
    67   32   75 1
    68   33   76 1
    69   34   39 ar
    70   34   35 ar
    71   35   36 ar
    72   35   77 1
    73   36   37 ar
    74   36   78 1
    75   37   38 ar
    76   37   79 1
    77   38   39 ar
    78   38   40 1
    79   39   80 1
    80   40   41 2
    81   40   42 1
    82   43   44 2
    83   43   45 1
    84   45   46 1
    85   46   81 1
    86   46   82 1
    87   46   83 1
@<TRIPOS>MOLECULE
ZINC19685792
   82    86     0     0     0
SMALL
USER_CHARGES

@<TRIPOS>ATOM
      1 C1         -1.6822   -1.9610   -3.2468 C.3       1 <0>        -0.0960
      2 C2         -0.8885   -2.0387   -1.9681 C.2       1 <0>         0.2809
      3 C3         -1.4278   -1.5177   -0.8270 C.2       1 <0>        -0.3761
      4 C4         -0.6050   -1.6113    0.4450 C.3       1 <0>         0.1163
      5 H1         -1.1854   -2.1605    1.1864 H         1 <0>         0.0506
      6 C5          0.7494   -2.2843    0.3091 C.2       1 <0>        -0.3976
      7 C6          1.5907   -2.4316    1.3901 C.2       1 <0>         0.4739
      8 O1          2.8376   -2.9109    1.2131 O.3       1 <0>        -0.6456
      9 O2          1.1666   -2.0963    2.6246 O.3       1 <0>        -0.3363
     10 C7          2.0916   -2.2750    3.6990 C.3       1 <0>         0.0433
     11 C8          1.1046   -2.7476   -0.9589 C.2       1 <0>         0.3162
     12 N1          0.3038   -2.6144   -1.9917 N.2       1 <0>        -0.6453
     13 C9          2.4386   -3.4230   -1.1467 C.3       1 <0>        -0.0920
     14 C10        -0.3825   -0.2147    0.9656 C.ar      1 <0>        -0.0352
     15 C11         0.2290    0.7322    0.1651 C.ar      1 <0>        -0.0543
     16 C12         0.4332    2.0131    0.6426 C.ar      1 <0>        -0.1267
     17 C13         0.0254    2.3475    1.9207 C.ar      1 <0>        -0.0783
     18 C14        -0.5867    1.4011    2.7206 C.ar      1 <0>        -0.0558
     19 C15        -0.7948    0.1210    2.2414 C.ar      1 <0>        -0.0236
     20 N2         -1.0228    1.7590    4.0891 N.pl3     1 <0>         0.0433
     21 O3         -0.9314    2.9017    4.4732 O.2       1 <0>        -0.1836
     22 O4         -1.4703    0.9087    4.8227 O.3       1 <0>        -0.1654
     23 C16        -2.6985   -0.9162   -0.8302 C.2       1 <0>         0.5238
     24 O5         -3.2954   -0.7595   -1.8803 O.2       1 <0>        -0.5617
     25 O6         -3.2574   -0.5121    0.3311 O.3       1 <0>        -0.3372
     26 C17        -4.5961   -0.0162    0.2688 C.3       1 <0>         0.0706
     27 C18        -5.5778   -1.1874    0.3432 C.3       1 <0>         0.0354
     28 N3         -5.4468   -1.8542    1.6456 N.3       1 <0>        -0.5261
     29 C19        -6.0201   -1.0304    2.7191 C.3       1 <0>         0.0610
     30 C20        -5.7931   -1.7217    4.0655 C.3       1 <0>         0.0588
     31 N4         -6.4130   -3.0539    4.0398 N.3       1 <0>        -0.5268
     32 C21        -5.8397   -3.8777    2.9664 C.3       1 <0>         0.0582
     33 C22        -6.0666   -3.1864    1.6199 C.3       1 <0>         0.0632
     34 C23        -6.2820   -3.7207    5.3422 C.3       1 <0>         0.1643
     35 C24        -6.9576   -2.8896    6.4023 C.ar      1 <0>        -0.0713
     36 C25        -8.2054   -2.3450    6.1627 C.ar      1 <0>        -0.0891
     37 C26        -8.8251   -1.5826    7.1350 C.ar      1 <0>        -0.1259
     38 C27        -8.1973   -1.3652    8.3473 C.ar      1 <0>        -0.1209
     39 C28        -6.9500   -1.9105    8.5873 C.ar      1 <0>        -0.1205
     40 C29        -6.3321   -2.6765    7.6165 C.ar      1 <0>        -0.1110
     41 C30        -6.9318   -5.0789    5.2788 C.ar      1 <0>        -0.0713
     42 C31        -8.1855   -5.2196    4.7138 C.ar      1 <0>        -0.0894
     43 C32        -8.7816   -6.4655    4.6556 C.ar      1 <0>        -0.1254
     44 C33        -8.1238   -7.5707    5.1621 C.ar      1 <0>        -0.1212
     45 C34        -6.8696   -7.4302    5.7263 C.ar      1 <0>        -0.1211
     46 C35        -6.2717   -6.1850    5.7806 C.ar      1 <0>        -0.1123
     47 H2         -1.1151   -2.4230   -4.0550 H         1 <0>         0.0538
     48 H3         -2.6282   -2.4872   -3.1198 H         1 <0>         0.0727
     49 H4         -1.8771   -0.9167   -3.4906 H         1 <0>         0.0785
     50 H5          2.3765   -3.3252    3.7624 H         1 <0>         0.0522
     51 H6          2.9790   -1.6681    3.5193 H         1 <0>         0.0491
     52 H7          1.6249   -1.9681    4.6350 H         1 <0>         0.0842
     53 H8          2.5179   -4.2673   -0.4619 H         1 <0>         0.0791
     54 H9          2.5245   -3.7786   -2.1735 H         1 <0>         0.0494
     55 H10         3.2383   -2.7116   -0.9405 H         1 <0>         0.0812
     56 H11         0.5476    0.4709   -0.8332 H         1 <0>         0.1303
     57 H12         0.9115    2.7526    0.0175 H         1 <0>         0.1359
     58 H13         0.1856    3.3482    2.2941 H         1 <0>         0.1406
     59 H14        -1.2765   -0.6174    2.8651 H         1 <0>         0.1446
     60 H15        -4.7726    0.6595    1.1057 H         1 <0>         0.0862
     61 H16        -4.7415    0.5207   -0.6685 H         1 <0>         0.0709
     62 H17        -6.5959   -0.8161    0.2259 H         1 <0>         0.0428
     63 H18        -5.3563   -1.8983   -0.4528 H         1 <0>         0.0804
     64 H19        -5.5363   -0.0536    2.7257 H         1 <0>         0.0778
     65 H20        -7.0896   -0.9056    2.5500 H         1 <0>         0.0373
     66 H21        -4.7231   -1.8219    4.2471 H         1 <0>         0.0489
     67 H22        -6.2430   -1.1266    4.8603 H         1 <0>         0.0803
     68 H23        -4.7702   -4.0025    3.1354 H         1 <0>         0.0462
     69 H24        -6.3235   -4.8545    2.9598 H         1 <0>         0.0801
     70 H25        -7.1367   -3.0862    1.4384 H         1 <0>         0.0373
     71 H26        -5.6168   -3.7815    0.8252 H         1 <0>         0.0774
     72 H27        -5.2260   -3.8342    5.5877 H         1 <0>         0.0586
     73 H28        -8.6958   -2.5149    5.2156 H         1 <0>         0.1268
     74 H29        -9.7996   -1.1565    6.9475 H         1 <0>         0.1186
     75 H30        -8.6812   -0.7690    9.1067 H         1 <0>         0.1180
     76 H31        -6.4593   -1.7404    9.5342 H         1 <0>         0.1204
     77 H32        -5.3592   -3.1056    7.8054 H         1 <0>         0.1196
     78 H33        -8.6995   -4.3561    4.3181 H         1 <0>         0.1271
     79 H34        -9.7614   -6.5752    4.2148 H         1 <0>         0.1191
     80 H35        -8.5898   -8.5440    5.1173 H         1 <0>         0.1182
     81 H36        -6.3558   -8.2937    6.1223 H         1 <0>         0.1201
     82 H37        -5.2903   -6.0758    6.2180 H         1 <0>         0.1195
@<TRIPOS>BOND
     1    1    2 1
     2    1   47 1
     3    1   48 1
     4    1   49 1
     5    2   12 1
     6    2    3 2
     7    3    4 1
     8    3   23 1
     9    4    5 1
    10    4    6 1
    11    4   14 1
    12    6    7 2
    13    6   11 1
    14    7    8 1
    15    7    9 1
    16    9   10 1
    17   10   50 1
    18   10   51 1
    19   10   52 1
    20   11   12 2
    21   11   13 1
    22   13   53 1
    23   13   54 1
    24   13   55 1
    25   14   19 ar
    26   14   15 ar
    27   15   16 ar
    28   15   56 1
    29   16   17 ar
    30   16   57 1
    31   17   18 ar
    32   17   58 1
    33   18   19 ar
    34   18   20 1
    35   19   59 1
    36   20   21 2
    37   20   22 1
    38   23   24 2
    39   23   25 1
    40   25   26 1
    41   26   27 1
    42   26   60 1
    43   26   61 1
    44   27   28 1
    45   27   62 1
    46   27   63 1
    47   28   33 1
    48   28   29 1
    49   29   30 1
    50   29   64 1
    51   29   65 1
    52   30   31 1
    53   30   66 1
    54   30   67 1
    55   31   32 1
    56   31   34 1
    57   32   33 1
    58   32   68 1
    59   32   69 1
    60   33   70 1
    61   33   71 1
    62   34   35 1
    63   34   41 1
    64   34   72 1
    65   35   40 ar
    66   35   36 ar
    67   36   37 ar
    68   36   73 1
    69   37   38 ar
    70   37   74 1
    71   38   39 ar
    72   38   75 1
    73   39   40 ar
    74   39   76 1
    75   40   77 1
    76   41   46 ar
    77   41   42 ar
    78   42   43 ar
    79   42   78 1
    80   43   44 ar
    81   43   79 1
    82   44   45 ar
    83   44   80 1
    84   45   46 ar
    85   45   81 1
    86   46   82 1
@<TRIPOS>MOLECULE
ZINC19685792
   83    87     0     0     0
SMALL
USER_CHARGES

@<TRIPOS>ATOM
      1 C1          0.8009    1.4872   -0.2264 C.3       1 <0>        -0.0989
      2 C2          0.8161   -0.0182   -0.2940 C.2       1 <0>         0.2918
      3 C3         -0.3544   -0.6964   -0.1087 C.2       1 <0>        -0.3910
      4 C4         -0.3075   -2.2116   -0.1832 C.3       1 <0>         0.1151
      5 H1         -0.9901   -2.5352   -0.9689 H         1 <0>         0.0483
      6 C5          1.0565   -2.8188   -0.4599 C.2       1 <0>        -0.3980
      7 C6          1.2313   -4.1823   -0.5517 C.2       1 <0>         0.4734
      8 O1          2.4708   -4.6956   -0.6792 O.3       1 <0>        -0.6359
      9 O2          0.1629   -5.0026   -0.5140 O.3       1 <0>        -0.3401
     10 C7          0.4179   -6.4051   -0.6143 C.3       1 <0>         0.0418
     11 C8          2.1255   -1.9350   -0.6176 C.2       1 <0>         0.3205
     12 N1          1.9632   -0.6340   -0.5364 N.2       1 <0>        -0.6427
     13 C9          3.5001   -2.4874   -0.8939 C.3       1 <0>        -0.0961
     14 C10        -0.8071   -2.7631    1.1272 C.ar      1 <0>        -0.0218
     15 C11        -0.2909   -2.2885    2.3188 C.ar      1 <0>        -0.0483
     16 C12        -0.7491   -2.7943    3.5206 C.ar      1 <0>        -0.1241
     17 C13        -1.7240   -3.7746    3.5314 C.ar      1 <0>        -0.0921
     18 C14        -2.2407   -4.2484    2.3402 C.ar      1 <0>        -0.0524
     19 C15        -1.7854   -3.7394    1.1381 C.ar      1 <0>        -0.0159
     20 N2         -3.2841   -5.2983    2.3517 N.pl3     1 <0>         0.0441
     21 O3         -3.7142   -5.7116    3.4033 O.2       1 <0>        -0.1980
     22 O4         -3.7062   -5.7424    1.3095 O.3       1 <0>        -0.1580
     23 C16        -1.5589   -0.0161    0.1423 C.2       1 <0>         0.5242
     24 O5         -1.5674    1.1995    0.2177 O.2       1 <0>        -0.5590
     25 O6         -2.7066   -0.7106    0.2999 O.3       1 <0>        -0.3465
     26 C17        -3.9100    0.0477    0.4376 C.3       1 <0>         0.0732
     27 C18        -5.0754   -0.8960    0.7412 C.3       1 <0>         0.0585
     28 N3         -4.8920   -1.4880    2.0730 N.3       1 <0>        -0.5263
     29 C19        -5.0900   -0.4837    3.1276 C.3       1 <0>         0.0264
     30 C20        -4.8322   -1.1246    4.4931 C.3       1 <0>        -0.0048
     31 N4         -5.7540   -2.2516    4.6871 N.4       1 <0>        -0.3797
     32 C21        -5.5274   -3.2574    3.6408 C.3       1 <0>        -0.0094
     33 C22        -5.7910   -2.6342    2.2683 C.3       1 <0>         0.0295
     34 C23        -5.5184   -2.8553    6.0054 C.3       1 <0>         0.1312
     35 C24        -5.7525   -1.8241    7.0791 C.ar      1 <0>        -0.1250
     36 C25        -6.8099   -0.9404    6.9699 C.ar      1 <0>        -0.1206
     37 C26        -7.0247    0.0055    7.9548 C.ar      1 <0>        -0.1037
     38 C27        -6.1824    0.0674    9.0492 C.ar      1 <0>        -0.0953
     39 C28        -5.1256   -0.8170    9.1589 C.ar      1 <0>        -0.1040
     40 C29        -4.9134   -1.7656    8.1761 C.ar      1 <0>        -0.0858
     41 C30        -6.4640   -4.0116    6.2047 C.ar      1 <0>        -0.1259
     42 C31        -7.7733   -3.9163    5.7718 C.ar      1 <0>        -0.1221
     43 C32        -8.6407   -4.9770    5.9546 C.ar      1 <0>        -0.1047
     44 C33        -8.1986   -6.1332    6.5699 C.ar      1 <0>        -0.0939
     45 C34        -6.8890   -6.2289    7.0019 C.ar      1 <0>        -0.1017
     46 C35        -6.0205   -5.1698    6.8153 C.ar      1 <0>        -0.0779
     47 H2          1.8072    1.8689   -0.3993 H         1 <0>         0.0573
     48 H3          0.1279    1.8785   -0.9893 H         1 <0>         0.0774
     49 H4          0.4568    1.8032    0.7584 H         1 <0>         0.0762
     50 H5          1.0569   -6.7182    0.2114 H         1 <0>         0.0498
     51 H6         -0.5251   -6.9499   -0.5708 H         1 <0>         0.0858
     52 H7          0.9166   -6.6169   -1.5601 H         1 <0>         0.0554
     53 H8          3.4659   -3.1202   -1.7807 H         1 <0>         0.0826
     54 H9          4.1954   -1.6647   -1.0611 H         1 <0>         0.0528
     55 H10         3.8333   -3.0767   -0.0396 H         1 <0>         0.0824
     56 H11         0.4707   -1.5228    2.3104 H         1 <0>         0.1312
     57 H12        -0.3453   -2.4241    4.4514 H         1 <0>         0.1341
     58 H13        -2.0815   -4.1703    4.4705 H         1 <0>         0.1318
     59 H14        -2.1919   -4.1069    0.2075 H         1 <0>         0.1441
     60 H15        -3.7983    0.7614    1.2538 H         1 <0>         0.0601
     61 H16        -4.1093    0.5846   -0.4898 H         1 <0>         0.0685
     62 H17        -6.0110   -0.3372    0.7176 H         1 <0>         0.0628
     63 H18        -5.1062   -1.6878   -0.0073 H         1 <0>         0.0985
     64 H19        -4.3961    0.3433    2.9772 H         1 <0>         0.1256
     65 H20        -6.1138   -0.1117    3.0880 H         1 <0>         0.0581
     66 H21        -3.8042   -1.4843    4.5373 H         1 <0>         0.1382
     67 H22        -4.9924   -0.3851    5.2776 H         1 <0>         0.1357
     68 H23        -4.4959   -3.6061    3.6894 H         1 <0>         0.1343
     69 H24        -6.2030   -4.0990    3.7935 H         1 <0>         0.1399
     70 H25        -6.8264   -2.2977    2.2144 H         1 <0>         0.0596
     71 H26        -5.6085   -3.3761    1.4909 H         1 <0>         0.1225
     72 H27        -4.4902   -3.2126    6.0629 H         1 <0>         0.1480
     73 H28        -7.4679   -0.9887    6.1149 H         1 <0>         0.1137
     74 H29        -7.8503    0.6964    7.8691 H         1 <0>         0.1334
     75 H30        -6.3498    0.8068    9.8183 H         1 <0>         0.1339
     76 H31        -4.4673   -0.7684   10.0137 H         1 <0>         0.1361
     77 H32        -4.0899   -2.4589    8.2636 H         1 <0>         0.1338
     78 H33        -8.1187   -3.0129    5.2912 H         1 <0>         0.1114
     79 H34        -9.6639   -4.9022    5.6171 H         1 <0>         0.1325
     80 H35        -8.8765   -6.9617    6.7133 H         1 <0>         0.1336
     81 H36        -6.5437   -7.1322    7.4829 H         1 <0>         0.1362
     82 H37        -4.9963   -5.2460    7.1495 H         1 <0>         0.1336
     83 H38        -6.7056   -1.9204    4.6345 H         1 <0>         0.4106
@<TRIPOS>BOND
     1    1    2 1
     2    1   47 1
     3    1   48 1
     4    1   49 1
     5    2   12 1
     6    2    3 2
     7    3    4 1
     8    3   23 1
     9    4    5 1
    10    4    6 1
    11    4   14 1
    12    6    7 2
    13    6   11 1
    14    7    8 1
    15    7    9 1
    16    9   10 1
    17   10   50 1
    18   10   51 1
    19   10   52 1
    20   11   12 2
    21   11   13 1
    22   13   53 1
    23   13   54 1
    24   13   55 1
    25   14   19 ar
    26   14   15 ar
    27   15   16 ar
    28   15   56 1
    29   16   17 ar
    30   16   57 1
    31   17   18 ar
    32   17   58 1
    33   18   19 ar
    34   18   20 1
    35   19   59 1
    36   20   21 2
    37   20   22 1
    38   23   24 2
    39   23   25 1
    40   25   26 1
    41   26   27 1
    42   26   60 1
    43   26   61 1
    44   27   28 1
    45   27   62 1
    46   27   63 1
    47   28   33 1
    48   28   29 1
    49   29   30 1
    50   29   64 1
    51   29   65 1
    52   30   31 1
    53   30   66 1
    54   30   67 1
    55   31   32 1
    56   31   34 1
    57   31   83 1
    58   32   33 1
    59   32   68 1
    60   32   69 1
    61   33   70 1
    62   33   71 1
    63   34   35 1
    64   34   41 1
    65   34   72 1
    66   35   40 ar
    67   35   36 ar
    68   36   37 ar
    69   36   73 1
    70   37   38 ar
    71   37   74 1
    72   38   39 ar
    73   38   75 1
    74   39   40 ar
    75   39   76 1
    76   40   77 1
    77   41   46 ar
    78   41   42 ar
    79   42   43 ar
    80   42   78 1
    81   43   44 ar
    82   43   79 1
    83   44   45 ar
    84   44   80 1
    85   45   46 ar
    86   45   81 1
    87   46   82 1
@<TRIPOS>MOLECULE
ZINC19685792
   84    88     0     0     0
SMALL
USER_CHARGES

@<TRIPOS>ATOM
      1 C1          6.3668  -10.7886   -1.6725 C.3       1 <0>        -0.1222
      2 C2          5.1204  -10.0035   -1.3545 C.2       1 <0>         0.2445
      3 C3          4.7121   -9.0371   -2.1950 C.2       1 <0>        -0.2589
      4 C4          3.4714   -8.2348   -1.9225 C.3       1 <0>         0.0892
      5 H1          3.6718   -7.1832   -2.1276 H         1 <0>         0.1025
      6 C5          3.0435   -8.3866   -0.4903 C.2       1 <0>        -0.2541
      7 C6          3.5189   -9.3791    0.2817 C.2       1 <0>         0.2105
      8 N1          4.4153  -10.2867   -0.2168 N.pl3     1 <0>        -0.6283
      9 C7          3.0553   -9.4976    1.7107 C.3       1 <0>        -0.1361
     10 C8          2.1212   -7.4653    0.0575 C.2       1 <0>         0.5473
     11 O1          2.4847   -6.3414    0.3500 O.2       1 <0>        -0.4710
     12 O2          0.8378   -7.8324    0.2559 O.3       1 <0>        -0.3668
     13 C9         -0.0112   -6.8920    0.9169 C.3       1 <0>         0.0260
     14 C10        -1.3820   -7.5262    1.1610 C.3       1 <0>         0.0002
     15 N2         -2.0283   -7.8068   -0.1281 N.4       1 <0>        -0.3891
     16 C11        -2.3082   -6.5422   -0.8206 C.3       1 <0>        -0.0088
     17 C12        -2.9644   -6.8347   -2.1718 C.3       1 <0>         0.0278
     18 N3         -4.2117   -7.5816   -1.9560 N.3       1 <0>        -0.5264
     19 C13        -3.9502   -8.8389   -1.2413 C.3       1 <0>         0.0231
     20 C14        -3.2859   -8.5299    0.1022 C.3       1 <0>        -0.0009
     21 C15        -4.9016   -7.8330   -3.2283 C.3       1 <0>         0.1796
     22 C16        -6.1905   -8.5677   -2.9642 C.ar      1 <0>        -0.0915
     23 C17        -6.9741   -8.2208   -1.8795 C.ar      1 <0>        -0.0962
     24 C18        -8.1565   -8.8947   -1.6372 C.ar      1 <0>        -0.1219
     25 C19        -8.5555   -9.9154   -2.4799 C.ar      1 <0>        -0.1102
     26 C20        -7.7723  -10.2617   -3.5650 C.ar      1 <0>        -0.1153
     27 C21        -6.5921   -9.5849   -3.8098 C.ar      1 <0>        -0.1089
     28 C22        -5.2013   -6.5203   -3.9051 C.ar      1 <0>        -0.0954
     29 C23        -5.6253   -5.4379   -3.1571 C.ar      1 <0>        -0.0975
     30 C24        -5.9002   -4.2338   -3.7779 C.ar      1 <0>        -0.1234
     31 C25        -5.7506   -4.1119   -5.1467 C.ar      1 <0>        -0.1088
     32 C26        -5.3257   -5.1940   -5.8947 C.ar      1 <0>        -0.1125
     33 C27        -5.0467   -6.3969   -5.2733 C.ar      1 <0>        -0.1035
     34 C28         2.3629   -8.7136   -2.8241 C.ar      1 <0>        -0.0705
     35 C29         1.9978  -10.0471   -2.8225 C.ar      1 <0>        -0.0518
     36 C30         0.9811  -10.4862   -3.6493 C.ar      1 <0>        -0.1160
     37 C31         0.3288   -9.5920   -4.4778 C.ar      1 <0>        -0.0611
     38 C32         0.6932   -8.2587   -4.4787 C.ar      1 <0>        -0.0479
     39 C33         1.7073   -7.8186   -3.6485 C.ar      1 <0>        -0.0451
     40 N4         -0.0048   -7.3014   -5.3661 N.pl3     1 <0>         0.0299
     41 O3         -0.9548   -7.6650   -6.0194 O.2       1 <0>        -0.1548
     42 O4          0.3752   -6.1559   -5.4375 O.3       1 <0>        -0.1506
     43 C34         5.4668   -8.7696   -3.3606 C.2       1 <0>         0.5149
     44 O5          6.4740   -9.4113   -3.5938 O.2       1 <0>        -0.5104
     45 O6          5.0700   -7.8026   -4.2142 O.3       1 <0>        -0.3530
     46 C35         5.8800   -7.5864   -5.3714 C.3       1 <0>         0.0353
     47 H2          6.5409  -11.5267   -0.8895 H         1 <0>         0.0687
     48 H3          6.2423  -11.2962   -2.6291 H         1 <0>         0.1065
     49 H4          7.2187  -10.1109   -1.7289 H         1 <0>         0.1095
     50 H5          4.5542  -11.1312    0.2397 H         1 <0>         0.4286
     51 H6          2.2118  -10.1859    1.7631 H         1 <0>         0.0975
     52 H7          3.8711   -9.8750    2.3272 H         1 <0>         0.0937
     53 H8          2.7477   -8.5175    2.0754 H         1 <0>         0.0840
     54 H9          0.4334   -6.6092    1.8711 H         1 <0>         0.1169
     55 H10        -0.1268   -6.0057    0.2930 H         1 <0>         0.0945
     56 H11        -1.2584   -8.4564    1.7156 H         1 <0>         0.1435
     57 H12        -2.0027   -6.8396    1.7367 H         1 <0>         0.1533
     58 H13        -2.9812   -5.9367   -0.2135 H         1 <0>         0.1439
     59 H14        -1.3757   -6.0006   -0.9793 H         1 <0>         0.1320
     60 H15        -3.1858   -5.8959   -2.6794 H         1 <0>         0.1300
     61 H16        -2.2861   -7.4287   -2.7844 H         1 <0>         0.0542
     62 H17        -4.8908   -9.3623   -1.0700 H         1 <0>         0.1298
     63 H18        -3.2882   -9.4659   -1.8386 H         1 <0>         0.0600
     64 H19        -3.0782   -9.4619    0.6278 H         1 <0>         0.1366
     65 H20        -3.9539   -7.9142    0.7046 H         1 <0>         0.1409
     66 H21        -4.2645   -8.4375   -3.8739 H         1 <0>         0.0678
     67 H22        -6.6624   -7.4234   -1.2212 H         1 <0>         0.1271
     68 H23        -8.7683   -8.6241   -0.7894 H         1 <0>         0.1239
     69 H24        -9.4788  -10.4424   -2.2902 H         1 <0>         0.1248
     70 H25        -8.0838  -11.0594   -4.2232 H         1 <0>         0.1259
     71 H26        -5.9821   -9.8530   -4.6597 H         1 <0>         0.1211
     72 H27        -5.7422   -5.5331   -2.0877 H         1 <0>         0.1255
     73 H28        -6.2322   -3.3884   -3.1936 H         1 <0>         0.1231
     74 H29        -5.9661   -3.1714   -5.6319 H         1 <0>         0.1248
     75 H30        -5.2091   -5.0989   -6.9641 H         1 <0>         0.1270
     76 H31        -4.7111   -7.2412   -5.8571 H         1 <0>         0.1225
     77 H32         2.5073  -10.7457   -2.1753 H         1 <0>         0.1343
     78 H33         0.6964  -11.5280   -3.6486 H         1 <0>         0.1483
     79 H34        -0.4651   -9.9353   -5.1244 H         1 <0>         0.1525
     80 H35         1.9895   -6.7762   -3.6465 H         1 <0>         0.1530
     81 H36         5.4500   -6.7842   -5.9712 H         1 <0>         0.1032
     82 H37         6.8879   -7.3090   -5.0627 H         1 <0>         0.0640
     83 H38         5.9200   -8.5010   -5.9630 H         1 <0>         0.0608
     84 H39        -1.4147   -8.3720   -0.6957 H         1 <0>         0.4245
@<TRIPOS>BOND
     1    1    2 1
     2    1   47 1
     3    1   48 1
     4    1   49 1
     5    2    8 1
     6    2    3 2
     7    3    4 1
     8    3   43 1
     9    4    5 1
    10    4    6 1
    11    4   34 1
    12    6    7 2
    13    6   10 1
    14    7    8 1
    15    7    9 1
    16    8   50 1
    17    9   51 1
    18    9   52 1
    19    9   53 1
    20   10   11 2
    21   10   12 1
    22   12   13 1
    23   13   14 1
    24   13   54 1
    25   13   55 1
    26   14   15 1
    27   14   56 1
    28   14   57 1
    29   15   20 1
    30   15   16 1
    31   15   84 1
    32   16   17 1
    33   16   58 1
    34   16   59 1
    35   17   18 1
    36   17   60 1
    37   17   61 1
    38   18   19 1
    39   18   21 1
    40   19   20 1
    41   19   62 1
    42   19   63 1
    43   20   64 1
    44   20   65 1
    45   21   22 1
    46   21   28 1
    47   21   66 1
    48   22   27 ar
    49   22   23 ar
    50   23   24 ar
    51   23   67 1
    52   24   25 ar
    53   24   68 1
    54   25   26 ar
    55   25   69 1
    56   26   27 ar
    57   26   70 1
    58   27   71 1
    59   28   33 ar
    60   28   29 ar
    61   29   30 ar
    62   29   72 1
    63   30   31 ar
    64   30   73 1
    65   31   32 ar
    66   31   74 1
    67   32   33 ar
    68   32   75 1
    69   33   76 1
    70   34   39 ar
    71   34   35 ar
    72   35   36 ar
    73   35   77 1
    74   36   37 ar
    75   36   78 1
    76   37   38 ar
    77   37   79 1
    78   38   39 ar
    79   38   40 1
    80   39   80 1
    81   40   41 2
    82   40   42 1
    83   43   44 2
    84   43   45 1
    85   45   46 1
    86   46   81 1
    87   46   82 1
    88   46   83 1
@<TRIPOS>MOLECULE
ZINC19685795
   83    87     0     0     0
SMALL
USER_CHARGES

@<TRIPOS>ATOM
      1 C1          0.1125    1.3967   -0.1967 C.3       1 <0>        -0.1032
      2 C2          0.3665   -0.0868   -0.2721 C.2       1 <0>         0.3051
      3 C3         -0.7014   -0.9377   -0.2659 C.2       1 <0>        -0.4023
      4 C4         -0.4139   -2.4260   -0.3434 C.3       1 <0>         0.1212
      5 H1         -0.8464   -2.9027    0.5363 H         1 <0>         0.0429
      6 C5          1.0522   -2.8138   -0.4207 C.2       1 <0>        -0.3941
      7 C6          1.4441   -4.1325   -0.4954 C.2       1 <0>         0.4752
      8 O1          2.7420   -4.4398   -0.6881 O.3       1 <0>        -0.6283
      9 O2          0.5296   -5.1150   -0.3759 O.3       1 <0>        -0.3407
     10 C7          1.0065   -6.4593   -0.4633 C.3       1 <0>         0.0411
     11 C8          1.9855   -1.7757   -0.4131 C.2       1 <0>         0.3213
     12 N1          1.6168   -0.5167   -0.3474 N.2       1 <0>        -0.6393
     13 C9          3.4536   -2.1078   -0.4880 C.3       1 <0>        -0.0988
     14 C10        -1.1075   -2.9767   -1.5627 C.ar      1 <0>        -0.0362
     15 C11        -0.7860   -2.4943   -2.8179 C.ar      1 <0>        -0.0473
     16 C12        -1.4221   -2.9993   -3.9362 C.ar      1 <0>        -0.1185
     17 C13        -2.3797   -3.9872   -3.7997 C.ar      1 <0>        -0.0721
     18 C14        -2.7005   -4.4701   -2.5450 C.ar      1 <0>        -0.0601
     19 C15        -2.0610   -3.9679   -1.4268 C.ar      1 <0>        -0.0432
     20 N2         -3.7260   -5.5274   -2.3988 N.pl3     1 <0>         0.0429
     21 O3         -4.2831   -5.9686   -3.3770 O.2       1 <0>        -0.1654
     22 O4         -4.0066   -5.9497   -1.3013 O.3       1 <0>        -0.1852
     23 C16        -2.0189   -0.4530   -0.1900 C.2       1 <0>         0.5287
     24 O5         -2.2241    0.7459   -0.1283 O.2       1 <0>        -0.5466
     25 O6         -3.0571   -1.3170   -0.1856 O.3       1 <0>        -0.3767
     26 C17        -4.3685   -0.7549   -0.1065 C.3       1 <0>         0.0375
     27 C18        -5.4065   -1.8790   -0.1137 C.3       1 <0>         0.0006
     28 N3         -5.2369   -2.7097    1.0859 N.4       1 <0>        -0.3871
     29 C19        -6.1323   -3.8714    1.0072 C.3       1 <0>        -0.0004
     30 C20        -5.9424   -4.7470    2.2478 C.3       1 <0>         0.0265
     31 N4         -6.2404   -3.9577    3.4513 N.3       1 <0>        -0.5295
     32 C21        -5.3682   -2.7774    3.5306 C.3       1 <0>         0.0244
     33 C22        -5.5628   -1.9180    2.2795 C.3       1 <0>        -0.0048
     34 C23        -6.1241   -4.7805    4.6626 C.3       1 <0>         0.1757
     35 C24        -6.4361   -3.9391    5.8733 C.ar      1 <0>        -0.0887
     36 C25        -7.4700   -3.0225    5.8302 C.ar      1 <0>        -0.0957
     37 C26        -7.7562   -2.2507    6.9407 C.ar      1 <0>        -0.1226
     38 C27        -7.0087   -2.3958    8.0945 C.ar      1 <0>        -0.1123
     39 C28        -5.9754   -3.3130    8.1379 C.ar      1 <0>        -0.1162
     40 C29        -5.6920   -4.0878    7.0288 C.ar      1 <0>        -0.1089
     41 C30        -7.0967   -5.9291    4.5850 C.ar      1 <0>        -0.0878
     42 C31        -8.3636   -5.7283    4.0696 C.ar      1 <0>        -0.0938
     43 C32        -9.2557   -6.7819    3.9984 C.ar      1 <0>        -0.1226
     44 C33        -8.8808   -8.0362    4.4421 C.ar      1 <0>        -0.1120
     45 C34        -7.6136   -8.2372    4.9566 C.ar      1 <0>        -0.1162
     46 C35        -6.7200   -7.1846    5.0239 C.ar      1 <0>        -0.1087
     47 H2          1.0632    1.9296   -0.2170 H         1 <0>         0.0610
     48 H3         -0.4950    1.7051   -1.0476 H         1 <0>         0.0790
     49 H4         -0.4143    1.6286    0.7289 H         1 <0>         0.0785
     50 H5          1.4785   -6.6150   -1.4334 H         1 <0>         0.0531
     51 H6          1.7343   -6.6388    0.3280 H         1 <0>         0.0561
     52 H7          0.1703   -7.1494   -0.3512 H         1 <0>         0.0851
     53 H8          3.6712   -2.5784   -1.4468 H         1 <0>         0.0850
     54 H9          4.0384   -1.1931   -0.3912 H         1 <0>         0.0553
     55 H10         3.7129   -2.7921    0.3198 H         1 <0>         0.0838
     56 H11        -0.0380   -1.7226   -2.9245 H         1 <0>         0.1340
     57 H12        -1.1714   -2.6220   -4.9166 H         1 <0>         0.1415
     58 H13        -2.8772   -4.3814   -4.6734 H         1 <0>         0.1454
     59 H14        -2.3090   -4.3479   -0.4467 H         1 <0>         0.1358
     60 H15        -4.4623   -0.1796    0.8145 H         1 <0>         0.0838
     61 H16        -4.5356   -0.1006   -0.9622 H         1 <0>         0.1039
     62 H17        -6.4079   -1.4487   -0.1191 H         1 <0>         0.1451
     63 H18        -5.2703   -2.4936   -1.0035 H         1 <0>         0.1319
     64 H19        -7.1664   -3.5304    0.9581 H         1 <0>         0.1356
     65 H20        -5.8980   -4.4509    0.1143 H         1 <0>         0.1374
     66 H21        -6.6174   -5.6013    2.1968 H         1 <0>         0.1270
     67 H22        -4.9118   -5.0994    2.2900 H         1 <0>         0.0665
     68 H23        -5.6243   -2.1947    4.4155 H         1 <0>         0.1258
     69 H24        -4.3281   -3.0973    3.5939 H         1 <0>         0.0637
     70 H25        -4.9064   -1.0493    2.3296 H         1 <0>         0.1343
     71 H26        -6.5999   -1.5870    2.2238 H         1 <0>         0.1372
     72 H27        -5.1088   -5.1689    4.7420 H         1 <0>         0.0682
     73 H28        -8.0539   -2.9092    4.9288 H         1 <0>         0.1281
     74 H29        -8.5635   -1.5341    6.9068 H         1 <0>         0.1231
     75 H30        -7.2319   -1.7922    8.9619 H         1 <0>         0.1233
     76 H31        -5.3913   -3.4261    9.0392 H         1 <0>         0.1247
     77 H32        -4.8871   -4.8071    7.0639 H         1 <0>         0.1210
     78 H33        -8.6565   -4.7483    3.7229 H         1 <0>         0.1276
     79 H34       -10.2457   -6.6249    3.5964 H         1 <0>         0.1227
     80 H35        -9.5780   -8.8592    4.3871 H         1 <0>         0.1231
     81 H36        -7.3208   -9.2171    5.3036 H         1 <0>         0.1245
     82 H37        -5.7287   -7.3424    5.4225 H         1 <0>         0.1206
     83 H38        -4.2804   -3.0260    1.1433 H         1 <0>         0.4292
@<TRIPOS>BOND
     1    1    2 1
     2    1   47 1
     3    1   48 1
     4    1   49 1
     5    2   12 1
     6    2    3 2
     7    3    4 1
     8    3   23 1
     9    4    5 1
    10    4    6 1
    11    4   14 1
    12    6    7 2
    13    6   11 1
    14    7    8 1
    15    7    9 1
    16    9   10 1
    17   10   50 1
    18   10   51 1
    19   10   52 1
    20   11   12 2
    21   11   13 1
    22   13   53 1
    23   13   54 1
    24   13   55 1
    25   14   19 ar
    26   14   15 ar
    27   15   16 ar
    28   15   56 1
    29   16   17 ar
    30   16   57 1
    31   17   18 ar
    32   17   58 1
    33   18   19 ar
    34   18   20 1
    35   19   59 1
    36   20   21 2
    37   20   22 1
    38   23   24 2
    39   23   25 1
    40   25   26 1
    41   26   27 1
    42   26   60 1
    43   26   61 1
    44   27   28 1
    45   27   62 1
    46   27   63 1
    47   28   33 1
    48   28   29 1
    49   28   83 1
    50   29   30 1
    51   29   64 1
    52   29   65 1
    53   30   31 1
    54   30   66 1
    55   30   67 1
    56   31   32 1
    57   31   34 1
    58   32   33 1
    59   32   68 1
    60   32   69 1
    61   33   70 1
    62   33   71 1
    63   34   35 1
    64   34   41 1
    65   34   72 1
    66   35   40 ar
    67   35   36 ar
    68   36   37 ar
    69   36   73 1
    70   37   38 ar
    71   37   74 1
    72   38   39 ar
    73   38   75 1
    74   39   40 ar
    75   39   76 1
    76   40   77 1
    77   41   46 ar
    78   41   42 ar
    79   42   43 ar
    80   42   78 1
    81   43   44 ar
    82   43   79 1
    83   44   45 ar
    84   44   80 1
    85   45   46 ar
    86   45   81 1
    87   46   82 1
@<TRIPOS>MOLECULE
ZINC19685795
   84    88     0     0     0
SMALL
USER_CHARGES

@<TRIPOS>ATOM
      1 C1         -1.9372    1.5795    0.9586 C.3       1 <0>        -0.1190
      2 C2         -1.3869    0.2079    0.6642 C.2       1 <0>         0.2434
      3 C3         -1.0508   -0.6049    1.6808 C.2       1 <0>        -0.2594
      4 C4         -0.4901   -1.9767    1.4344 C.3       1 <0>         0.0903
      5 H1         -0.9638   -2.6854    2.1137 H         1 <0>         0.0976
      6 C5         -0.7405   -2.4072    0.0170 C.2       1 <0>        -0.2320
      7 C6         -1.0890   -1.5223   -0.9331 C.2       1 <0>         0.1893
      8 N1         -1.2405   -0.1970   -0.6345 N.pl3     1 <0>        -0.6275
      9 C7         -1.3213   -1.9979   -2.3440 C.3       1 <0>        -0.1281
     10 C8         -0.6064   -3.7727   -0.3253 C.2       1 <0>         0.5332
     11 O1          0.4979   -4.2458   -0.5187 O.2       1 <0>        -0.4869
     12 O2         -1.7031   -4.5511   -0.4375 O.3       1 <0>        -0.3357
     13 C9         -1.4934   -5.9210   -0.7861 C.3       1 <0>         0.0659
     14 C10        -2.8421   -6.6391   -0.8658 C.3       1 <0>         0.0555
     15 N2         -3.6431   -6.0577   -1.9513 N.3       1 <0>        -0.5318
     16 C11        -5.0688   -6.3707   -1.7797 C.3       1 <0>         0.0298
     17 C12        -5.8732   -5.6989   -2.8947 C.3       1 <0>        -0.0036
     18 N3         -5.4016   -6.1830   -4.1988 N.4       1 <0>        -0.3840
     19 C13        -3.9828   -5.8414   -4.3659 C.3       1 <0>        -0.0025
     20 C14        -3.1626   -6.5144   -3.2631 C.3       1 <0>         0.0225
     21 C15        -6.1862   -5.5514   -5.2682 C.3       1 <0>         0.1350
     22 C16        -5.7025   -6.0479   -6.6063 C.ar      1 <0>        -0.1320
     23 C17        -5.3697   -7.3795   -6.7704 C.ar      1 <0>        -0.1215
     24 C18        -4.9260   -7.8349   -7.9978 C.ar      1 <0>        -0.1023
     25 C19        -4.8156   -6.9587   -9.0613 C.ar      1 <0>        -0.0918
     26 C20        -5.1492   -5.6273   -8.8975 C.ar      1 <0>        -0.1034
     27 C21        -5.5970   -5.1728   -7.6712 C.ar      1 <0>        -0.0866
     28 C22        -7.6417   -5.9032   -5.0980 C.ar      1 <0>        -0.1317
     29 C23        -8.0035   -7.1799   -4.7105 C.ar      1 <0>        -0.1219
     30 C24        -9.3385   -7.5025   -4.5545 C.ar      1 <0>        -0.1021
     31 C25       -10.3118   -6.5484   -4.7855 C.ar      1 <0>        -0.0918
     32 C26        -9.9499   -5.2715   -5.1722 C.ar      1 <0>        -0.1030
     33 C27        -8.6147   -4.9477   -5.3241 C.ar      1 <0>        -0.0866
     34 C28         0.9947   -1.9594    1.6918 C.ar      1 <0>        -0.0722
     35 C29         1.8133   -1.1186    0.9608 C.ar      1 <0>        -0.0508
     36 C30         3.1750   -1.1028    1.1968 C.ar      1 <0>        -0.1156
     37 C31         3.7185   -1.9274    2.1644 C.ar      1 <0>        -0.0544
     38 C32         2.9001   -2.7673    2.8958 C.ar      1 <0>        -0.0446
     39 C33         1.5374   -2.7800    2.6626 C.ar      1 <0>        -0.0369
     40 N4          3.4820   -3.6505    3.9313 N.pl3     1 <0>         0.0331
     41 O3          4.6733   -3.6372    4.1372 O.2       1 <0>        -0.1562
     42 O4          2.7661   -4.3852    4.5711 O.3       1 <0>        -0.1575
     43 C34        -1.2286   -0.1588    3.0109 C.2       1 <0>         0.5169
     44 O5         -1.6814    0.9501    3.2254 O.2       1 <0>        -0.5155
     45 O6         -0.8961   -0.9630    4.0424 O.3       1 <0>        -0.3513
     46 C35        -1.1022   -0.4478    5.3592 C.3       1 <0>         0.0357
     47 H2         -2.1567    2.0918    0.0218 H         1 <0>         0.0657
     48 H3         -2.8516    1.4861    1.5444 H         1 <0>         0.1072
     49 H4         -1.2015    2.1529    1.5225 H         1 <0>         0.1049
     50 H5         -1.2401    0.4601   -1.3480 H         1 <0>         0.4239
     51 H6         -2.3458   -2.3567   -2.4424 H         1 <0>         0.0943
     52 H7         -1.1571   -1.1729   -3.0372 H         1 <0>         0.0832
     53 H8         -0.6290   -2.8081   -2.5730 H         1 <0>         0.0844
     54 H9         -0.9941   -5.9774   -1.7534 H         1 <0>         0.0685
     55 H10        -0.8721   -6.3978   -0.0281 H         1 <0>         0.0816
     56 H11        -2.6784   -7.6987   -1.0623 H         1 <0>         0.0736
     57 H12        -3.3721   -6.5225    0.0795 H         1 <0>         0.1017
     58 H13        -5.2125   -7.4502   -1.8272 H         1 <0>         0.0604
     59 H14        -5.4085   -6.0005   -0.8124 H         1 <0>         0.1273
     60 H15        -6.9294   -5.9415   -2.7774 H         1 <0>         0.1371
     61 H16        -5.7402   -4.6185   -2.8384 H         1 <0>         0.1396
     62 H17        -3.6375   -6.1896   -5.3393 H         1 <0>         0.1367
     63 H18        -3.8594   -4.7603   -4.3020 H         1 <0>         0.1386
     64 H19        -2.1117   -6.2490   -3.3781 H         1 <0>         0.1231
     65 H20        -3.2749   -7.5962   -3.3351 H         1 <0>         0.0621
     66 H21        -6.0655   -4.4694   -5.2168 H         1 <0>         0.1481
     67 H22        -5.4560   -8.0640   -5.9395 H         1 <0>         0.1136
     68 H23        -4.6654   -8.8751   -8.1258 H         1 <0>         0.1353
     69 H24        -4.4682   -7.3144  -10.0201 H         1 <0>         0.1362
     70 H25        -5.0626   -4.9427   -9.7283 H         1 <0>         0.1375
     71 H26        -5.8612   -4.1333   -7.5442 H         1 <0>         0.1329
     72 H27        -7.2431   -7.9253   -4.5300 H         1 <0>         0.1134
     73 H28        -9.6212   -8.5001   -4.2524 H         1 <0>         0.1353
     74 H29       -11.3549   -6.8007   -4.6643 H         1 <0>         0.1363
     75 H30       -10.7103   -4.5262   -5.3530 H         1 <0>         0.1375
     76 H31        -8.3318   -3.9490   -5.6225 H         1 <0>         0.1329
     77 H32         1.3887   -0.4745    0.2050 H         1 <0>         0.1291
     78 H33         3.8145   -0.4465    0.6253 H         1 <0>         0.1470
     79 H34         4.7827   -1.9155    2.3483 H         1 <0>         0.1540
     80 H35         0.8973   -3.4336    3.2367 H         1 <0>         0.1504
     81 H36        -0.7949   -1.1928    6.0931 H         1 <0>         0.1028
     82 H37        -0.5107    0.4582    5.4917 H         1 <0>         0.0606
     83 H38        -2.1582   -0.2157    5.4974 H         1 <0>         0.0619
     84 H39        -5.5140   -7.1846   -4.2463 H         1 <0>         0.4138
@<TRIPOS>BOND
     1    1    2 1
     2    1   47 1
     3    1   48 1
     4    1   49 1
     5    2    8 1
     6    2    3 2
     7    3    4 1
     8    3   43 1
     9    4    5 1
    10    4    6 1
    11    4   34 1
    12    6    7 2
    13    6   10 1
    14    7    8 1
    15    7    9 1
    16    8   50 1
    17    9   51 1
    18    9   52 1
    19    9   53 1
    20   10   11 2
    21   10   12 1
    22   12   13 1
    23   13   14 1
    24   13   54 1
    25   13   55 1
    26   14   15 1
    27   14   56 1
    28   14   57 1
    29   15   20 1
    30   15   16 1
    31   16   17 1
    32   16   58 1
    33   16   59 1
    34   17   18 1
    35   17   60 1
    36   17   61 1
    37   18   19 1
    38   18   21 1
    39   18   84 1
    40   19   20 1
    41   19   62 1
    42   19   63 1
    43   20   64 1
    44   20   65 1
    45   21   22 1
    46   21   28 1
    47   21   66 1
    48   22   27 ar
    49   22   23 ar
    50   23   24 ar
    51   23   67 1
    52   24   25 ar
    53   24   68 1
    54   25   26 ar
    55   25   69 1
    56   26   27 ar
    57   26   70 1
    58   27   71 1
    59   28   33 ar
    60   28   29 ar
    61   29   30 ar
    62   29   72 1
    63   30   31 ar
    64   30   73 1
    65   31   32 ar
    66   31   74 1
    67   32   33 ar
    68   32   75 1
    69   33   76 1
    70   34   39 ar
    71   34   35 ar
    72   35   36 ar
    73   35   77 1
    74   36   37 ar
    75   36   78 1
    76   37   38 ar
    77   37   79 1
    78   38   39 ar
    79   38   40 1
    80   39   80 1
    81   40   41 2
    82   40   42 1
    83   43   44 2
    84   43   45 1
    85   45   46 1
    86   46   81 1
    87   46   82 1
    88   46   83 1
@<TRIPOS>MOLECULE
ZINC19685795
   83    87     0     0     0
SMALL
USER_CHARGES

@<TRIPOS>ATOM
      1 C1         -1.9366    1.5755    0.9585 C.3       1 <0>        -0.1177
      2 C2         -1.3862    0.2038    0.6644 C.2       1 <0>         0.2469
      3 C3         -1.0493   -0.6084    1.6813 C.2       1 <0>        -0.2651
      4 C4         -0.4884   -1.9802    1.4353 C.3       1 <0>         0.0896
      5 H1         -0.9615   -2.6886    2.1153 H         1 <0>         0.0977
      6 C5         -0.7398   -2.4115    0.0182 C.2       1 <0>        -0.2295
      7 C6         -1.0890   -1.5272   -0.9320 C.2       1 <0>         0.1888
      8 N1         -1.2406   -0.2019   -0.6341 N.pl3     1 <0>        -0.6265
      9 C7         -1.3223   -2.0037   -2.3426 C.3       1 <0>        -0.1297
     10 C8         -0.6056   -3.7772   -0.3234 C.2       1 <0>         0.5300
     11 O1          0.4988   -4.2504   -0.5165 O.2       1 <0>        -0.4950
     12 O2         -1.7022   -4.5557   -0.4351 O.3       1 <0>        -0.3294
     13 C9         -1.4925   -5.9257   -0.7831 C.3       1 <0>         0.0704
     14 C10        -2.8412   -6.6440   -0.8624 C.3       1 <0>         0.0551
     15 N2         -3.6422   -6.0630   -1.9481 N.3       1 <0>        -0.5327
     16 C11        -5.0680   -6.3740   -1.7751 C.3       1 <0>         0.0607
     17 C12        -5.8750   -5.6864   -2.8789 C.3       1 <0>         0.0586
     18 N3         -5.3947   -6.1434   -4.1904 N.3       1 <0>        -0.5280
     19 C13        -3.9689   -5.8324   -4.3634 C.3       1 <0>         0.0586
     20 C14        -3.1619   -6.5200   -3.2596 C.3       1 <0>         0.0552
     21 C15        -6.1958   -5.5625   -5.2761 C.3       1 <0>         0.1694
     22 C16        -5.6749   -6.0528   -6.6025 C.ar      1 <0>        -0.0771
     23 C17        -5.2791   -7.3695   -6.7456 C.ar      1 <0>        -0.0906
     24 C18        -4.8013   -7.8193   -7.9622 C.ar      1 <0>        -0.1236
     25 C19        -4.7196   -6.9524   -9.0359 C.ar      1 <0>        -0.1183
     26 C20        -5.1162   -5.6359   -8.8931 C.ar      1 <0>        -0.1204
     27 C21        -5.5981   -5.1873   -7.6776 C.ar      1 <0>        -0.1133
     28 C22        -7.6352   -5.9791   -5.1166 C.ar      1 <0>        -0.0767
     29 C23        -7.9419   -7.2662   -4.7162 C.ar      1 <0>        -0.0894
     30 C24        -9.2623   -7.6484   -4.5699 C.ar      1 <0>        -0.1239
     31 C25       -10.2760   -6.7434   -4.8237 C.ar      1 <0>        -0.1183
     32 C26        -9.9693   -5.4561   -5.2232 C.ar      1 <0>        -0.1206
     33 C27        -8.6488   -5.0726   -5.3654 C.ar      1 <0>        -0.1134
     34 C28         0.9965   -1.9625    1.6916 C.ar      1 <0>        -0.0667
     35 C29         1.8144   -1.1219    0.9595 C.ar      1 <0>        -0.0495
     36 C30         3.1763   -1.1056    1.1946 C.ar      1 <0>        -0.1167
     37 C31         3.7207   -1.9296    2.1622 C.ar      1 <0>        -0.0569
     38 C32         2.9029   -2.7693    2.8947 C.ar      1 <0>        -0.0458
     39 C33         1.5401   -2.7824    2.6625 C.ar      1 <0>        -0.0362
     40 N4          3.4858   -3.6518    3.9303 N.pl3     1 <0>         0.0350
     41 O3          4.6772   -3.6382    4.1354 O.2       1 <0>        -0.1610
     42 O4          2.7705   -4.3863    4.5710 O.3       1 <0>        -0.1579
     43 C34        -1.2262   -0.1616    3.0112 C.2       1 <0>         0.5196
     44 O5         -1.6791    0.9474    3.2254 O.2       1 <0>        -0.5197
     45 O6         -0.8928   -0.9651    4.0430 O.3       1 <0>        -0.3509
     46 C35        -1.0981   -0.4492    5.3597 C.3       1 <0>         0.0365
     47 H2         -2.1568    2.0871    0.0215 H         1 <0>         0.0652
     48 H3         -2.8506    1.4821    1.5450 H         1 <0>         0.1067
     49 H4         -1.2006    2.1493    1.5215 H         1 <0>         0.1031
     50 H5         -1.2409    0.4549   -1.3480 H         1 <0>         0.4232
     51 H6         -2.3468   -2.3628   -2.4400 H         1 <0>         0.1001
     52 H7         -1.1587   -1.1791   -3.0363 H         1 <0>         0.0812
     53 H8         -0.6300   -2.8139   -2.5715 H         1 <0>         0.0856
     54 H9         -0.9932   -5.9826   -1.7503 H         1 <0>         0.0674
     55 H10        -0.8712   -6.4022   -0.0248 H         1 <0>         0.0724
     56 H11        -2.6775   -7.7036   -1.0585 H         1 <0>         0.0625
     57 H12        -3.3712   -6.5270    0.0828 H         1 <0>         0.0877
     58 H13        -5.2150   -7.4524   -1.8352 H         1 <0>         0.0437
     59 H14        -5.4031   -6.0147   -0.8020 H         1 <0>         0.0813
     60 H15        -6.9297   -5.9392   -2.7695 H         1 <0>         0.0839
     61 H16        -5.7498   -4.6063   -2.8019 H         1 <0>         0.0428
     62 H17        -3.6338   -6.1917   -5.3364 H         1 <0>         0.0845
     63 H18        -3.8220   -4.7541   -4.3033 H         1 <0>         0.0415
     64 H19        -2.1073   -6.2672   -3.3689 H         1 <0>         0.0772
     65 H20        -3.2872   -7.6001   -3.3366 H         1 <0>         0.0449
     66 H21        -6.1258   -4.4754   -5.2376 H         1 <0>         0.0564
     67 H22        -5.3429   -8.0468   -5.9067 H         1 <0>         0.1284
     68 H23        -4.4914   -8.8478   -8.0738 H         1 <0>         0.1212
     69 H24        -4.3456   -7.3037   -9.9863 H         1 <0>         0.1204
     70 H25        -5.0521   -4.9586   -9.7318 H         1 <0>         0.1212
     71 H26        -5.9114   -4.1597   -7.5670 H         1 <0>         0.1178
     72 H27        -7.1499   -7.9732   -4.5180 H         1 <0>         0.1284
     73 H28        -9.5019   -8.6541   -4.2578 H         1 <0>         0.1210
     74 H29       -11.3076   -7.0423   -4.7101 H         1 <0>         0.1203
     75 H30       -10.7612   -4.7492   -5.4218 H         1 <0>         0.1211
     76 H31        -8.4091   -4.0658   -5.6739 H         1 <0>         0.1176
     77 H32         1.3892   -0.4783    0.2037 H         1 <0>         0.1298
     78 H33         3.8153   -0.4495    0.6223 H         1 <0>         0.1458
     79 H34         4.7850   -1.9174    2.3455 H         1 <0>         0.1522
     80 H35         0.9006   -3.4358    3.2374 H         1 <0>         0.1509
     81 H36        -0.7901   -1.1938    6.0937 H         1 <0>         0.1013
     82 H37        -0.5067    0.4570    5.4912 H         1 <0>         0.0587
     83 H38        -2.1540   -0.2172    5.4985 H         1 <0>         0.0610
@<TRIPOS>BOND
     1    1    2 1
     2    1   47 1
     3    1   48 1
     4    1   49 1
     5    2    8 1
     6    2    3 2
     7    3    4 1
     8    3   43 1
     9    4    5 1
    10    4    6 1
    11    4   34 1
    12    6    7 2
    13    6   10 1
    14    7    8 1
    15    7    9 1
    16    8   50 1
    17    9   51 1
    18    9   52 1
    19    9   53 1
    20   10   11 2
    21   10   12 1
    22   12   13 1
    23   13   14 1
    24   13   54 1
    25   13   55 1
    26   14   15 1
    27   14   56 1
    28   14   57 1
    29   15   20 1
    30   15   16 1
    31   16   17 1
    32   16   58 1
    33   16   59 1
    34   17   18 1
    35   17   60 1
    36   17   61 1
    37   18   19 1
    38   18   21 1
    39   19   20 1
    40   19   62 1
    41   19   63 1
    42   20   64 1
    43   20   65 1
    44   21   22 1
    45   21   28 1
    46   21   66 1
    47   22   27 ar
    48   22   23 ar
    49   23   24 ar
    50   23   67 1
    51   24   25 ar
    52   24   68 1
    53   25   26 ar
    54   25   69 1
    55   26   27 ar
    56   26   70 1
    57   27   71 1
    58   28   33 ar
    59   28   29 ar
    60   29   30 ar
    61   29   72 1
    62   30   31 ar
    63   30   73 1
    64   31   32 ar
    65   31   74 1
    66   32   33 ar
    67   32   75 1
    68   33   76 1
    69   34   39 ar
    70   34   35 ar
    71   35   36 ar
    72   35   77 1
    73   36   37 ar
    74   36   78 1
    75   37   38 ar
    76   37   79 1
    77   38   39 ar
    78   38   40 1
    79   39   80 1
    80   40   41 2
    81   40   42 1
    82   43   44 2
    83   43   45 1
    84   45   46 1
    85   46   81 1
    86   46   82 1
    87   46   83 1
@<TRIPOS>MOLECULE
ZINC19685795
   82    86     0     0     0
SMALL
USER_CHARGES

@<TRIPOS>ATOM
      1 C1          0.2512    0.7328   -0.4327 C.3       1 <0>        -0.0958
      2 C2          0.0734   -0.7635   -0.4511 C.2       1 <0>         0.2814
      3 C3         -1.1918   -1.2757   -0.4154 C.2       1 <0>        -0.3760
      4 C4         -1.3388   -2.7862   -0.4356 C.3       1 <0>         0.1163
      5 H1         -1.8814   -3.0876    0.4604 H         1 <0>         0.0490
      6 C5         -0.0435   -3.5766   -0.4942 C.2       1 <0>        -0.3985
      7 C6         -0.0423   -4.9541   -0.5178 C.2       1 <0>         0.4741
      8 O1          1.1130   -5.6238   -0.6995 O.3       1 <0>        -0.6459
      9 O2         -1.1962   -5.6318   -0.3592 O.3       1 <0>        -0.3364
     10 C7         -1.1209   -7.0584   -0.3945 C.3       1 <0>         0.0435
     11 C8          1.1459   -2.8463   -0.5236 C.2       1 <0>         0.3163
     12 N1          1.1499   -1.5329   -0.5067 N.2       1 <0>        -0.6451
     13 C9          2.4588   -3.5838   -0.5819 C.3       1 <0>        -0.0921
     14 C10        -2.1701   -3.1624   -1.6349 C.ar      1 <0>        -0.0334
     15 C11        -1.7353   -2.8380   -2.9066 C.ar      1 <0>        -0.0541
     16 C12        -2.4977   -3.1831   -4.0066 C.ar      1 <0>        -0.1277
     17 C13        -3.6950   -3.8530   -3.8353 C.ar      1 <0>        -0.0789
     18 C14        -4.1292   -4.1780   -2.5640 C.ar      1 <0>        -0.0568
     19 C15        -3.3644   -3.8367   -1.4640 C.ar      1 <0>        -0.0182
     20 N2         -5.4112   -4.8948   -2.3806 N.pl3     1 <0>         0.0440
     21 O3         -6.0785   -5.1958   -3.3427 O.2       1 <0>        -0.1867
     22 O4         -5.7910   -5.1791   -1.2686 O.3       1 <0>        -0.1630
     23 C16        -2.3171   -0.4348   -0.3614 C.2       1 <0>         0.5224
     24 O5         -2.1734    0.7746   -0.3458 O.2       1 <0>        -0.5620
     25 O6         -3.5576   -0.9679   -0.3270 O.3       1 <0>        -0.3389
     26 C17        -4.6551   -0.0544   -0.2727 C.3       1 <0>         0.0790
     27 C18        -5.9692   -0.8373   -0.2400 C.3       1 <0>         0.0613
     28 N3         -6.0383   -1.6264    0.9971 N.3       1 <0>        -0.5259
     29 C19        -7.0222   -2.7113    0.8755 C.3       1 <0>         0.0630
     30 C20        -7.0068   -3.5558    2.1518 C.3       1 <0>         0.0616
     31 N4         -7.3115   -2.6994    3.3065 N.3       1 <0>        -0.5285
     32 C21        -6.3276   -1.6146    3.4281 C.3       1 <0>         0.0580
     33 C22        -6.3430   -0.7700    2.1518 C.3       1 <0>         0.0594
     34 C23        -7.3806   -3.4886    4.5436 C.3       1 <0>         0.1648
     35 C24        -7.6941   -2.5785    5.7031 C.ar      1 <0>        -0.0711
     36 C25        -8.6162   -1.5598    5.5525 C.ar      1 <0>        -0.0895
     37 C26        -8.9038   -0.7250    6.6161 C.ar      1 <0>        -0.1254
     38 C27        -8.2696   -0.9092    7.8305 C.ar      1 <0>        -0.1217
     39 C28        -7.3482   -1.9286    7.9814 C.ar      1 <0>        -0.1215
     40 C29        -7.0637   -2.7660    6.9190 C.ar      1 <0>        -0.1127
     41 C30        -8.4624   -4.5298    4.4154 C.ar      1 <0>        -0.0711
     42 C31        -9.6557   -4.2138    3.7932 C.ar      1 <0>        -0.0878
     43 C32       -10.6480   -5.1689    3.6756 C.ar      1 <0>        -0.1248
     44 C33       -10.4470   -6.4402    4.1799 C.ar      1 <0>        -0.1207
     45 C34        -9.2534   -6.7565    4.8013 C.ar      1 <0>        -0.1213
     46 C35        -8.2594   -5.8026    4.9151 C.ar      1 <0>        -0.1121
     47 H2          1.3138    0.9729   -0.4706 H         1 <0>         0.0539
     48 H3         -0.2509    1.1690   -1.2962 H         1 <0>         0.0756
     49 H4         -0.1806    1.1388    0.4821 H         1 <0>         0.0760
     50 H5         -0.7239   -7.3775   -1.3582 H         1 <0>         0.0493
     51 H6         -0.4644   -7.4074    0.4025 H         1 <0>         0.0523
     52 H7         -2.1170   -7.4784   -0.2548 H         1 <0>         0.0836
     53 H8          2.5066   -4.1685   -1.5005 H         1 <0>         0.0827
     54 H9          3.2794   -2.8666   -0.5646 H         1 <0>         0.0494
     55 H10         2.5401   -4.2496    0.2773 H         1 <0>         0.0778
     56 H11        -0.8001   -2.3147   -3.0405 H         1 <0>         0.1294
     57 H12        -2.1584   -2.9290   -5.0000 H         1 <0>         0.1351
     58 H13        -4.2911   -4.1219   -4.6948 H         1 <0>         0.1397
     59 H14        -3.7019   -4.0940   -0.4708 H         1 <0>         0.1449
     60 H15        -4.5743    0.5577    0.6256 H         1 <0>         0.0580
     61 H16        -4.6369    0.5882   -1.1530 H         1 <0>         0.0575
     62 H17        -6.8076   -0.1415   -0.2744 H         1 <0>         0.0512
     63 H18        -6.0158   -1.5052   -1.1001 H         1 <0>         0.0754
     64 H19        -8.0158   -2.2867    0.7324 H         1 <0>         0.0350
     65 H20        -6.7680   -3.3387    0.0212 H         1 <0>         0.0865
     66 H21        -7.7561   -4.3437    2.0756 H         1 <0>         0.0825
     67 H22        -6.0208   -4.0025    2.2804 H         1 <0>         0.0476
     68 H23        -6.5818   -0.9872    4.2824 H         1 <0>         0.0804
     69 H24        -5.3340   -2.0391    3.5713 H         1 <0>         0.0450
     70 H25        -5.5937    0.0178    2.2280 H         1 <0>         0.0771
     71 H26        -7.3290   -0.3234    2.0232 H         1 <0>         0.0383
     72 H27        -6.4226   -3.9792    4.7155 H         1 <0>         0.0580
     73 H28        -9.1117   -1.4158    4.6037 H         1 <0>         0.1289
     74 H29        -9.6238    0.0714    6.4983 H         1 <0>         0.1192
     75 H30        -8.4938   -0.2566    8.6613 H         1 <0>         0.1180
     76 H31        -6.8524   -2.0723    8.9301 H         1 <0>         0.1197
     77 H32        -6.3466   -3.5647    7.0380 H         1 <0>         0.1187
     78 H33        -9.8127   -3.2206    3.3992 H         1 <0>         0.1282
     79 H34       -11.5806   -4.9218    3.1901 H         1 <0>         0.1190
     80 H35       -11.2226   -7.1862    4.0887 H         1 <0>         0.1179
     81 H36        -9.0965   -7.7496    5.1956 H         1 <0>         0.1195
     82 H37        -7.3254   -6.0508    5.3973 H         1 <0>         0.1181
@<TRIPOS>BOND
     1    1    2 1
     2    1   47 1
     3    1   48 1
     4    1   49 1
     5    2   12 1
     6    2    3 2
     7    3    4 1
     8    3   23 1
     9    4    5 1
    10    4    6 1
    11    4   14 1
    12    6    7 2
    13    6   11 1
    14    7    8 1
    15    7    9 1
    16    9   10 1
    17   10   50 1
    18   10   51 1
    19   10   52 1
    20   11   12 2
    21   11   13 1
    22   13   53 1
    23   13   54 1
    24   13   55 1
    25   14   19 ar
    26   14   15 ar
    27   15   16 ar
    28   15   56 1
    29   16   17 ar
    30   16   57 1
    31   17   18 ar
    32   17   58 1
    33   18   19 ar
    34   18   20 1
    35   19   59 1
    36   20   21 2
    37   20   22 1
    38   23   24 2
    39   23   25 1
    40   25   26 1
    41   26   27 1
    42   26   60 1
    43   26   61 1
    44   27   28 1
    45   27   62 1
    46   27   63 1
    47   28   33 1
    48   28   29 1
    49   29   30 1
    50   29   64 1
    51   29   65 1
    52   30   31 1
    53   30   66 1
    54   30   67 1
    55   31   32 1
    56   31   34 1
    57   32   33 1
    58   32   68 1
    59   32   69 1
    60   33   70 1
    61   33   71 1
    62   34   35 1
    63   34   41 1
    64   34   72 1
    65   35   40 ar
    66   35   36 ar
    67   36   37 ar
    68   36   73 1
    69   37   38 ar
    70   37   74 1
    71   38   39 ar
    72   38   75 1
    73   39   40 ar
    74   39   76 1
    75   40   77 1
    76   41   46 ar
    77   41   42 ar
    78   42   43 ar
    79   42   78 1
    80   43   44 ar
    81   43   79 1
    82   44   45 ar
    83   44   80 1
    84   45   46 ar
    85   45   81 1
    86   46   82 1
@<TRIPOS>MOLECULE
ZINC19685795
   83    87     0     0     0
SMALL
USER_CHARGES

@<TRIPOS>ATOM
      1 C1          0.2895    0.8766   -0.5835 C.3       1 <0>        -0.0991
      2 C2          0.1403   -0.6228   -0.6079 C.2       1 <0>         0.2909
      3 C3         -1.1128   -1.1601   -0.5345 C.2       1 <0>        -0.3884
      4 C4         -1.2310   -2.6730   -0.5619 C.3       1 <0>         0.1221
      5 H1         -1.7376   -2.9916    0.3491 H         1 <0>         0.0454
      6 C5          0.0767   -3.4373   -0.6696 C.2       1 <0>        -0.3994
      7 C6          0.1040   -4.8142   -0.7043 C.2       1 <0>         0.4739
      8 O1          1.2658   -5.4598   -0.9268 O.3       1 <0>        -0.6373
      9 O2         -1.0312   -5.5156   -0.5157 O.3       1 <0>        -0.3397
     10 C7         -0.9293   -6.9401   -0.5648 C.3       1 <0>         0.0423
     11 C8          1.2501   -2.6835   -0.7325 C.2       1 <0>         0.3196
     12 N1          1.2291   -1.3704   -0.7053 N.2       1 <0>        -0.6429
     13 C9          2.5744   -3.3945   -0.8402 C.3       1 <0>        -0.0959
     14 C10        -2.0943   -3.0566   -1.7360 C.ar      1 <0>        -0.0347
     15 C11        -1.7084   -2.7144   -3.0188 C.ar      1 <0>        -0.0502
     16 C12        -2.5001   -3.0663   -4.0957 C.ar      1 <0>        -0.1237
     17 C13        -3.6777   -3.7609   -3.8902 C.ar      1 <0>        -0.0759
     18 C14        -4.0630   -4.1038   -2.6079 C.ar      1 <0>        -0.0603
     19 C15        -3.2689   -3.7555   -1.5310 C.ar      1 <0>        -0.0234
     20 N2         -5.3241   -4.8469   -2.3878 N.pl3     1 <0>         0.0479
     21 O3         -6.0170   -5.1540   -3.3297 O.2       1 <0>        -0.1779
     22 O4         -5.6611   -5.1469   -1.2662 O.3       1 <0>        -0.1824
     23 C16        -2.2518   -0.3418   -0.4366 C.2       1 <0>         0.5230
     24 O5         -2.1312    0.8699   -0.4160 O.2       1 <0>        -0.5586
     25 O6         -3.4799   -0.8996   -0.3653 O.3       1 <0>        -0.3445
     26 C17        -4.5925   -0.0082   -0.2675 C.3       1 <0>         0.0749
     27 C18        -5.8894   -0.8171   -0.1975 C.3       1 <0>         0.0607
     28 N3         -5.9025   -1.6156    1.0354 N.3       1 <0>        -0.5248
     29 C19        -6.8737   -2.7147    0.9408 C.3       1 <0>         0.0303
     30 C20        -6.8139   -3.5556    2.2179 C.3       1 <0>        -0.0019
     31 N4         -7.1198   -2.7075    3.3775 N.4       1 <0>        -0.3828
     32 C21        -6.1272   -1.6290    3.4730 C.3       1 <0>        -0.0028
     33 C22        -6.1812   -0.7721    2.2063 C.3       1 <0>         0.0268
     34 C23        -7.0801   -3.5190    4.6014 C.3       1 <0>         0.1312
     35 C24        -7.3938   -2.6491    5.7913 C.ar      1 <0>        -0.1261
     36 C25        -8.3840   -1.6885    5.7033 C.ar      1 <0>        -0.1205
     37 C26        -8.6718   -0.8905    6.7947 C.ar      1 <0>        -0.1042
     38 C27        -7.9698   -1.0535    7.9744 C.ar      1 <0>        -0.0953
     39 C28        -6.9803   -2.0147    8.0627 C.ar      1 <0>        -0.1045
     40 C29        -6.6954   -2.8156    6.9725 C.ar      1 <0>        -0.0858
     41 C30        -8.0997   -4.6244    4.5044 C.ar      1 <0>        -0.1266
     42 C31        -9.3388   -4.3747    3.9449 C.ar      1 <0>        -0.1203
     43 C32       -10.2740   -5.3888    3.8559 C.ar      1 <0>        -0.1032
     44 C33        -9.9700   -6.6526    4.3262 C.ar      1 <0>        -0.0942
     45 C34        -8.7306   -6.9025    4.8850 C.ar      1 <0>        -0.1037
     46 C35        -7.7938   -5.8896    4.9700 C.ar      1 <0>        -0.0851
     47 H2          1.3454    1.1378   -0.6546 H         1 <0>         0.0571
     48 H3         -0.2494    1.3091   -1.4264 H         1 <0>         0.0771
     49 H4         -0.1194    1.2672    0.3483 H         1 <0>         0.0763
     50 H5         -0.2418   -7.2821    0.2088 H         1 <0>         0.0537
     51 H6         -1.9123   -7.3806   -0.3978 H         1 <0>         0.0829
     52 H7         -0.5562   -7.2442   -1.5427 H         1 <0>         0.0514
     53 H8          2.6055   -3.9663   -1.7677 H         1 <0>         0.0846
     54 H9          3.3814   -2.6618   -0.8378 H         1 <0>         0.0525
     55 H10         2.6942   -4.0697    0.0071 H         1 <0>         0.0799
     56 H11        -0.7885   -2.1718   -3.1793 H         1 <0>         0.1315
     57 H12        -2.1990   -2.7983   -5.0977 H         1 <0>         0.1383
     58 H13        -4.2967   -4.0352   -4.7316 H         1 <0>         0.1419
     59 H14        -3.5681   -4.0267   -0.5294 H         1 <0>         0.1411
     60 H15        -4.4939    0.5987    0.6325 H         1 <0>         0.0588
     61 H16        -4.6160    0.6410   -1.1428 H         1 <0>         0.0669
     62 H17        -6.7418   -0.1378   -0.1995 H         1 <0>         0.0630
     63 H18        -5.9511   -1.4801   -1.0605 H         1 <0>         0.0896
     64 H19        -7.8766   -2.3046    0.8219 H         1 <0>         0.0535
     65 H20        -6.6321   -3.3405    0.0816 H         1 <0>         0.1308
     66 H21        -7.5435   -4.3630    2.1557 H         1 <0>         0.1367
     67 H22        -5.8147   -3.9766    2.3292 H         1 <0>         0.1437
     68 H23        -6.3476   -1.0082    4.3413 H         1 <0>         0.1332
     69 H24        -5.1315   -2.0600    3.5779 H         1 <0>         0.1418
     70 H25        -5.4345    0.0193    2.2704 H         1 <0>         0.1236
     71 H26        -7.1727   -0.3300    2.1083 H         1 <0>         0.0558
     72 H27        -6.0861   -3.9507    4.7189 H         1 <0>         0.1500
     73 H28        -8.9324   -1.5611    4.7816 H         1 <0>         0.1140
     74 H29        -9.4449   -0.1396    6.7258 H         1 <0>         0.1333
     75 H30        -8.1942   -0.4296    8.8269 H         1 <0>         0.1338
     76 H31        -6.4316   -2.1419    8.9842 H         1 <0>         0.1360
     77 H32        -5.9249   -3.5691    7.0427 H         1 <0>         0.1339
     78 H33        -9.5763   -3.3873    3.5774 H         1 <0>         0.1132
     79 H34       -11.2424   -5.1935    3.4194 H         1 <0>         0.1335
     80 H35       -10.7010   -7.4447    4.2574 H         1 <0>         0.1340
     81 H36        -8.4932   -7.8899    5.2527 H         1 <0>         0.1360
     82 H37        -6.8241   -6.0858    5.4031 H         1 <0>         0.1335
     83 H38        -8.0402   -2.3085    3.2687 H         1 <0>         0.4102
@<TRIPOS>BOND
     1    1    2 1
     2    1   47 1
     3    1   48 1
     4    1   49 1
     5    2   12 1
     6    2    3 2
     7    3    4 1
     8    3   23 1
     9    4    5 1
    10    4    6 1
    11    4   14 1
    12    6    7 2
    13    6   11 1
    14    7    8 1
    15    7    9 1
    16    9   10 1
    17   10   50 1
    18   10   51 1
    19   10   52 1
    20   11   12 2
    21   11   13 1
    22   13   53 1
    23   13   54 1
    24   13   55 1
    25   14   19 ar
    26   14   15 ar
    27   15   16 ar
    28   15   56 1
    29   16   17 ar
    30   16   57 1
    31   17   18 ar
    32   17   58 1
    33   18   19 ar
    34   18   20 1
    35   19   59 1
    36   20   21 2
    37   20   22 1
    38   23   24 2
    39   23   25 1
    40   25   26 1
    41   26   27 1
    42   26   60 1
    43   26   61 1
    44   27   28 1
    45   27   62 1
    46   27   63 1
    47   28   33 1
    48   28   29 1
    49   29   30 1
    50   29   64 1
    51   29   65 1
    52   30   31 1
    53   30   66 1
    54   30   67 1
    55   31   32 1
    56   31   34 1
    57   31   83 1
    58   32   33 1
    59   32   68 1
    60   32   69 1
    61   33   70 1
    62   33   71 1
    63   34   35 1
    64   34   41 1
    65   34   72 1
    66   35   40 ar
    67   35   36 ar
    68   36   37 ar
    69   36   73 1
    70   37   38 ar
    71   37   74 1
    72   38   39 ar
    73   38   75 1
    74   39   40 ar
    75   39   76 1
    76   40   77 1
    77   41   46 ar
    78   41   42 ar
    79   42   43 ar
    80   42   78 1
    81   43   44 ar
    82   43   79 1
    83   44   45 ar
    84   44   80 1
    85   45   46 ar
    86   45   81 1
    87   46   82 1
@<TRIPOS>MOLECULE
ZINC19685795
   84    88     0     0     0
SMALL
USER_CHARGES

@<TRIPOS>ATOM
      1 C1         -2.1111    1.5580    0.4327 C.3       1 <0>        -0.1206
      2 C2         -1.3917    0.2535    0.2050 C.2       1 <0>         0.2416
      3 C3         -0.9444   -0.4507    1.2591 C.2       1 <0>        -0.2556
      4 C4         -0.2142   -1.7513    1.0792 C.3       1 <0>         0.0924
      5 H1         -0.5864   -2.4751    1.8042 H         1 <0>         0.0983
      6 C5         -0.4205   -2.2899   -0.3081 C.2       1 <0>        -0.2461
      7 C6         -0.8888   -1.5120   -1.2994 C.2       1 <0>         0.1995
      8 N1         -1.2067   -0.2023   -1.0717 N.pl3     1 <0>        -0.6258
      9 C7         -1.0712   -2.0926   -2.6780 C.3       1 <0>        -0.1341
     10 C8         -0.1151   -3.6442   -0.5769 C.2       1 <0>         0.5453
     11 O1          1.0393   -3.9828   -0.7603 O.2       1 <0>        -0.4670
     12 O2         -1.1038   -4.5611   -0.6302 O.3       1 <0>        -0.3679
     13 C9         -0.7230   -5.9105   -0.9063 C.3       1 <0>         0.0274
     14 C10        -1.9691   -6.7981   -0.9267 C.3       1 <0>        -0.0001
     15 N2         -2.8476   -6.3834   -2.0286 N.4       1 <0>        -0.3885
     16 C11        -4.1103   -7.1302   -1.9552 C.3       1 <0>        -0.0012
     17 C12        -5.0333   -6.6850   -3.0917 C.3       1 <0>         0.0245
     18 N3         -4.3723   -6.9319   -4.3810 N.3       1 <0>        -0.5291
     19 C13        -3.0943   -6.2102   -4.4591 C.3       1 <0>         0.0253
     20 C14        -2.1874   -6.6594   -3.3113 C.3       1 <0>        -0.0088
     21 C15        -5.2509   -6.5693   -5.5010 C.3       1 <0>         0.1800
     22 C16        -4.5407   -6.8357   -6.8033 C.ar      1 <0>        -0.0942
     23 C17        -3.7690   -7.9732   -6.9496 C.ar      1 <0>        -0.0967
     24 C18        -3.1176   -8.2175   -8.1441 C.ar      1 <0>        -0.1209
     25 C19        -3.2382   -7.3245   -9.1924 C.ar      1 <0>        -0.1092
     26 C20        -4.0106   -6.1875   -9.0463 C.ar      1 <0>        -0.1152
     27 C21        -4.6655   -5.9453   -7.8533 C.ar      1 <0>        -0.1097
     28 C22        -6.5109   -7.3936   -5.4383 C.ar      1 <0>        -0.0938
     29 C23        -6.4468   -8.7284   -5.0844 C.ar      1 <0>        -0.0952
     30 C24        -7.6025   -9.4845   -5.0268 C.ar      1 <0>        -0.1212
     31 C25        -8.8225   -8.9058   -5.3228 C.ar      1 <0>        -0.1092
     32 C26        -8.8868   -7.5708   -5.6758 C.ar      1 <0>        -0.1152
     33 C27        -7.7315   -6.8136   -5.7292 C.ar      1 <0>        -0.1099
     34 C28         1.2583   -1.5297    1.3106 C.ar      1 <0>        -0.0772
     35 C29         1.9551   -0.6339    0.5210 C.ar      1 <0>        -0.0510
     36 C30         3.3056   -0.4307    0.7332 C.ar      1 <0>        -0.1143
     37 C31         3.9597   -1.1229    1.7355 C.ar      1 <0>        -0.0522
     38 C32         3.2630   -2.0178    2.5255 C.ar      1 <0>        -0.0442
     39 C33         1.9111   -2.2179    2.3159 C.ar      1 <0>        -0.0376
     40 N4          3.9634   -2.7592    3.5981 N.pl3     1 <0>         0.0322
     41 O3          5.1449   -2.5821    3.7832 O.2       1 <0>        -0.1530
     42 O4          3.3540   -3.5420    4.2891 O.3       1 <0>        -0.1573
     43 C34        -1.1656    0.0436    2.5654 C.2       1 <0>         0.5153
     44 O5         -1.7552    1.0959    2.7261 O.2       1 <0>        -0.5114
     45 O6         -0.7228   -0.6517    3.6339 O.3       1 <0>        -0.3518
     46 C35        -0.9810   -0.0933    4.9237 C.3       1 <0>         0.0352
     47 H2         -2.4034    1.9840   -0.5271 H         1 <0>         0.0675
     48 H3         -3.0004    1.3817    1.0379 H         1 <0>         0.1086
     49 H4         -1.4500    2.2518    0.9519 H         1 <0>         0.1066
     50 H5         -1.2975    0.4080   -1.8202 H         1 <0>         0.4268
     51 H6         -2.0985   -2.4384   -2.7936 H         1 <0>         0.0916
     52 H7         -0.8590   -1.3280   -3.4253 H         1 <0>         0.0931
     53 H8         -0.3882   -2.9314   -2.8123 H         1 <0>         0.0824
     54 H9         -0.2278   -5.9571   -1.8762 H         1 <0>         0.0929
     55 H10        -0.0400   -6.2609   -0.1325 H         1 <0>         0.1176
     56 H11        -1.6727   -7.8372   -1.0698 H         1 <0>         0.1531
     57 H12        -2.5013   -6.6990    0.0193 H         1 <0>         0.1452
     58 H13        -3.9074   -8.1970   -2.0487 H         1 <0>         0.1405
     59 H14        -4.5929   -6.9348   -0.9976 H         1 <0>         0.1380
     60 H15        -5.9645   -7.2497   -3.0464 H         1 <0>         0.1287
     61 H16        -5.2474   -5.6210   -2.9907 H         1 <0>         0.0615
     62 H17        -2.6109   -6.4286   -5.4114 H         1 <0>         0.1289
     63 H18        -3.2765   -5.1384   -4.3806 H         1 <0>         0.0603
     64 H19        -1.2443   -6.1149   -3.3591 H         1 <0>         0.1321
     65 H20        -1.9943   -7.7286   -3.3979 H         1 <0>         0.1423
     66 H21        -5.5052   -5.5114   -5.4356 H         1 <0>         0.0667
     67 H22        -3.6748   -8.6709   -6.1306 H         1 <0>         0.1277
     68 H23        -2.5141   -9.1059   -8.2582 H         1 <0>         0.1249
     69 H24        -2.7286   -7.5150  -10.1254 H         1 <0>         0.1257
     70 H25        -4.1046   -5.4896   -9.8652 H         1 <0>         0.1262
     71 H26        -5.2720   -5.0588   -7.7404 H         1 <0>         0.1202
     72 H27        -5.4936   -9.1805   -4.8532 H         1 <0>         0.1274
     73 H28        -7.5523  -10.5275   -4.7510 H         1 <0>         0.1247
     74 H29        -9.7255   -9.4967   -5.2785 H         1 <0>         0.1256
     75 H30        -9.8399   -7.1188   -5.9073 H         1 <0>         0.1261
     76 H31        -7.7822   -5.7697   -6.0014 H         1 <0>         0.1199
     77 H32         1.4441   -0.0932   -0.2619 H         1 <0>         0.1290
     78 H33         3.8501    0.2686    0.1160 H         1 <0>         0.1482
     79 H34         5.0152   -0.9646    1.9009 H         1 <0>         0.1553
     80 H35         1.3659   -2.9144    2.9357 H         1 <0>         0.1503
     81 H36        -0.5736   -0.7502    5.6922 H         1 <0>         0.1038
     82 H37        -0.5098    0.8869    4.9963 H         1 <0>         0.0616
     83 H38        -2.0568    0.0093    5.0664 H         1 <0>         0.0627
     84 H39        -3.0370   -5.3951   -1.9538 H         1 <0>         0.4248
@<TRIPOS>BOND
     1    1    2 1
     2    1   47 1
     3    1   48 1
     4    1   49 1
     5    2    8 1
     6    2    3 2
     7    3    4 1
     8    3   43 1
     9    4    5 1
    10    4    6 1
    11    4   34 1
    12    6    7 2
    13    6   10 1
    14    7    8 1
    15    7    9 1
    16    8   50 1
    17    9   51 1
    18    9   52 1
    19    9   53 1
    20   10   11 2
    21   10   12 1
    22   12   13 1
    23   13   14 1
    24   13   54 1
    25   13   55 1
    26   14   15 1
    27   14   56 1
    28   14   57 1
    29   15   20 1
    30   15   16 1
    31   15   84 1
    32   16   17 1
    33   16   58 1
    34   16   59 1
    35   17   18 1
    36   17   60 1
    37   17   61 1
    38   18   19 1
    39   18   21 1
    40   19   20 1
    41   19   62 1
    42   19   63 1
    43   20   64 1
    44   20   65 1
    45   21   22 1
    46   21   28 1
    47   21   66 1
    48   22   27 ar
    49   22   23 ar
    50   23   24 ar
    51   23   67 1
    52   24   25 ar
    53   24   68 1
    54   25   26 ar
    55   25   69 1
    56   26   27 ar
    57   26   70 1
    58   27   71 1
    59   28   33 ar
    60   28   29 ar
    61   29   30 ar
    62   29   72 1
    63   30   31 ar
    64   30   73 1
    65   31   32 ar
    66   31   74 1
    67   32   33 ar
    68   32   75 1
    69   33   76 1
    70   34   39 ar
    71   34   35 ar
    72   35   36 ar
    73   35   77 1
    74   36   37 ar
    75   36   78 1
    76   37   38 ar
    77   37   79 1
    78   38   39 ar
    79   38   40 1
    80   39   80 1
    81   40   41 2
    82   40   42 1
    83   43   44 2
    84   43   45 1
    85   45   46 1
    86   46   81 1
    87   46   82 1
    88   46   83 1
@<TRIPOS>MOLECULE
ZINC03871085
   48    51     0     0     0
SMALL
USER_CHARGES

@<TRIPOS>ATOM
      1 C1         -2.4397   -1.9023    1.6561 C.3       1 <0>         0.1003
      2 N1         -1.2705   -1.6591    0.8076 N.am      1 <0>        -0.5975
      3 C2         -0.2555   -0.6866    1.2202 C.3       1 <0>         0.0798
      4 C3         -1.1285   -2.3302   -0.3526 C.2       1 <0>         0.6472
      5 O1         -2.0116   -3.0708   -0.7382 O.2       1 <0>        -0.5488
      6 O2         -0.0086   -2.1801   -1.0843 O.3       1 <0>        -0.2902
      7 C4          0.0531   -2.8023   -2.2926 C.2       1 <0>         0.2041
      8 C5          0.0991   -2.0381   -3.3995 C.2       1 <0>        -0.1184
      9 S1          0.2578   -2.7811   -4.9886 S.3       1 <0>         0.0258
     10 C6         -1.1843   -3.7829   -5.1376 C.ar      1 <0>        -0.1431
     11 C7         -2.0892   -3.5155   -6.1585 C.ar      1 <0>        -0.0545
     12 C8         -3.2207   -4.2957   -6.3041 C.ar      1 <0>        -0.1212
     13 C9         -3.4500   -5.3456   -5.4348 C.ar      1 <0>        -0.0770
     14 C10        -2.5557   -5.6120   -4.4160 C.ar      1 <0>        -0.1244
     15 C11        -1.4184   -4.8251   -4.2555 C.ar      1 <0>         0.1639
     16 N2         -0.5721   -5.1159   -3.1703 N.pl3     1 <0>        -0.3785
     17 C12         0.0718   -4.2645   -2.3163 C.2       1 <0>         0.0281
     18 C13         0.7867   -5.0218   -1.4165 C.2       1 <0>        -0.1442
     19 C14         0.5754   -6.3693   -1.7394 C.2       1 <0>        -0.1802
     20 C15        -0.2598   -6.4092   -2.8069 C.2       1 <0>         0.0045
     21 C16         0.0166   -0.5707   -3.2812 C.ar      1 <0>        -0.0787
     22 C17         0.8170    0.1043   -2.3549 C.ar      1 <0>        -0.0454
     23 C18         0.7366    1.4760   -2.2485 C.ar      1 <0>        -0.1546
     24 C19        -0.1377    2.1877   -3.0595 C.ar      1 <0>         0.1380
     25 C20        -0.9350    1.5217   -3.9813 C.ar      1 <0>        -0.2088
     26 C21        -0.8581    0.1507   -4.0990 C.ar      1 <0>        -0.0498
     27 O3         -0.2137    3.5401   -2.9505 O.3       1 <0>        -0.3154
     28 C22        -1.1337    4.2100   -3.8148 C.3       1 <0>         0.0255
     29 H1         -3.2106   -1.1649    1.4325 H         1 <0>         0.0607
     30 H2         -2.8270   -2.9027    1.4631 H         1 <0>         0.0820
     31 H3         -2.1515   -1.8202    2.7041 H         1 <0>         0.0793
     32 H4         -0.5399   -0.2484    2.1769 H         1 <0>         0.0838
     33 H5          0.7074   -1.1872    1.3217 H         1 <0>         0.0675
     34 H6         -0.1790    0.0995    0.4690 H         1 <0>         0.0668
     35 H7         -1.9079   -2.6965   -6.8388 H         1 <0>         0.1439
     36 H8         -3.9248   -4.0852   -7.0956 H         1 <0>         0.1391
     37 H9         -4.3310   -5.9592   -5.5521 H         1 <0>         0.1391
     38 H10        -2.7396   -6.4347   -3.7409 H         1 <0>         0.1373
     39 H11         1.3986   -4.6466   -0.6095 H         1 <0>         0.1452
     40 H12         0.9959   -7.2212   -1.2257 H         1 <0>         0.1499
     41 H13        -0.6141   -7.3039   -3.2973 H         1 <0>         0.1728
     42 H14         1.4970   -0.4483   -1.7235 H         1 <0>         0.1357
     43 H15         1.3543    1.9983   -1.5329 H         1 <0>         0.1356
     44 H16        -1.6136    2.0795   -4.6096 H         1 <0>         0.1321
     45 H17        -1.4755   -0.3658   -4.8190 H         1 <0>         0.1269
     46 H18        -1.0950    5.2827   -3.6254 H         1 <0>         0.1021
     47 H19        -0.8650    4.0145   -4.8530 H         1 <0>         0.0576
     48 H20        -2.1427    3.8437   -3.6255 H         1 <0>         0.0561
@<TRIPOS>BOND
     1    1    2 1
     2    1   29 1
     3    1   30 1
     4    1   31 1
     5    2    3 1
     6    2    4 am
     7    3   32 1
     8    3   33 1
     9    3   34 1
    10    4    5 2
    11    4    6 1
    12    6    7 1
    13    7   17 1
    14    7    8 2
    15    8    9 1
    16    8   21 1
    17    9   10 1
    18   10   15 ar
    19   10   11 ar
    20   11   12 ar
    21   11   35 1
    22   12   13 ar
    23   12   36 1
    24   13   14 ar
    25   13   37 1
    26   14   15 ar
    27   14   38 1
    28   15   16 1
    29   16   20 1
    30   16   17 1
    31   17   18 2
    32   18   19 1
    33   18   39 1
    34   19   20 2
    35   19   40 1
    36   20   41 1
    37   21   26 ar
    38   21   22 ar
    39   22   23 ar
    40   22   42 1
    41   23   24 ar
    42   23   43 1
    43   24   25 ar
    44   24   27 1
    45   25   26 ar
    46   25   44 1
    47   26   45 1
    48   27   28 1
    49   28   46 1
    50   28   47 1
    51   28   48 1
@<TRIPOS>MOLECULE
ZINC03871084
   43    46     0     0     0
SMALL
USER_CHARGES
[(4-methoxyphenyl)BLAHyl] acetate
@<TRIPOS>ATOM
      1 C1         -3.5658    3.7731    5.3163 C.3       1 <0>        -0.1435
      2 C2         -3.2115    3.5195    3.8736 C.2       1 <0>         0.4560
      3 O1         -2.1695    3.9435    3.4219 O.2       1 <0>        -0.4909
      4 O2         -4.0493    2.8246    3.0892 O.3       1 <0>        -0.2794
      5 C3         -3.7227    2.7248    1.7726 C.2       1 <0>         0.1789
      6 C4         -3.4146    1.5080    1.2842 C.2       1 <0>        -0.1148
      7 S1         -3.0561    1.3014   -0.4279 S.3       1 <0>         0.0226
      8 C5         -1.6416    2.3180   -0.6929 C.ar      1 <0>        -0.1422
      9 C6         -0.4603    1.7286   -1.1298 C.ar      1 <0>        -0.0547
     10 C7          0.6525    2.5088   -1.3805 C.ar      1 <0>        -0.1206
     11 C8          0.5923    3.8765   -1.1908 C.ar      1 <0>        -0.0769
     12 C9         -0.5754    4.4649   -0.7441 C.ar      1 <0>        -0.1247
     13 C10        -1.6987    3.6855   -0.4817 C.ar      1 <0>         0.1621
     14 N1         -2.8456    4.3372    0.0077 N.pl3     1 <0>        -0.3799
     15 C11        -3.7261    3.9446    0.9658 C.2       1 <0>         0.0287
     16 C12        -4.6857    4.9236    1.0886 C.2       1 <0>        -0.1522
     17 C13        -4.3781    5.9324    0.1653 C.2       1 <0>        -0.1765
     18 C14        -3.2613    5.5611   -0.4894 C.2       1 <0>         0.0025
     19 C15        -3.3778    0.3430    2.1872 C.ar      1 <0>        -0.0817
     20 C16        -2.2927   -0.5378    2.1516 C.ar      1 <0>        -0.0500
     21 C17        -2.2604   -1.6223    3.0013 C.ar      1 <0>        -0.2093
     22 C18        -3.3084   -1.8469    3.8845 C.ar      1 <0>         0.1382
     23 C19        -4.3913   -0.9779    3.9197 C.ar      1 <0>        -0.1538
     24 C20        -4.4304    0.1124    3.0777 C.ar      1 <0>        -0.0447
     25 O3         -3.2744   -2.9206    4.7168 O.3       1 <0>        -0.3151
     26 C21        -2.1315   -3.7738    4.6287 C.3       1 <0>         0.0253
     27 H1         -3.2540    2.9221    5.9219 H         1 <0>         0.1083
     28 H2         -3.0561    4.6720    5.6630 H         1 <0>         0.1072
     29 H3         -4.6435    3.9084    5.4073 H         1 <0>         0.1004
     30 H4         -0.4138    0.6598   -1.2777 H         1 <0>         0.1440
     31 H5          1.5679    2.0504   -1.7246 H         1 <0>         0.1394
     32 H6          1.4600    4.4870   -1.3926 H         1 <0>         0.1395
     33 H7         -0.6167    5.5341   -0.5974 H         1 <0>         0.1374
     34 H8         -5.5226    4.9158    1.7711 H         1 <0>         0.1477
     35 H9         -4.9360    6.8437    0.0078 H         1 <0>         0.1509
     36 H10        -2.7701    6.1268   -1.2673 H         1 <0>         0.1733
     37 H11        -1.4793   -0.3663    1.4622 H         1 <0>         0.1267
     38 H12        -1.4205   -2.3008    2.9776 H         1 <0>         0.1323
     39 H13        -5.2042   -1.1571    4.6077 H         1 <0>         0.1363
     40 H14        -5.2731    0.7873    3.1055 H         1 <0>         0.1373
     41 H15        -2.0597   -4.1822    3.6206 H         1 <0>         0.0575
     42 H16        -1.2320   -3.2005    4.8533 H         1 <0>         0.0563
     43 H17        -2.2308   -4.5894    5.3449 H         1 <0>         0.1023
@<TRIPOS>BOND
     1    1    2 1
     2    1   27 1
     3    1   28 1
     4    1   29 1
     5    2    3 2
     6    2    4 1
     7    4    5 1
     8    5   15 1
     9    5    6 2
    10    6    7 1
    11    6   19 1
    12    7    8 1
    13    8   13 ar
    14    8    9 ar
    15    9   10 ar
    16    9   30 1
    17   10   11 ar
    18   10   31 1
    19   11   12 ar
    20   11   32 1
    21   12   13 ar
    22   12   33 1
    23   13   14 1
    24   14   18 1
    25   14   15 1
    26   15   16 2
    27   16   17 1
    28   16   34 1
    29   17   18 2
    30   17   35 1
    31   18   36 1
    32   19   24 ar
    33   19   20 ar
    34   20   21 ar
    35   20   37 1
    36   21   22 ar
    37   21   38 1
    38   22   23 ar
    39   22   25 1
    40   23   24 ar
    41   23   39 1
    42   24   40 1
    43   25   26 1
    44   26   41 1
    45   26   42 1
    46   26   43 1
@<TRIPOS>MOLECULE
ZINC25514953
   53    55     0     0     0
SMALL
USER_CHARGES

@<TRIPOS>ATOM
      1 C1          0.5766    2.0906   -1.1441 C.3       1 <0>        -0.1025
      2 C2          0.6816    0.5908   -1.0416 C.2       1 <0>         0.1417
      3 C3          0.5286   -0.3096   -2.1116 C.2       1 <0>         0.0790
      4 N1          0.6817   -1.5273   -1.6772 N.pl3     1 <0>        -0.0054
      5 O1          0.6015   -2.7100   -2.4517 O.3       1 <0>        -0.3887
      6 O2          0.9436   -1.4509   -0.2849 O.3       1 <0>         0.0452
      7 N2          0.9332   -0.0719    0.0487 N.2       1 <0>        -0.2519
      8 C4          0.2331    0.0755   -3.5383 C.3       1 <0>         0.1251
      9 O3         -1.1814    0.1209   -3.7362 O.3       1 <0>        -0.2838
     10 C5         -1.6202    0.4551   -4.9783 C.ar      1 <0>         0.1485
     11 C6         -0.7079    0.7280   -5.9875 C.ar      1 <0>        -0.2169
     12 C7         -1.1564    1.0669   -7.2491 C.ar      1 <0>        -0.0998
     13 C8         -2.5134    1.1343   -7.5069 C.ar      1 <0>        -0.1582
     14 C9         -3.4243    0.8633   -6.5029 C.ar      1 <0>        -0.0694
     15 C10        -2.9808    0.5183   -5.2407 C.ar      1 <0>        -0.0575
     16 C11        -3.9743    0.2169   -4.1485 C.3       1 <0>         0.1158
     17 H1         -3.4185   -0.0251   -3.2426 H         1 <0>         0.0507
     18 C12        -4.7859    1.4727   -3.8857 C.2       1 <0>        -0.3786
     19 C13        -6.1605    1.3856   -4.0390 C.2       1 <0>         0.3055
     20 N3         -6.7551    0.2646   -4.3976 N.2       1 <0>        -0.6459
     21 C14        -6.1448   -0.8770   -4.6485 C.2       1 <0>         0.2996
     22 C15        -4.7716   -1.0086   -4.5574 C.2       1 <0>        -0.3712
     23 C16        -4.1465   -2.2206   -4.8283 C.2       1 <0>         0.4820
     24 O4         -4.8723   -3.2795   -5.1851 O.3       1 <0>        -0.6310
     25 O5         -2.8058   -2.3244   -4.7299 O.3       1 <0>        -0.3233
     26 C17        -2.2307   -3.5994   -5.0226 C.3       1 <0>         0.0458
     27 C18        -6.9695   -2.0732   -5.0485 C.3       1 <0>        -0.0924
     28 C19        -7.0021    2.6102   -3.7876 C.3       1 <0>        -0.1133
     29 C20        -4.1746    2.6624   -3.5061 C.2       1 <0>         0.4843
     30 O6         -4.8940    3.7798   -3.4094 O.2       1 <0>        -0.6306
     31 O7         -2.8539    2.6853   -3.2357 O.3       1 <0>        -0.3289
     32 C21        -2.2921    3.9419   -2.8516 C.3       1 <0>         0.0387
     33 H2          1.5582    2.5092   -1.3662 H         1 <0>         0.1088
     34 H3         -0.1189    2.3525   -1.9415 H         1 <0>         0.1107
     35 H4          0.2145    2.4949   -0.1989 H         1 <0>         0.1029
     36 H5          0.6607    1.0564   -3.7459 H         1 <0>         0.1026
     37 H6          0.6707   -0.6615   -4.2116 H         1 <0>         0.0979
     38 H7          0.3520    0.6758   -5.7866 H         1 <0>         0.1175
     39 H8         -0.4467    1.2797   -8.0349 H         1 <0>         0.1145
     40 H9         -2.8621    1.3995   -8.4940 H         1 <0>         0.1135
     41 H10        -4.4836    0.9170   -6.7066 H         1 <0>         0.1185
     42 H11        -1.1483   -3.5452   -4.9056 H         1 <0>         0.0867
     43 H12        -2.6333   -4.3455   -4.3376 H         1 <0>         0.0491
     44 H13        -2.4717   -3.8799   -6.0479 H         1 <0>         0.0475
     45 H14        -8.0235   -1.7963   -5.0725 H         1 <0>         0.0492
     46 H15        -6.6606   -2.4134   -6.0369 H         1 <0>         0.0800
     47 H16        -6.8210   -2.8752   -4.3254 H         1 <0>         0.0795
     48 H17        -7.0246    3.2265   -4.6863 H         1 <0>         0.0713
     49 H18        -8.0168    2.3070   -3.5294 H         1 <0>         0.0491
     50 H19        -6.5737    3.1829   -2.9650 H         1 <0>         0.1040
     51 H20        -1.2254    3.8206   -2.6634 H         1 <0>         0.0813
     52 H21        -2.4397    4.6660   -3.6528 H         1 <0>         0.0515
     53 H22        -2.7828    4.2974   -1.9455 H         1 <0>         0.0512
@<TRIPOS>BOND
     1    1    2 1
     2    1   33 1
     3    1   34 1
     4    1   35 1
     5    2    7 2
     6    2    3 1
     7    3    4 2
     8    3    8 1
     9    4    5 1
    10    4    6 1
    11    6    7 1
    12    8    9 1
    13    8   36 1
    14    8   37 1
    15    9   10 1
    16   10   15 ar
    17   10   11 ar
    18   11   12 ar
    19   11   38 1
    20   12   13 ar
    21   12   39 1
    22   13   14 ar
    23   13   40 1
    24   14   15 ar
    25   14   41 1
    26   15   16 1
    27   16   17 1
    28   16   22 1
    29   16   18 1
    30   18   19 2
    31   18   29 1
    32   19   20 1
    33   19   28 1
    34   20   21 2
    35   21   22 1
    36   21   27 1
    37   22   23 2
    38   23   24 1
    39   23   25 1
    40   25   26 1
    41   26   42 1
    42   26   43 1
    43   26   44 1
    44   27   45 1
    45   27   46 1
    46   27   47 1
    47   28   48 1
    48   28   49 1
    49   28   50 1
    50   29   30 2
    51   29   31 1
    52   31   32 1
    53   32   51 1
    54   32   52 1
    55   32   53 1
@<TRIPOS>MOLECULE
ZINC26384924
   85    89     0     0     0
SMALL
USER_CHARGES

@<TRIPOS>ATOM
      1 C1          0.0666    1.2900    1.6655 C.3       1 <0>        -0.1206
      2 C2         -0.0872   -0.0355    0.9652 C.2       1 <0>         0.2446
      3 C3         -0.0091   -0.0909   -0.3756 C.2       1 <0>        -0.2601
      4 C4         -0.1654   -1.3886   -1.1164 C.3       1 <0>         0.0893
      5 H1          0.5943   -1.4509   -1.8955 H         1 <0>         0.1006
      6 C5         -0.0133   -2.5558   -0.1827 C.2       1 <0>        -0.2453
      7 C6         -0.0912   -2.4017    1.1504 C.2       1 <0>         0.2009
      8 N1         -0.2990   -1.1686    1.7023 N.pl3     1 <0>        -0.6273
      9 C7          0.0583   -3.6026    2.0484 C.3       1 <0>        -0.1359
     10 C8          0.2163   -3.8445   -0.7179 C.2       1 <0>         0.5431
     11 O1          1.3363   -4.1675   -1.0672 O.2       1 <0>        -0.4830
     12 O2         -0.8066   -4.7160   -0.8412 O.3       1 <0>        -0.3473
     13 C9         -0.5024   -6.0000   -1.3897 C.3       1 <0>         0.0639
     14 C10        -1.7775   -6.8434   -1.4513 C.3       1 <0>        -0.1496
     15 C11        -1.4518   -8.2181   -2.0385 C.3       1 <0>        -0.0073
     16 N2         -2.6761   -9.0279   -2.0976 N.4       1 <0>        -0.3785
     17 C12        -3.1586   -9.2828   -0.7350 C.3       1 <0>        -0.0130
     18 C13        -4.4773  -10.0567   -0.7933 C.3       1 <0>        -0.1374
     19 C14        -4.2496  -11.3889   -1.5135 C.3       1 <0>         0.0258
     20 C15        -3.6764  -11.1134   -2.9065 C.3       1 <0>        -0.1366
     21 C16        -2.3873  -10.3003   -2.7700 C.3       1 <0>        -0.0200
     22 C17        -5.5600  -12.1218   -1.6436 C.ar      1 <0>        -0.0857
     23 C18        -6.7311  -11.5252   -1.2152 C.ar      1 <0>        -0.1211
     24 C19        -7.9331  -12.1975   -1.3346 C.ar      1 <0>        -0.1133
     25 C20        -7.9640  -13.4661   -1.8829 C.ar      1 <0>        -0.1092
     26 C21        -6.7930  -14.0622   -2.3122 C.ar      1 <0>        -0.1120
     27 C22        -5.5916  -13.3883   -2.1967 C.ar      1 <0>        -0.1043
     28 C23        -3.2772  -12.2281   -0.7253 C.ar      1 <0>        -0.0893
     29 C24        -3.4932  -12.4552    0.6210 C.ar      1 <0>        -0.1072
     30 C25        -2.6013  -13.2250    1.3440 C.ar      1 <0>        -0.1073
     31 C26        -1.4934  -13.7680    0.7205 C.ar      1 <0>        -0.1103
     32 C27        -1.2779  -13.5417   -0.6260 C.ar      1 <0>        -0.1102
     33 C28        -2.1722  -12.7755   -1.3500 C.ar      1 <0>        -0.1382
     34 C29        -1.5316   -1.4365   -1.7507 C.ar      1 <0>        -0.0727
     35 C30        -2.6636   -1.3545   -0.9612 C.ar      1 <0>        -0.0491
     36 C31        -3.9165   -1.3984   -1.5429 C.ar      1 <0>        -0.1161
     37 C32        -4.0379   -1.5238   -2.9144 C.ar      1 <0>        -0.0569
     38 C33        -2.9062   -1.6049   -3.7038 C.ar      1 <0>        -0.0469
     39 C34        -1.6528   -1.5567   -3.1222 C.ar      1 <0>        -0.0401
     40 N3         -3.0362   -1.7397   -5.1721 N.pl3     1 <0>         0.0318
     41 O3         -4.1322   -1.7789   -5.6809 O.2       1 <0>        -0.1574
     42 O4         -2.0463   -1.8106   -5.8625 O.3       1 <0>        -0.1552
     43 C35         0.2247    1.0980   -1.1047 C.2       1 <0>         0.5164
     44 O5          0.3529    2.1563   -0.5179 O.2       1 <0>        -0.5131
     45 O6          0.3057    1.0589   -2.4512 O.3       1 <0>        -0.3525
     46 C36         0.5436    2.2974   -3.1231 C.3       1 <0>         0.0355
     47 H2         -0.0198    1.1443    2.7423 H         1 <0>         0.0675
     48 H3          1.0442    1.7124    1.4333 H         1 <0>         0.1088
     49 H4         -0.7136    1.9722    1.3275 H         1 <0>         0.1054
     50 H5         -0.6023   -1.0974    2.6209 H         1 <0>         0.4266
     51 H6          1.1049   -3.7172    2.3307 H         1 <0>         0.0970
     52 H7         -0.5466   -3.4638    2.9445 H         1 <0>         0.0895
     53 H8         -0.2752   -4.4955    1.5197 H         1 <0>         0.0863
     54 H9         -0.0978   -5.8792   -2.3946 H         1 <0>         0.0800
     55 H10         0.2334   -6.4993   -0.7593 H         1 <0>         0.0797
     56 H11        -2.1821   -6.9641   -0.4464 H         1 <0>         0.0993
     57 H12        -2.5133   -6.3440   -2.0816 H         1 <0>         0.0989
     58 H13        -1.0472   -8.0973   -3.0434 H         1 <0>         0.1372
     59 H14        -0.7160   -8.7174   -1.4082 H         1 <0>         0.1348
     60 H15        -2.4176   -9.8688   -0.1914 H         1 <0>         0.1320
     61 H16        -3.3171   -8.3338   -0.2227 H         1 <0>         0.1342
     62 H17        -4.8330  -10.2466    0.2194 H         1 <0>         0.1178
     63 H18        -5.2192   -9.4714   -1.3365 H         1 <0>         0.0982
     64 H19        -3.4596  -12.0585   -3.4044 H         1 <0>         0.1182
     65 H20        -4.4016  -10.5500   -3.4937 H         1 <0>         0.0977
     66 H21        -1.9764  -10.1025   -3.7600 H         1 <0>         0.1352
     67 H22        -1.6628  -10.8646   -2.1830 H         1 <0>         0.1398
     68 H23        -6.7069  -10.5341   -0.7868 H         1 <0>         0.1240
     69 H24        -8.8479  -11.7317   -0.9992 H         1 <0>         0.1269
     70 H25        -8.9030  -13.9916   -1.9755 H         1 <0>         0.1273
     71 H26        -6.8171  -15.0535   -2.7402 H         1 <0>         0.1268
     72 H27        -4.6773  -13.8526   -2.5355 H         1 <0>         0.1204
     73 H28        -4.3588  -12.0309    1.1082 H         1 <0>         0.1235
     74 H29        -2.7697  -13.4018    2.3960 H         1 <0>         0.1281
     75 H30        -0.7962  -14.3688    1.2855 H         1 <0>         0.1281
     76 H31        -0.4122  -13.9657   -1.1131 H         1 <0>         0.1280
     77 H32        -2.0058  -12.6017   -2.4028 H         1 <0>         0.1265
     78 H33        -2.5688   -1.2565    0.1102 H         1 <0>         0.1325
     79 H34        -4.8008   -1.3351   -0.9261 H         1 <0>         0.1472
     80 H35        -5.0170   -1.5588   -3.3689 H         1 <0>         0.1531
     81 H36        -0.7685   -1.6163   -3.7394 H         1 <0>         0.1525
     82 H37         0.5861    2.1251   -4.1985 H         1 <0>         0.1027
     83 H38        -0.2644    2.9937   -2.8984 H         1 <0>         0.0604
     84 H39         1.4905    2.7183   -2.7848 H         1 <0>         0.0631
     85 H40        -3.3839   -8.5283   -2.6149 H         1 <0>         0.4228
@<TRIPOS>BOND
     1    1    2 1
     2    1   47 1
     3    1   48 1
     4    1   49 1
     5    2    8 1
     6    2    3 2
     7    3    4 1
     8    3   43 1
     9    4    5 1
    10    4    6 1
    11    4   34 1
    12    6    7 2
    13    6   10 1
    14    7    8 1
    15    7    9 1
    16    8   50 1
    17    9   51 1
    18    9   52 1
    19    9   53 1
    20   10   11 2
    21   10   12 1
    22   12   13 1
    23   13   14 1
    24   13   54 1
    25   13   55 1
    26   14   15 1
    27   14   56 1
    28   14   57 1
    29   15   16 1
    30   15   58 1
    31   15   59 1
    32   16   21 1
    33   16   17 1
    34   16   85 1
    35   17   18 1
    36   17   60 1
    37   17   61 1
    38   18   19 1
    39   18   62 1
    40   18   63 1
    41   19   20 1
    42   19   22 1
    43   19   28 1
    44   20   21 1
    45   20   64 1
    46   20   65 1
    47   21   66 1
    48   21   67 1
    49   22   27 ar
    50   22   23 ar
    51   23   24 ar
    52   23   68 1
    53   24   25 ar
    54   24   69 1
    55   25   26 ar
    56   25   70 1
    57   26   27 ar
    58   26   71 1
    59   27   72 1
    60   28   33 ar
    61   28   29 ar
    62   29   30 ar
    63   29   73 1
    64   30   31 ar
    65   30   74 1
    66   31   32 ar
    67   31   75 1
    68   32   33 ar
    69   32   76 1
    70   33   77 1
    71   34   39 ar
    72   34   35 ar
    73   35   36 ar
    74   35   78 1
    75   36   37 ar
    76   36   79 1
    77   37   38 ar
    78   37   80 1
    79   38   39 ar
    80   38   40 1
    81   39   81 1
    82   40   41 2
    83   40   42 1
    84   43   44 2
    85   43   45 1
    86   45   46 1
    87   46   82 1
    88   46   83 1
    89   46   84 1
@<TRIPOS>MOLECULE
ZINC26384924
   84    88     0     0     0
SMALL
USER_CHARGES

@<TRIPOS>ATOM
      1 C1         -0.0200    1.0054    0.4352 C.3       1 <0>        -0.0999
      2 C2          0.0723   -0.4971    0.3643 C.2       1 <0>         0.2940
      3 C3         -1.0808   -1.2232    0.2772 C.2       1 <0>        -0.3885
      4 C4         -0.9556   -2.7342    0.2068 C.3       1 <0>         0.1312
      5 H1         -1.5071   -3.1610    1.0445 H         1 <0>         0.0481
      6 C5          0.4597   -3.2835    0.2413 C.2       1 <0>        -0.3941
      7 C6          0.7070   -4.6375    0.1837 C.2       1 <0>         0.4746
      8 O1         -0.3179   -5.5118    0.2197 O.3       1 <0>        -0.6405
      9 O2          1.9738   -5.0878    0.0914 O.3       1 <0>        -0.3324
     10 C7          2.1565   -6.5039    0.0359 C.3       1 <0>         0.0371
     11 C8          1.4992   -2.3562    0.3335 C.2       1 <0>         0.2992
     12 N1          1.2690   -1.0640    0.3833 N.2       1 <0>        -0.6403
     13 C9          2.9224   -2.8503    0.3712 C.3       1 <0>        -0.1087
     14 C10        -1.6070   -3.2017   -1.0692 C.ar      1 <0>        -0.0283
     15 C11        -1.1348   -2.7561   -2.2899 C.ar      1 <0>        -0.0550
     16 C12        -1.7322   -3.1848   -3.4602 C.ar      1 <0>        -0.1264
     17 C13        -2.8017   -4.0597   -3.4102 C.ar      1 <0>        -0.0789
     18 C14        -3.2731   -4.5058   -2.1899 C.ar      1 <0>        -0.0612
     19 C15        -2.6727   -4.0803   -1.0194 C.ar      1 <0>        -0.0141
     20 N2         -4.4184   -5.4420   -2.1364 N.pl3     1 <0>         0.0450
     21 O3         -4.9415   -5.8164   -3.1600 O.2       1 <0>        -0.1820
     22 O4         -4.8307   -5.8322   -1.0690 O.3       1 <0>        -0.1749
     23 C16        -2.3379   -0.5943    0.2541 C.2       1 <0>         0.5279
     24 O5         -2.4126    0.6199    0.3122 O.2       1 <0>        -0.5544
     25 O6         -3.4630   -1.3367    0.1674 O.3       1 <0>        -0.3569
     26 C17        -4.7057   -0.6316    0.1487 C.3       1 <0>         0.0758
     27 C18        -5.8585   -1.6325    0.0478 C.3       1 <0>        -0.1509
     28 C19        -7.1891   -0.8775    0.0278 C.3       1 <0>        -0.0042
     29 N3         -8.2960   -1.8385   -0.0691 N.4       1 <0>        -0.3789
     30 C20        -8.3289   -2.6683    1.1411 C.3       1 <0>        -0.0141
     31 C21        -9.4286   -3.7243    1.0104 C.3       1 <0>        -0.1379
     32 C22       -10.7800   -3.0265    0.8311 C.3       1 <0>         0.0240
     33 C23       -10.7102   -2.1067   -0.3913 C.3       1 <0>        -0.1356
     34 C24        -9.5630   -1.1107   -0.2086 C.3       1 <0>        -0.0189
     35 C25       -11.0924   -2.2103    2.0588 C.ar      1 <0>        -0.0856
     36 C26       -11.4521   -0.8815    1.9322 C.ar      1 <0>        -0.1377
     37 C27       -11.7387   -0.1328    3.0583 C.ar      1 <0>        -0.1116
     38 C28       -11.6661   -0.7129    4.3110 C.ar      1 <0>        -0.1124
     39 C29       -11.3073   -2.0419    4.4374 C.ar      1 <0>        -0.1075
     40 C30       -11.0249   -2.7918    3.3110 C.ar      1 <0>        -0.1060
     41 C31       -11.8570   -4.0598    0.6234 C.ar      1 <0>        -0.0825
     42 C32       -11.5218   -5.3973    0.5240 C.ar      1 <0>        -0.1182
     43 C33       -12.5098   -6.3451    0.3336 C.ar      1 <0>        -0.1128
     44 C34       -13.8331   -5.9556    0.2429 C.ar      1 <0>        -0.1117
     45 C35       -14.1684   -4.6183    0.3433 C.ar      1 <0>        -0.1152
     46 C36       -13.1808   -3.6709    0.5380 C.ar      1 <0>        -0.1050
     47 H2          0.9826    1.4286    0.4957 H         1 <0>         0.0588
     48 H3         -0.5198    1.3812   -0.4576 H         1 <0>         0.0772
     49 H4         -0.5897    1.2931    1.3188 H         1 <0>         0.0776
     50 H5          1.6395   -6.9030   -0.8368 H         1 <0>         0.0512
     51 H6          3.2202   -6.7304   -0.0369 H         1 <0>         0.0891
     52 H7          1.7492   -6.9586    0.9389 H         1 <0>         0.0536
     53 H8          3.1625   -3.3389   -0.5731 H         1 <0>         0.0811
     54 H9          3.5958   -2.0072    0.5255 H         1 <0>         0.0671
     55 H10         3.0383   -3.5623    1.1884 H         1 <0>         0.0803
     56 H11        -0.2994   -2.0727   -2.3289 H         1 <0>         0.1309
     57 H12        -1.3639   -2.8362   -4.4137 H         1 <0>         0.1375
     58 H13        -3.2689   -4.3941   -4.3246 H         1 <0>         0.1410
     59 H14        -3.0387   -4.4318   -0.0661 H         1 <0>         0.1412
     60 H15        -4.8079   -0.0510    1.0656 H         1 <0>         0.0683
     61 H16        -4.7303    0.0388   -0.7104 H         1 <0>         0.0661
     62 H17        -5.7564   -2.2130   -0.8691 H         1 <0>         0.0910
     63 H18        -5.8340   -2.3028    0.9069 H         1 <0>         0.0989
     64 H19        -7.2913   -0.2969    0.9447 H         1 <0>         0.1330
     65 H20        -7.2137   -0.2072   -0.8313 H         1 <0>         0.1336
     66 H21        -7.3654   -3.1618    1.2691 H         1 <0>         0.1391
     67 H22        -8.5315   -2.0387    2.0075 H         1 <0>         0.1306
     68 H23        -9.2268   -4.3547    0.1444 H         1 <0>         0.1004
     69 H24        -9.4526   -4.3382    1.9107 H         1 <0>         0.1179
     70 H25       -10.5350   -2.7036   -1.2864 H         1 <0>         0.0974
     71 H26       -11.6503   -1.5645   -0.4929 H         1 <0>         0.1156
     72 H27        -9.7394   -0.5143    0.6865 H         1 <0>         0.1379
     73 H28        -9.5107   -0.4542   -1.0771 H         1 <0>         0.1327
     74 H29       -11.5088   -0.4283    0.9536 H         1 <0>         0.1263
     75 H30       -12.0190    0.9055    2.9595 H         1 <0>         0.1264
     76 H31       -11.8893   -0.1278    5.1908 H         1 <0>         0.1265
     77 H32       -11.2503   -2.4950    5.4161 H         1 <0>         0.1274
     78 H33       -10.7482   -3.8311    3.4096 H         1 <0>         0.1246
     79 H34       -10.4880   -5.7015    0.5948 H         1 <0>         0.1277
     80 H35       -12.2479   -7.3899    0.2552 H         1 <0>         0.1271
     81 H36       -14.6049   -6.6961    0.0934 H         1 <0>         0.1252
     82 H37       -15.2022   -4.3140    0.2721 H         1 <0>         0.1244
     83 H38       -13.4431   -2.6264    0.6201 H         1 <0>         0.1195
     84 H39        -8.1578   -2.4288   -0.8756 H         1 <0>         0.4228
@<TRIPOS>BOND
     1    1    2 1
     2    1   47 1
     3    1   48 1
     4    1   49 1
     5    2   12 1
     6    2    3 2
     7    3    4 1
     8    3   23 1
     9    4    5 1
    10    4    6 1
    11    4   14 1
    12    6    7 2
    13    6   11 1
    14    7    8 1
    15    7    9 1
    16    9   10 1
    17   10   50 1
    18   10   51 1
    19   10   52 1
    20   11   12 2
    21   11   13 1
    22   13   53 1
    23   13   54 1
    24   13   55 1
    25   14   19 ar
    26   14   15 ar
    27   15   16 ar
    28   15   56 1
    29   16   17 ar
    30   16   57 1
    31   17   18 ar
    32   17   58 1
    33   18   19 ar
    34   18   20 1
    35   19   59 1
    36   20   21 2
    37   20   22 1
    38   23   24 2
    39   23   25 1
    40   25   26 1
    41   26   27 1
    42   26   60 1
    43   26   61 1
    44   27   28 1
    45   27   62 1
    46   27   63 1
    47   28   29 1
    48   28   64 1
    49   28   65 1
    50   29   34 1
    51   29   30 1
    52   29   84 1
    53   30   31 1
    54   30   66 1
    55   30   67 1
    56   31   32 1
    57   31   68 1
    58   31   69 1
    59   32   33 1
    60   32   35 1
    61   32   41 1
    62   33   34 1
    63   33   70 1
    64   33   71 1
    65   34   72 1
    66   34   73 1
    67   35   40 ar
    68   35   36 ar
    69   36   37 ar
    70   36   74 1
    71   37   38 ar
    72   37   75 1
    73   38   39 ar
    74   38   76 1
    75   39   40 ar
    76   39   77 1
    77   40   78 1
    78   41   46 ar
    79   41   42 ar
    80   42   43 ar
    81   42   79 1
    82   43   44 ar
    83   43   80 1
    84   44   45 ar
    85   44   81 1
    86   45   46 ar
    87   45   82 1
    88   46   83 1
@<TRIPOS>MOLECULE
ZINC26384919
   85    89     0     0     0
SMALL
USER_CHARGES

@<TRIPOS>ATOM
      1 C1          0.5619    1.1913   -1.4119 C.3       1 <0>        -0.1207
      2 C2          0.1555   -0.0775   -0.7076 C.2       1 <0>         0.2445
      3 C3          0.2932   -0.1696    0.6264 C.2       1 <0>        -0.2596
      4 C4         -0.1064   -1.4117    1.3712 C.3       1 <0>         0.0892
      5 H1          0.6627   -1.6533    2.1048 H         1 <0>         0.1017
      6 C5         -0.2703   -2.5687    0.4269 C.2       1 <0>        -0.2446
      7 C6         -0.3854   -2.3803   -0.8991 C.2       1 <0>         0.2020
      8 N1         -0.3544   -1.1195   -1.4331 N.pl3     1 <0>        -0.6292
      9 C7         -0.5564   -3.5702   -1.8078 C.3       1 <0>        -0.1340
     10 C8         -0.3038   -3.8844    0.9442 C.2       1 <0>         0.5420
     11 O1          0.7206   -4.4091    1.3393 O.2       1 <0>        -0.4840
     12 O2         -1.4718   -4.5582    0.9996 O.3       1 <0>        -0.3471
     13 C9         -1.4318   -5.8829    1.5338 C.3       1 <0>         0.0643
     14 C10        -2.8393   -6.4826    1.5161 C.3       1 <0>        -0.1492
     15 C11        -2.7965   -7.9010    2.0881 C.3       1 <0>        -0.0075
     16 N2         -4.1478   -8.4768    2.0712 N.4       1 <0>        -0.3776
     17 C12        -5.0157   -7.7111    2.9739 C.3       1 <0>        -0.0137
     18 C13        -6.4436   -8.2559    2.8988 C.3       1 <0>        -0.1369
     19 C14        -6.4445   -9.7295    3.3154 C.3       1 <0>         0.0259
     20 C15        -5.4792  -10.5051    2.4144 C.3       1 <0>        -0.1360
     21 C16        -4.0870   -9.8770    2.5075 C.3       1 <0>        -0.0201
     22 C17        -7.8341  -10.2938    3.1689 C.ar      1 <0>        -0.0850
     23 C18        -8.8551   -9.4991    2.6822 C.ar      1 <0>        -0.1210
     24 C19       -10.1298  -10.0167    2.5478 C.ar      1 <0>        -0.1133
     25 C20       -10.3835  -11.3292    2.8997 C.ar      1 <0>        -0.1094
     26 C21        -9.3623  -12.1242    3.3856 C.ar      1 <0>        -0.1120
     27 C22        -8.0867  -11.6079    3.5160 C.ar      1 <0>        -0.1046
     28 C23        -5.9995   -9.8478    4.7504 C.ar      1 <0>        -0.0905
     29 C24        -6.6101   -9.0851    5.7284 C.ar      1 <0>        -0.1071
     30 C25        -6.2019   -9.1936    7.0446 C.ar      1 <0>        -0.1062
     31 C26        -5.1835  -10.0650    7.3829 C.ar      1 <0>        -0.1095
     32 C27        -4.5736  -10.8283    6.4051 C.ar      1 <0>        -0.1103
     33 C28        -4.9847  -10.7230    5.0894 C.ar      1 <0>        -0.1387
     34 C29        -1.4114   -1.1650    2.0834 C.ar      1 <0>        -0.0735
     35 C30        -2.5416   -0.8323    1.3600 C.ar      1 <0>        -0.0498
     36 C31        -3.7384   -0.6060    2.0133 C.ar      1 <0>        -0.1162
     37 C32        -3.8055   -0.7127    3.3901 C.ar      1 <0>        -0.0571
     38 C33        -2.6757   -1.0462    4.1132 C.ar      1 <0>        -0.0464
     39 C34        -1.4796   -1.2767    3.4594 C.ar      1 <0>        -0.0404
     40 N3         -2.7474   -1.1599    5.5873 N.pl3     1 <0>         0.0316
     41 O3         -3.7940   -0.9611    6.1588 O.2       1 <0>        -0.1572
     42 O4         -1.7592   -1.4516    6.2198 O.3       1 <0>        -0.1547
     43 C35         0.8261    0.9261    1.3441 C.2       1 <0>         0.5164
     44 O5          1.1544    1.9383    0.7539 O.2       1 <0>        -0.5131
     45 O6          0.9706    0.8492    2.6837 O.3       1 <0>        -0.3523
     46 C36         1.5154    1.9932    3.3442 C.3       1 <0>         0.0356
     47 H2          0.3769    1.0885   -2.4812 H         1 <0>         0.0674
     48 H3         -0.0198    2.0261   -1.0211 H         1 <0>         0.1057
     49 H4          1.6226    1.3769   -1.2429 H         1 <0>         0.1083
     50 H5         -0.6910   -0.9646   -2.3295 H         1 <0>         0.4271
     51 H6         -1.6141   -3.8237   -1.8795 H         1 <0>         0.0969
     52 H7         -0.1728   -3.3285   -2.7990 H         1 <0>         0.0895
     53 H8         -0.0060   -4.4192   -1.4023 H         1 <0>         0.0851
     54 H9         -0.7668   -6.4989    0.9284 H         1 <0>         0.0799
     55 H10        -1.0636   -5.8502    2.5592 H         1 <0>         0.0791
     56 H11        -3.5043   -5.8667    2.1215 H         1 <0>         0.0984
     57 H12        -3.2074   -6.5153    0.4907 H         1 <0>         0.0999
     58 H13        -2.1315   -8.5170    1.4828 H         1 <0>         0.1372
     59 H14        -2.4283   -7.8683    3.1135 H         1 <0>         0.1345
     60 H15        -4.6463   -7.8010    3.9954 H         1 <0>         0.1324
     61 H16        -5.0115   -6.6620    2.6781 H         1 <0>         0.1341
     62 H17        -7.0860   -7.6872    3.5711 H         1 <0>         0.1180
     63 H18        -6.8142   -8.1662    1.8776 H         1 <0>         0.0979
     64 H19        -5.4323  -11.5442    2.7405 H         1 <0>         0.1181
     65 H20        -5.8297  -10.4621    1.3832 H         1 <0>         0.0972
     66 H21        -3.3972  -10.4269    1.8673 H         1 <0>         0.1348
     67 H22        -3.7374   -9.9208    3.5389 H         1 <0>         0.1400
     68 H23        -8.6569   -8.4736    2.4072 H         1 <0>         0.1240
     69 H24       -10.9276   -9.3956    2.1682 H         1 <0>         0.1268
     70 H25       -11.3795  -11.7334    2.7954 H         1 <0>         0.1271
     71 H26        -9.5606  -13.1496    3.6609 H         1 <0>         0.1268
     72 H27        -7.2881  -12.2301    3.8921 H         1 <0>         0.1204
     73 H28        -7.4057   -8.4043    5.4641 H         1 <0>         0.1236
     74 H29        -6.6784   -8.5972    7.8086 H         1 <0>         0.1289
     75 H30        -4.8642  -10.1492    8.4112 H         1 <0>         0.1286
     76 H31        -3.7777  -11.5088    6.6693 H         1 <0>         0.1279
     77 H32        -4.5107  -11.3220    4.3260 H         1 <0>         0.1259
     78 H33        -2.4893   -0.7490    0.2845 H         1 <0>         0.1328
     79 H34        -4.6212   -0.3455    1.4483 H         1 <0>         0.1473
     80 H35        -4.7405   -0.5352    3.9006 H         1 <0>         0.1532
     81 H36        -0.5977   -1.5409    4.0241 H         1 <0>         0.1529
     82 H37         1.5778    1.7992    4.4149 H         1 <0>         0.1027
     83 H38         2.5121    2.1981    2.9534 H         1 <0>         0.0631
     84 H39         0.8719    2.8552    3.1681 H         1 <0>         0.0603
     85 H40        -4.5191   -8.4335    1.1339 H         1 <0>         0.4220
@<TRIPOS>BOND
     1    1    2 1
     2    1   47 1
     3    1   48 1
     4    1   49 1
     5    2    8 1
     6    2    3 2
     7    3    4 1
     8    3   43 1
     9    4    5 1
    10    4    6 1
    11    4   34 1
    12    6    7 2
    13    6   10 1
    14    7    8 1
    15    7    9 1
    16    8   50 1
    17    9   51 1
    18    9   52 1
    19    9   53 1
    20   10   11 2
    21   10   12 1
    22   12   13 1
    23   13   14 1
    24   13   54 1
    25   13   55 1
    26   14   15 1
    27   14   56 1
    28   14   57 1
    29   15   16 1
    30   15   58 1
    31   15   59 1
    32   16   21 1
    33   16   17 1
    34   16   85 1
    35   17   18 1
    36   17   60 1
    37   17   61 1
    38   18   19 1
    39   18   62 1
    40   18   63 1
    41   19   20 1
    42   19   22 1
    43   19   28 1
    44   20   21 1
    45   20   64 1
    46   20   65 1
    47   21   66 1
    48   21   67 1
    49   22   27 ar
    50   22   23 ar
    51   23   24 ar
    52   23   68 1
    53   24   25 ar
    54   24   69 1
    55   25   26 ar
    56   25   70 1
    57   26   27 ar
    58   26   71 1
    59   27   72 1
    60   28   33 ar
    61   28   29 ar
    62   29   30 ar
    63   29   73 1
    64   30   31 ar
    65   30   74 1
    66   31   32 ar
    67   31   75 1
    68   32   33 ar
    69   32   76 1
    70   33   77 1
    71   34   39 ar
    72   34   35 ar
    73   35   36 ar
    74   35   78 1
    75   36   37 ar
    76   36   79 1
    77   37   38 ar
    78   37   80 1
    79   38   39 ar
    80   38   40 1
    81   39   81 1
    82   40   41 2
    83   40   42 1
    84   43   44 2
    85   43   45 1
    86   45   46 1
    87   46   82 1
    88   46   83 1
    89   46   84 1
@<TRIPOS>MOLECULE
ZINC26384919
   84    88     0     0     0
SMALL
USER_CHARGES

@<TRIPOS>ATOM
      1 C1         -0.4058    0.6649   -0.2560 C.3       1 <0>        -0.1000
      2 C2         -0.3874   -0.8418   -0.2749 C.2       1 <0>         0.2940
      3 C3         -1.5758   -1.5141   -0.2592 C.2       1 <0>        -0.3886
      4 C4         -1.5250   -3.0308   -0.2795 C.3       1 <0>         0.1314
      5 H1         -2.0744   -3.3784   -1.1543 H         1 <0>         0.0459
      6 C5         -0.1372   -3.6462   -0.3154 C.2       1 <0>        -0.3945
      7 C6          0.0434   -5.0118   -0.3368 C.2       1 <0>         0.4744
      8 O1         -1.0167   -5.8338   -0.2081 O.3       1 <0>        -0.6402
      9 O2          1.2801   -5.5257   -0.4865 O.3       1 <0>        -0.3323
     10 C7          1.3936   -6.9501   -0.4998 C.3       1 <0>         0.0372
     11 C8          0.9476   -2.7676   -0.3264 C.2       1 <0>         0.2993
     12 N1          0.7807   -1.4648   -0.3115 N.2       1 <0>        -0.6402
     13 C9          2.3460   -3.3282   -0.3619 C.3       1 <0>        -0.1087
     14 C10        -2.2308   -3.5420    0.9500 C.ar      1 <0>        -0.0224
     15 C11        -1.7764   -3.1859    2.2062 C.ar      1 <0>        -0.0562
     16 C12        -2.4237   -3.6548    3.3338 C.ar      1 <0>        -0.1261
     17 C13        -3.5259   -4.4795    3.2055 C.ar      1 <0>        -0.0800
     18 C14        -3.9807   -4.8348    1.9496 C.ar      1 <0>        -0.0600
     19 C15        -3.3358   -4.3623    0.8216 C.ar      1 <0>        -0.0105
     20 N2         -5.1604   -5.7182    1.8122 N.pl3     1 <0>         0.0455
     21 O3         -5.7262   -6.1290    2.7985 O.2       1 <0>        -0.1828
     22 O4         -5.5582   -6.0289    0.7136 O.3       1 <0>        -0.1762
     23 C16        -2.8015   -0.8264   -0.2252 C.2       1 <0>         0.5279
     24 O5         -2.8164    0.3913   -0.2091 O.2       1 <0>        -0.5542
     25 O6         -3.9627   -1.5162   -0.2103 O.3       1 <0>        -0.3570
     26 C17        -5.1703   -0.7530   -0.1757 C.3       1 <0>         0.0758
     27 C18        -6.3719   -1.7000   -0.1633 C.3       1 <0>        -0.1510
     28 C19        -7.6649   -0.8829   -0.1262 C.3       1 <0>        -0.0042
     29 N3         -8.8187   -1.7921   -0.1144 N.4       1 <0>        -0.3790
     30 C20        -8.8604   -2.5437   -1.3745 C.3       1 <0>        -0.0140
     31 C21       -10.0124   -3.5500   -1.3347 C.3       1 <0>        -0.1379
     32 C22       -11.3329   -2.7986   -1.1427 C.3       1 <0>         0.0240
     33 C23       -11.2504   -1.9600    0.1360 C.3       1 <0>        -0.1356
     34 C24       -10.0525   -1.0126    0.0417 C.3       1 <0>        -0.0191
     35 C25       -12.4633   -3.7883   -1.0242 C.ar      1 <0>        -0.0824
     36 C26       -12.1945   -5.1439   -0.9915 C.ar      1 <0>        -0.1183
     37 C27       -13.2313   -6.0516   -0.8828 C.ar      1 <0>        -0.1128
     38 C28       -14.5369   -5.6038   -0.8064 C.ar      1 <0>        -0.1118
     39 C29       -14.8056   -4.2482   -0.8382 C.ar      1 <0>        -0.1151
     40 C30       -13.7685   -3.3403   -0.9426 C.ar      1 <0>        -0.1050
     41 C31       -11.5745   -1.8943   -2.3237 C.ar      1 <0>        -0.0855
     42 C32       -11.5075   -2.4017   -3.6078 C.ar      1 <0>        -0.1060
     43 C33       -11.7291   -1.5721   -4.6912 C.ar      1 <0>        -0.1075
     44 C34       -12.0181   -0.2353   -4.4904 C.ar      1 <0>        -0.1124
     45 C35       -12.0860    0.2718   -3.2062 C.ar      1 <0>        -0.1117
     46 C36       -11.8687   -0.5586   -2.1227 C.ar      1 <0>        -0.1378
     47 H2          0.6170    1.0411   -0.2767 H         1 <0>         0.0588
     48 H3         -0.9460    1.0327   -1.1284 H         1 <0>         0.0779
     49 H4         -0.9018    1.0109    0.6509 H         1 <0>         0.0770
     50 H5          0.8069   -7.3537   -1.3250 H         1 <0>         0.0532
     51 H6          2.4394   -7.2301   -0.6264 H         1 <0>         0.0890
     52 H7          1.0211   -7.3530    0.4420 H         1 <0>         0.0517
     53 H8          2.4984   -3.8654   -1.2980 H         1 <0>         0.0822
     54 H9          3.0661   -2.5132   -0.2892 H         1 <0>         0.0671
     55 H10         2.4849   -4.0115    0.4759 H         1 <0>         0.0793
     56 H11        -0.9154   -2.5417    2.3065 H         1 <0>         0.1295
     57 H12        -2.0684   -3.3772    4.3152 H         1 <0>         0.1366
     58 H13        -4.0313   -4.8465    4.0866 H         1 <0>         0.1402
     59 H14        -3.6934   -4.6369   -0.1598 H         1 <0>         0.1388
     60 H15        -5.1846   -0.1362    0.7229 H         1 <0>         0.0662
     61 H16        -5.2211   -0.1131   -1.0566 H         1 <0>         0.0683
     62 H17        -6.3576   -2.3169   -1.0619 H         1 <0>         0.0987
     63 H18        -6.3212   -2.3400    0.7176 H         1 <0>         0.0912
     64 H19        -7.6792   -0.2660    0.7723 H         1 <0>         0.1336
     65 H20        -7.7157   -0.2429   -1.0071 H         1 <0>         0.1330
     66 H21        -9.0105   -1.8529   -2.2042 H         1 <0>         0.1305
     67 H22        -7.9187   -3.0753   -1.5113 H         1 <0>         0.1390
     68 H23       -10.0428   -4.1058   -2.2719 H         1 <0>         0.1178
     69 H24        -9.8632   -4.2415   -0.5054 H         1 <0>         0.1004
     70 H25       -12.1657   -1.3792    0.2501 H         1 <0>         0.1156
     71 H26       -11.1269   -2.6185    0.9958 H         1 <0>         0.0974
     72 H27        -9.9910   -0.4139    0.9505 H         1 <0>         0.1327
     73 H28       -10.1772   -0.3545   -0.8182 H         1 <0>         0.1380
     74 H29       -11.1744   -5.4937   -1.0511 H         1 <0>         0.1277
     75 H30       -13.0213   -7.1107   -0.8579 H         1 <0>         0.1271
     76 H31       -15.3470   -6.3131   -0.7222 H         1 <0>         0.1252
     77 H32       -15.8256   -3.8984   -0.7789 H         1 <0>         0.1244
     78 H33       -13.9781   -2.2810   -0.9637 H         1 <0>         0.1195
     79 H34       -11.2817   -3.4461   -3.7647 H         1 <0>         0.1246
     80 H35       -11.6761   -1.9684   -5.6945 H         1 <0>         0.1274
     81 H36       -12.1906    0.4129   -5.3368 H         1 <0>         0.1265
     82 H37       -12.3115    1.3163   -3.0494 H         1 <0>         0.1264
     83 H38       -11.9254   -0.1632   -1.1193 H         1 <0>         0.1264
     84 H39        -8.7296   -2.4369    0.6566 H         1 <0>         0.4228
@<TRIPOS>BOND
     1    1    2 1
     2    1   47 1
     3    1   48 1
     4    1   49 1
     5    2   12 1
     6    2    3 2
     7    3    4 1
     8    3   23 1
     9    4    5 1
    10    4    6 1
    11    4   14 1
    12    6    7 2
    13    6   11 1
    14    7    8 1
    15    7    9 1
    16    9   10 1
    17   10   50 1
    18   10   51 1
    19   10   52 1
    20   11   12 2
    21   11   13 1
    22   13   53 1
    23   13   54 1
    24   13   55 1
    25   14   19 ar
    26   14   15 ar
    27   15   16 ar
    28   15   56 1
    29   16   17 ar
    30   16   57 1
    31   17   18 ar
    32   17   58 1
    33   18   19 ar
    34   18   20 1
    35   19   59 1
    36   20   21 2
    37   20   22 1
    38   23   24 2
    39   23   25 1
    40   25   26 1
    41   26   27 1
    42   26   60 1
    43   26   61 1
    44   27   28 1
    45   27   62 1
    46   27   63 1
    47   28   29 1
    48   28   64 1
    49   28   65 1
    50   29   34 1
    51   29   30 1
    52   29   84 1
    53   30   31 1
    54   30   66 1
    55   30   67 1
    56   31   32 1
    57   31   68 1
    58   31   69 1
    59   32   33 1
    60   32   35 1
    61   32   41 1
    62   33   34 1
    63   33   70 1
    64   33   71 1
    65   34   72 1
    66   34   73 1
    67   35   40 ar
    68   35   36 ar
    69   36   37 ar
    70   36   74 1
    71   37   38 ar
    72   37   75 1
    73   38   39 ar
    74   38   76 1
    75   39   40 ar
    76   39   77 1
    77   40   78 1
    78   41   46 ar
    79   41   42 ar
    80   42   43 ar
    81   42   79 1
    82   43   44 ar
    83   43   80 1
    84   44   45 ar
    85   44   81 1
    86   45   46 ar
    87   45   82 1
    88   46   83 1
@<TRIPOS>MOLECULE
ZINC28129559
   86    90     0     0     0
SMALL
USER_CHARGES

@<TRIPOS>ATOM
      1 C1          0.3320    0.8570    0.2536 C.3       1 <0>        -0.1162
      2 C2          0.2062   -0.6401    0.1360 C.2       1 <0>         0.2490
      3 C3         -1.0125   -1.2040    0.1206 C.2       1 <0>        -0.2949
      4 C4         -1.1864   -2.6909   -0.0048 C.3       1 <0>         0.0817
      5 H1         -1.9492   -3.0237    0.6992 H         1 <0>         0.0892
      6 C5          0.1028   -3.4042    0.2890 C.2       1 <0>        -0.2477
      7 C6          1.2783   -2.7520    0.2980 C.2       1 <0>         0.2065
      8 N1          1.3356   -1.4081    0.0404 N.pl3     1 <0>        -0.6314
      9 C7          2.5479   -3.5097    0.5897 C.3       1 <0>        -0.1377
     10 C8          0.0792   -4.7914    0.5623 C.2       1 <0>         0.5299
     11 O1         -0.3361   -5.1935    1.6332 O.2       1 <0>        -0.4955
     12 O2          0.5172   -5.6693   -0.3643 O.3       1 <0>        -0.3474
     13 C9          0.4646   -7.0554   -0.0208 C.3       1 <0>         0.0294
     14 C10        -1.6274   -3.0223   -1.4072 C.ar      1 <0>        -0.0288
     15 C11        -0.8235   -2.6893   -2.4814 C.ar      1 <0>        -0.0910
     16 C12        -1.2280   -2.9933   -3.7678 C.ar      1 <0>        -0.0464
     17 C13        -2.4361   -3.6307   -3.9801 C.ar      1 <0>        -0.0480
     18 C14        -3.2396   -3.9645   -2.9059 C.ar      1 <0>        -0.0507
     19 C15        -2.8331   -3.6644   -1.6191 C.ar      1 <0>        -0.1263
     20 N2         -2.8696   -3.9554   -5.3576 N.pl3     1 <0>         0.0311
     21 O3         -2.1671   -3.6631   -6.2971 O.2       1 <0>        -0.1509
     22 O4         -3.9263   -4.5128   -5.5432 O.3       1 <0>        -0.1587
     23 C16        -2.1591   -0.3786    0.2245 C.2       1 <0>         0.5816
     24 O5         -2.0334    0.8281    0.3263 O.2       1 <0>        -0.5399
     25 N3         -3.3892   -0.9292    0.2107 N.am      1 <0>        -0.7387
     26 C17        -4.5750   -0.0756    0.3181 C.3       1 <0>         0.1270
     27 C18        -5.8340   -0.9442    0.2773 C.3       1 <0>        -0.1660
     28 C19        -7.0724   -0.0528    0.3895 C.3       1 <0>        -0.0054
     29 N4         -8.2811   -0.8866    0.3503 N.4       1 <0>        -0.3790
     30 C20        -8.3804   -1.5405   -0.9601 C.3       1 <0>        -0.0128
     31 C21        -9.5934   -2.4731   -0.9784 C.3       1 <0>        -0.1376
     32 C22       -10.8622   -1.6567   -0.7161 C.3       1 <0>         0.0261
     33 C23       -10.7166   -0.9201    0.6186 C.3       1 <0>        -0.1363
     34 C24        -9.4620   -0.0450    0.5778 C.3       1 <0>        -0.0199
     35 C25       -12.0518   -2.5799   -0.6550 C.ar      1 <0>        -0.0852
     36 C26       -11.8759   -3.9440   -0.7929 C.ar      1 <0>        -0.1208
     37 C27       -12.9671   -4.7908   -0.7369 C.ar      1 <0>        -0.1131
     38 C28       -14.2341   -4.2735   -0.5426 C.ar      1 <0>        -0.1095
     39 C29       -14.4100   -2.9094   -0.4037 C.ar      1 <0>        -0.1122
     40 C30       -13.3182   -2.0630   -0.4555 C.ar      1 <0>        -0.1047
     41 C31       -11.0556   -0.6556   -1.8257 C.ar      1 <0>        -0.0897
     42 C32       -11.0316   -1.0714   -3.1438 C.ar      1 <0>        -0.1069
     43 C33       -11.2090   -0.1531   -4.1617 C.ar      1 <0>        -0.1066
     44 C34       -11.4110    1.1811   -3.8614 C.ar      1 <0>        -0.1102
     45 C35       -11.4359    1.5968   -2.5433 C.ar      1 <0>        -0.1106
     46 C36       -11.2628    0.6778   -1.5253 C.ar      1 <0>        -0.1384
     47 H2          1.3860    1.1349    0.2450 H         1 <0>         0.0642
     48 H3         -0.1756    1.3314   -0.5862 H         1 <0>         0.1036
     49 H4         -0.1233    1.1877    1.1872 H         1 <0>         0.1059
     50 H5          2.1790   -0.9978   -0.2072 H         1 <0>         0.4265
     51 H6          2.9364   -3.9372   -0.3346 H         1 <0>         0.1013
     52 H7          3.2869   -2.8305    1.0147 H         1 <0>         0.0888
     53 H8          2.3386   -4.3095    1.3001 H         1 <0>         0.0879
     54 H9          1.0759   -7.2339    0.8638 H         1 <0>         0.0641
     55 H10        -0.5670   -7.3393    0.1871 H         1 <0>         0.0613
     56 H11         0.8449   -7.6502   -0.8513 H         1 <0>         0.1053
     57 H12         0.1204   -2.1914   -2.3156 H         1 <0>         0.1401
     58 H13        -0.6002   -2.7325   -4.6071 H         1 <0>         0.1557
     59 H14        -4.1836   -4.4622   -3.0717 H         1 <0>         0.1528
     60 H15        -3.4591   -3.9285   -0.7796 H         1 <0>         0.1406
     61 H16        -3.4894   -1.8906    0.1295 H         1 <0>         0.3973
     62 H17        -4.5431    0.4739    1.2589 H         1 <0>         0.0794
     63 H18        -4.5924    0.6286   -0.5137 H         1 <0>         0.0779
     64 H19        -5.8659   -1.4937   -0.6635 H         1 <0>         0.0936
     65 H20        -5.8167   -1.6484    1.1090 H         1 <0>         0.0955
     66 H21        -7.0405    0.4968    1.3303 H         1 <0>         0.1370
     67 H22        -7.0897    0.6515   -0.4423 H         1 <0>         0.1340
     68 H23        -8.4932   -0.7832   -1.7359 H         1 <0>         0.1320
     69 H24        -7.4754   -2.1185   -1.1467 H         1 <0>         0.1331
     70 H25        -9.6664   -2.9562   -1.9528 H         1 <0>         0.1181
     71 H26        -9.4815   -3.2311   -0.2031 H         1 <0>         0.0978
     72 H27       -11.5924   -0.2932    0.7858 H         1 <0>         0.1176
     73 H28       -10.6280   -1.6458    1.4271 H         1 <0>         0.0971
     74 H29        -9.3554    0.4810    1.5265 H         1 <0>         0.1345
     75 H30        -9.5517    0.6804   -0.2308 H         1 <0>         0.1396
     76 H31       -10.8859   -4.3482   -0.9448 H         1 <0>         0.1242
     77 H32       -12.8297   -5.8565   -0.8454 H         1 <0>         0.1269
     78 H33       -15.0867   -4.9350   -0.4995 H         1 <0>         0.1271
     79 H34       -15.3999   -2.5052   -0.2522 H         1 <0>         0.1266
     80 H35       -13.4552   -0.9976   -0.3433 H         1 <0>         0.1202
     81 H36       -10.8738   -2.1138   -3.3784 H         1 <0>         0.1238
     82 H37       -11.1895   -0.4779   -5.1915 H         1 <0>         0.1286
     83 H38       -11.5489    1.8987   -4.6567 H         1 <0>         0.1281
     84 H39       -11.5934    2.6392   -2.3087 H         1 <0>         0.1276
     85 H40       -11.2860    1.0020   -0.4954 H         1 <0>         0.1261
     86 H41        -8.2268   -1.5901    1.0716 H         1 <0>         0.4215
@<TRIPOS>BOND
     1    1    2 1
     2    1   47 1
     3    1   48 1
     4    1   49 1
     5    2    8 1
     6    2    3 2
     7    3    4 1
     8    3   23 1
     9    4    5 1
    10    4    6 1
    11    4   14 1
    12    6    7 2
    13    6   10 1
    14    7    8 1
    15    7    9 1
    16    8   50 1
    17    9   51 1
    18    9   52 1
    19    9   53 1
    20   10   11 2
    21   10   12 1
    22   12   13 1
    23   13   54 1
    24   13   55 1
    25   13   56 1
    26   14   19 ar
    27   14   15 ar
    28   15   16 ar
    29   15   57 1
    30   16   17 ar
    31   16   58 1
    32   17   18 ar
    33   17   20 1
    34   18   19 ar
    35   18   59 1
    36   19   60 1
    37   20   21 2
    38   20   22 1
    39   23   24 2
    40   23   25 am
    41   25   26 1
    42   25   61 1
    43   26   27 1
    44   26   62 1
    45   26   63 1
    46   27   28 1
    47   27   64 1
    48   27   65 1
    49   28   29 1
    50   28   66 1
    51   28   67 1
    52   29   34 1
    53   29   30 1
    54   29   86 1
    55   30   31 1
    56   30   68 1
    57   30   69 1
    58   31   32 1
    59   31   70 1
    60   31   71 1
    61   32   33 1
    62   32   35 1
    63   32   41 1
    64   33   34 1
    65   33   72 1
    66   33   73 1
    67   34   74 1
    68   34   75 1
    69   35   40 ar
    70   35   36 ar
    71   36   37 ar
    72   36   76 1
    73   37   38 ar
    74   37   77 1
    75   38   39 ar
    76   38   78 1
    77   39   40 ar
    78   39   79 1
    79   40   80 1
    80   41   46 ar
    81   41   42 ar
    82   42   43 ar
    83   42   81 1
    84   43   44 ar
    85   43   82 1
    86   44   45 ar
    87   44   83 1
    88   45   46 ar
    89   45   84 1
    90   46   85 1
@<TRIPOS>MOLECULE
ZINC28129559
   85    89     0     0     0
SMALL
USER_CHARGES

@<TRIPOS>ATOM
      1 C1          0.0195    0.9547   -0.3541 C.3       1 <0>        -0.0949
      2 C2          0.0111   -0.5520   -0.3837 C.2       1 <0>         0.2810
      3 C3         -1.1878   -1.2022   -0.3693 C.2       1 <0>        -0.4034
      4 C4         -1.1647   -2.7195   -0.4003 C.3       1 <0>         0.1203
      5 H1         -1.6826   -3.0861    0.4859 H         1 <0>         0.0435
      6 C5          0.2115   -3.3598   -0.4447 C.2       1 <0>        -0.4067
      7 C6          0.3671   -4.7278   -0.4761 C.2       1 <0>         0.4729
      8 O1         -0.7066   -5.5315   -0.3432 O.3       1 <0>        -0.6512
      9 O2          1.5932   -5.2629   -0.6399 O.3       1 <0>        -0.3328
     10 C7          1.6808   -6.6891   -0.6630 C.3       1 <0>         0.0379
     11 C8          1.3123   -2.5005   -0.4526 C.2       1 <0>         0.3033
     12 N1          1.1685   -1.1955   -0.4281 N.2       1 <0>        -0.6428
     13 C9          2.7004   -3.0857   -0.4961 C.3       1 <0>        -0.1082
     14 C10        -1.9322   -3.1774   -1.6138 C.ar      1 <0>         0.0195
     15 C11        -1.5190   -2.7972   -2.8769 C.ar      1 <0>        -0.1000
     16 C12        -2.2229   -3.2172   -3.9900 C.ar      1 <0>        -0.0555
     17 C13        -3.3398   -4.0178   -3.8399 C.ar      1 <0>        -0.0709
     18 C14        -3.7525   -4.3987   -2.5768 C.ar      1 <0>        -0.0615
     19 C15        -3.0460   -3.9822   -1.4640 C.ar      1 <0>        -0.1152
     20 N2         -4.0942   -4.4668   -5.0317 N.pl3     1 <0>         0.0434
     21 O3         -3.7335   -4.1333   -6.1364 O.2       1 <0>        -0.1707
     22 O4         -5.0710   -5.1669   -4.9004 O.3       1 <0>        -0.1797
     23 C16        -2.4033   -0.4914   -0.3268 C.2       1 <0>         0.5871
     24 O5         -2.3961    0.7269   -0.3021 O.2       1 <0>        -0.5725
     25 N3         -3.5741   -1.1588   -0.3134 N.am      1 <0>        -0.7533
     26 C17        -4.8382   -0.4196   -0.2692 C.3       1 <0>         0.1314
     27 C18        -6.0066   -1.4073   -0.2624 C.3       1 <0>        -0.1656
     28 C19        -7.3268   -0.6352   -0.2162 C.3       1 <0>        -0.0043
     29 N4         -8.4486   -1.5836   -0.2097 N.4       1 <0>        -0.3787
     30 C20        -8.4673   -2.3258   -1.4759 C.3       1 <0>        -0.0139
     31 C21        -9.5841   -3.3713   -1.4422 C.3       1 <0>        -0.1376
     32 C22       -10.9291   -2.6672   -1.2416 C.3       1 <0>         0.0246
     33 C23       -10.8727   -1.8367    0.0438 C.3       1 <0>        -0.1349
     34 C24        -9.7081   -0.8481   -0.0450 C.3       1 <0>        -0.0197
     35 C25       -12.0246   -3.6960   -1.1292 C.ar      1 <0>        -0.0822
     36 C26       -11.7093   -5.0417   -1.1059 C.ar      1 <0>        -0.1192
     37 C27       -12.7142   -5.9853   -1.0028 C.ar      1 <0>        -0.1132
     38 C28       -14.0344   -5.5832   -0.9225 C.ar      1 <0>        -0.1116
     39 C29       -14.3496   -4.2375   -0.9449 C.ar      1 <0>        -0.1144
     40 C30       -13.3444   -3.2937   -1.0437 C.ar      1 <0>        -0.1046
     41 C31       -11.2040   -1.7621   -2.4147 C.ar      1 <0>        -0.0877
     42 C32       -11.1217   -2.2562   -3.7031 C.ar      1 <0>        -0.1056
     43 C33       -11.3739   -1.4260   -4.7792 C.ar      1 <0>        -0.1067
     44 C34       -11.7088   -0.1017   -4.5669 C.ar      1 <0>        -0.1115
     45 C35       -11.7920    0.3922   -3.2785 C.ar      1 <0>        -0.1118
     46 C36       -11.5440   -0.4392   -2.2023 C.ar      1 <0>        -0.1381
     47 H2          1.0487    1.3128   -0.3752 H         1 <0>         0.0541
     48 H3         -0.5165    1.3381   -1.2224 H         1 <0>         0.0759
     49 H4         -0.4678    1.3029    0.5566 H         1 <0>         0.0761
     50 H5          1.3092   -7.0912    0.2795 H         1 <0>         0.0525
     51 H6          1.0798   -7.0767   -1.4856 H         1 <0>         0.0505
     52 H7          2.7202   -6.9870   -0.8006 H         1 <0>         0.0882
     53 H8          2.8424   -3.6143   -1.4387 H         1 <0>         0.0800
     54 H9          3.4351   -2.2847   -0.4144 H         1 <0>         0.0663
     55 H10         2.8276   -3.7813    0.3334 H         1 <0>         0.0790
     56 H11        -0.6464   -2.1717   -2.9942 H         1 <0>         0.1389
     57 H12        -1.9005   -2.9196   -4.9769 H         1 <0>         0.1452
     58 H13        -4.6253   -5.0239   -2.4595 H         1 <0>         0.1405
     59 H14        -3.3662   -4.2829   -0.4773 H         1 <0>         0.1375
     60 H15        -3.5798   -2.1286   -0.3331 H         1 <0>         0.3957
     61 H16        -4.8717    0.1891    0.6344 H         1 <0>         0.0701
     62 H17        -4.9127    0.2254   -1.1447 H         1 <0>         0.0680
     63 H18        -5.9731   -2.0159   -1.1660 H         1 <0>         0.0910
     64 H19        -5.9321   -2.0523    0.6131 H         1 <0>         0.0936
     65 H20        -7.3603   -0.0266    0.6874 H         1 <0>         0.1358
     66 H21        -7.4013    0.0097   -1.0917 H         1 <0>         0.1322
     67 H22        -8.6427   -1.6339   -2.2996 H         1 <0>         0.1310
     68 H23        -7.5082   -2.8237   -1.6188 H         1 <0>         0.1359
     69 H24        -9.5974   -3.9201   -2.3839 H         1 <0>         0.1185
     70 H25        -9.4095   -4.0640   -0.6189 H         1 <0>         0.0982
     71 H26       -11.8071   -1.2886    0.1643 H         1 <0>         0.1156
     72 H27       -10.7248   -2.4975    0.8979 H         1 <0>         0.0965
     73 H28        -9.6652   -0.2550    0.8686 H         1 <0>         0.1335
     74 H29        -9.8571   -0.1876   -0.8992 H         1 <0>         0.1381
     75 H30       -10.6779   -5.3558   -1.1686 H         1 <0>         0.1263
     76 H31       -12.4679   -7.0367   -0.9853 H         1 <0>         0.1266
     77 H32       -14.8195   -6.3205   -0.8427 H         1 <0>         0.1254
     78 H33       -15.3810   -3.9234   -0.8825 H         1 <0>         0.1249
     79 H34       -13.5904   -2.2422   -1.0575 H         1 <0>         0.1200
     80 H35       -10.8601   -3.2908   -3.8690 H         1 <0>         0.1248
     81 H36       -11.3089   -1.8119   -5.7859 H         1 <0>         0.1282
     82 H37       -11.9052    0.5471   -5.4077 H         1 <0>         0.1269
     83 H38       -12.0534    1.4269   -3.1126 H         1 <0>         0.1266
     84 H39       -11.6127   -0.0543   -1.1955 H         1 <0>         0.1261
     85 H40        -8.3359   -2.2311    0.5558 H         1 <0>         0.4214
@<TRIPOS>BOND
     1    1    2 1
     2    1   47 1
     3    1   48 1
     4    1   49 1
     5    2   12 1
     6    2    3 2
     7    3    4 1
     8    3   23 1
     9    4    5 1
    10    4    6 1
    11    4   14 1
    12    6    7 2
    13    6   11 1
    14    7    8 1
    15    7    9 1
    16    9   10 1
    17   10   50 1
    18   10   51 1
    19   10   52 1
    20   11   12 2
    21   11   13 1
    22   13   53 1
    23   13   54 1
    24   13   55 1
    25   14   19 ar
    26   14   15 ar
    27   15   16 ar
    28   15   56 1
    29   16   17 ar
    30   16   57 1
    31   17   18 ar
    32   17   20 1
    33   18   19 ar
    34   18   58 1
    35   19   59 1
    36   20   21 2
    37   20   22 1
    38   23   24 2
    39   23   25 am
    40   25   26 1
    41   25   60 1
    42   26   27 1
    43   26   61 1
    44   26   62 1
    45   27   28 1
    46   27   63 1
    47   27   64 1
    48   28   29 1
    49   28   65 1
    50   28   66 1
    51   29   34 1
    52   29   30 1
    53   29   85 1
    54   30   31 1
    55   30   67 1
    56   30   68 1
    57   31   32 1
    58   31   69 1
    59   31   70 1
    60   32   33 1
    61   32   35 1
    62   32   41 1
    63   33   34 1
    64   33   71 1
    65   33   72 1
    66   34   73 1
    67   34   74 1
    68   35   40 ar
    69   35   36 ar
    70   36   37 ar
    71   36   75 1
    72   37   38 ar
    73   37   76 1
    74   38   39 ar
    75   38   77 1
    76   39   40 ar
    77   39   78 1
    78   40   79 1
    79   41   46 ar
    80   41   42 ar
    81   42   43 ar
    82   42   80 1
    83   43   44 ar
    84   43   81 1
    85   44   45 ar
    86   44   82 1
    87   45   46 ar
    88   45   83 1
    89   46   84 1
@<TRIPOS>MOLECULE
ZINC28759802
   86    90     0     0     0
SMALL
USER_CHARGES

@<TRIPOS>ATOM
      1 C1          0.5275    0.8463   -0.1686 C.3       1 <0>        -0.1161
      2 C2          0.3766   -0.6531   -0.1844 C.2       1 <0>         0.2489
      3 C3         -0.8445   -1.1981   -0.0607 C.2       1 <0>        -0.2951
      4 C4         -1.0419   -2.6874   -0.0632 C.3       1 <0>         0.0819
      5 H1         -1.9004   -2.9345   -0.6877 H         1 <0>         0.0878
      6 C5          0.1763   -3.3848   -0.5986 C.2       1 <0>        -0.2479
      7 C6          1.3581   -2.7520   -0.7005 C.2       1 <0>         0.2051
      8 N1          1.4856   -1.4427   -0.3303 N.pl3     1 <0>        -0.6295
      9 C7          2.5561   -3.4938   -1.2347 C.3       1 <0>        -0.1400
     10 C8          0.0780   -4.7360   -1.0037 C.2       1 <0>         0.5306
     11 O1         -0.3792   -5.0116   -2.0972 O.2       1 <0>        -0.4937
     12 O2          0.4911   -5.7198   -0.1775 O.3       1 <0>        -0.3480
     13 C9          0.3623   -7.0618   -0.6515 C.3       1 <0>         0.0288
     14 C10        -1.3019   -3.1558    1.3453 C.ar      1 <0>        -0.0281
     15 C11        -0.3583   -2.9373    2.3316 C.ar      1 <0>        -0.0909
     16 C12        -0.5967   -3.3670    3.6237 C.ar      1 <0>        -0.0461
     17 C13        -1.7790   -4.0149    3.9295 C.ar      1 <0>        -0.0481
     18 C14        -2.7229   -4.2326    2.9434 C.ar      1 <0>        -0.0500
     19 C15        -2.4863   -3.7991    1.6523 C.ar      1 <0>        -0.1261
     20 N2         -2.0339   -4.4759    5.3128 N.pl3     1 <0>         0.0310
     21 O3         -1.2081   -4.2858    6.1751 O.2       1 <0>        -0.1511
     22 O4         -3.0678   -5.0424    5.5803 O.3       1 <0>        -0.1583
     23 C16        -1.9711   -0.3501    0.0747 C.2       1 <0>         0.5816
     24 O5         -1.8263    0.8588    0.0781 O.2       1 <0>        -0.5398
     25 N3         -3.2034   -0.8815    0.1999 N.am      1 <0>        -0.7387
     26 C17        -4.3685   -0.0045    0.3399 C.3       1 <0>         0.1270
     27 C18        -5.6347   -0.8545    0.4637 C.3       1 <0>        -0.1660
     28 C19        -6.8515    0.0614    0.6099 C.3       1 <0>        -0.0054
     29 N4         -8.0672   -0.7547    0.7288 N.4       1 <0>        -0.3792
     30 C20        -8.2787   -1.4993   -0.5184 C.3       1 <0>        -0.0126
     31 C21        -9.4978   -2.4124   -0.3712 C.3       1 <0>        -0.1376
     32 C22       -10.7334   -1.5601   -0.0679 C.3       1 <0>         0.0260
     33 C23       -10.4729   -0.7319    1.1937 C.3       1 <0>        -0.1365
     34 C24        -9.2177    0.1189    0.9886 C.3       1 <0>        -0.0199
     35 C25       -11.9227   -2.4583    0.1556 C.ar      1 <0>        -0.0856
     36 C26       -11.7627   -3.8313    0.1489 C.ar      1 <0>        -0.1209
     37 C27       -12.8536   -4.6552    0.3539 C.ar      1 <0>        -0.1133
     38 C28       -14.1044   -4.1061    0.5660 C.ar      1 <0>        -0.1093
     39 C29       -14.2641   -2.7330    0.5735 C.ar      1 <0>        -0.1122
     40 C30       -13.1725   -1.9090    0.3728 C.ar      1 <0>        -0.1043
     41 C31       -11.0070   -0.6383   -1.2282 C.ar      1 <0>        -0.0893
     42 C32       -11.0936   -1.1479   -2.5103 C.ar      1 <0>        -0.1071
     43 C33       -11.3446   -0.3023   -3.5747 C.ar      1 <0>        -0.1071
     44 C34       -11.5095    1.0528   -3.3570 C.ar      1 <0>        -0.1102
     45 C35       -11.4238    1.5623   -2.0748 C.ar      1 <0>        -0.1103
     46 C36       -11.1770    0.7161   -1.0099 C.ar      1 <0>        -0.1382
     47 H2          1.5795    1.1068   -0.2847 H         1 <0>         0.0643
     48 H3         -0.0463    1.2778   -0.9887 H         1 <0>         0.1063
     49 H4          0.1584    1.2386    0.7790 H         1 <0>         0.1034
     50 H5          2.3670   -1.0723   -0.1668 H         1 <0>         0.4260
     51 H6          2.6211   -3.3504   -2.3133 H         1 <0>         0.0971
     52 H7          3.4608   -3.1112   -0.7622 H         1 <0>         0.0902
     53 H8          2.4531   -4.5565   -1.0151 H         1 <0>         0.0919
     54 H9         -0.6863   -7.2747   -0.8592 H         1 <0>         0.0616
     55 H10         0.9453   -7.1821   -1.5647 H         1 <0>         0.0643
     56 H11         0.7298   -7.7521    0.1077 H         1 <0>         0.1052
     57 H12         0.5654   -2.4312    2.0927 H         1 <0>         0.1397
     58 H13         0.1408   -3.1969    4.3941 H         1 <0>         0.1555
     59 H14        -3.6464   -4.7391    3.1823 H         1 <0>         0.1529
     60 H15        -3.2254   -3.9658    0.8826 H         1 <0>         0.1401
     61 H16        -3.3188   -1.8446    0.1972 H         1 <0>         0.3972
     62 H17        -4.2551    0.6106    1.2326 H         1 <0>         0.0784
     63 H18        -4.4468    0.6384   -0.5368 H         1 <0>         0.0790
     64 H19        -5.7481   -1.4696   -0.4290 H         1 <0>         0.0946
     65 H20        -5.5564   -1.4974    1.3404 H         1 <0>         0.0944
     66 H21        -6.7381    0.6765    1.5026 H         1 <0>         0.1365
     67 H22        -6.9298    0.7043   -0.2668 H         1 <0>         0.1345
     68 H23        -8.4471   -0.7980   -1.3356 H         1 <0>         0.1320
     69 H24        -7.3972   -2.1029   -0.7346 H         1 <0>         0.1334
     70 H25        -9.6542   -2.9630   -1.2988 H         1 <0>         0.1175
     71 H26        -9.3303   -3.1143    0.4457 H         1 <0>         0.0980
     72 H27       -11.3264   -0.0813    1.3847 H         1 <0>         0.1177
     73 H28       -10.3257   -1.3990    2.0430 H         1 <0>         0.0973
     74 H29        -9.0295    0.7100    1.8848 H         1 <0>         0.1346
     75 H30        -9.3661    0.7857    0.1392 H         1 <0>         0.1396
     76 H31       -10.7855   -4.2603   -0.0167 H         1 <0>         0.1240
     77 H32       -12.7288   -5.7280    0.3480 H         1 <0>         0.1269
     78 H33       -14.9568   -4.7498    0.7254 H         1 <0>         0.1272
     79 H34       -15.2414   -2.3040    0.7389 H         1 <0>         0.1267
     80 H35       -13.2966   -0.8362    0.3824 H         1 <0>         0.1204
     81 H36       -10.9648   -2.2066   -2.6804 H         1 <0>         0.1235
     82 H37       -11.4116   -0.7004   -4.5764 H         1 <0>         0.1281
     83 H38       -11.7049    1.7135   -4.1886 H         1 <0>         0.1280
     84 H39       -11.5522    2.6210   -1.9047 H         1 <0>         0.1278
     85 H40       -11.1138    1.1136   -0.0077 H         1 <0>         0.1264
     86 H41        -7.9609   -1.4053    1.4927 H         1 <0>         0.4217
@<TRIPOS>BOND
     1    1    2 1
     2    1   47 1
     3    1   48 1
     4    1   49 1
     5    2    8 1
     6    2    3 2
     7    3    4 1
     8    3   23 1
     9    4    5 1
    10    4    6 1
    11    4   14 1
    12    6    7 2
    13    6   10 1
    14    7    8 1
    15    7    9 1
    16    8   50 1
    17    9   51 1
    18    9   52 1
    19    9   53 1
    20   10   11 2
    21   10   12 1
    22   12   13 1
    23   13   54 1
    24   13   55 1
    25   13   56 1
    26   14   19 ar
    27   14   15 ar
    28   15   16 ar
    29   15   57 1
    30   16   17 ar
    31   16   58 1
    32   17   18 ar
    33   17   20 1
    34   18   19 ar
    35   18   59 1
    36   19   60 1
    37   20   21 2
    38   20   22 1
    39   23   24 2
    40   23   25 am
    41   25   26 1
    42   25   61 1
    43   26   27 1
    44   26   62 1
    45   26   63 1
    46   27   28 1
    47   27   64 1
    48   27   65 1
    49   28   29 1
    50   28   66 1
    51   28   67 1
    52   29   34 1
    53   29   30 1
    54   29   86 1
    55   30   31 1
    56   30   68 1
    57   30   69 1
    58   31   32 1
    59   31   70 1
    60   31   71 1
    61   32   33 1
    62   32   35 1
    63   32   41 1
    64   33   34 1
    65   33   72 1
    66   33   73 1
    67   34   74 1
    68   34   75 1
    69   35   40 ar
    70   35   36 ar
    71   36   37 ar
    72   36   76 1
    73   37   38 ar
    74   37   77 1
    75   38   39 ar
    76   38   78 1
    77   39   40 ar
    78   39   79 1
    79   40   80 1
    80   41   46 ar
    81   41   42 ar
    82   42   43 ar
    83   42   81 1
    84   43   44 ar
    85   43   82 1
    86   44   45 ar
    87   44   83 1
    88   45   46 ar
    89   45   84 1
    90   46   85 1
@<TRIPOS>MOLECULE
ZINC00004448
   42    45     0     0     0
SMALL
USER_CHARGES

@<TRIPOS>ATOM
      1 C1         -0.4391   -3.3377    1.8722 C.3       1 <0>        -0.1123
      2 C2         -0.1697   -2.2466    0.8683 C.cat     1 <0>         0.2989
      3 N1         -0.0089   -2.4170   -0.4155 N.pl3     1 <0>        -0.4743
      4 C3          0.2118   -1.2278   -0.9953 C.2       1 <0>        -0.0131
      5 C4          0.1869   -0.2847   -0.0343 C.2       1 <0>         0.0706
      6 N2         -0.0604   -0.9298    1.1473 N.pl3     1 <0>        -0.3998
      7 C5         -0.1811   -0.3082    2.4684 C.3       1 <0>         0.1079
      8 C6         -1.6568   -0.2375    2.8660 C.3       1 <0>        -0.1546
      9 H1         -2.1022   -1.2287    2.7806 H         1 <0>         0.1154
     10 C7         -1.7700    0.2464    4.3115 C.3       1 <0>        -0.1029
     11 C8         -3.2416    0.3294    4.7350 C.3       1 <0>        -0.0678
     12 C9         -3.9618    1.2252    3.7555 C.2       1 <0>         0.1597
     13 C10        -3.5215    1.3875    2.4463 C.2       1 <0>        -0.2921
     14 C11        -4.4444    2.3149    1.8134 C.ar      1 <0>        -0.0463
     15 C12        -4.5189    2.8565    0.5307 C.ar      1 <0>        -0.0763
     16 C13        -5.5626    3.7304    0.2795 C.ar      1 <0>        -0.1250
     17 C14        -6.4928    4.0558    1.2516 C.ar      1 <0>        -0.1030
     18 C15        -6.4370    3.5295    2.5307 C.ar      1 <0>        -0.1113
     19 C16        -5.3960    2.6468    2.8098 C.ar      1 <0>         0.0678
     20 N3         -5.0642    1.9669    3.9526 N.pl3     1 <0>        -0.4390
     21 C17        -5.8081    2.0387    5.2127 C.3       1 <0>         0.0582
     22 C18        -2.3800    0.7188    1.9432 C.2       1 <0>         0.4331
     23 O1         -1.9955    0.9054    0.8069 O.2       1 <0>        -0.4805
     24 H2         -1.5134   -3.4249    2.0346 H         1 <0>         0.1174
     25 H3         -0.0509   -4.2834    1.4940 H         1 <0>         0.1154
     26 H4          0.0521   -3.0941    2.8143 H         1 <0>         0.1145
     27 H5          0.3800   -1.0566   -2.0483 H         1 <0>         0.2213
     28 H6          0.3302    0.7771   -0.1704 H         1 <0>         0.2190
     29 H7          0.3645   -0.9030    3.2010 H         1 <0>         0.1257
     30 H8          0.2350    0.6987    2.4355 H         1 <0>         0.1281
     31 H9         -1.2451   -0.4489    4.9665 H         1 <0>         0.0978
     32 H10        -1.3139    1.2326    4.3982 H         1 <0>         0.0859
     33 H11        -3.6859   -0.6659    4.7191 H         1 <0>         0.1031
     34 H12        -3.3127    0.7488    5.7386 H         1 <0>         0.1005
     35 H13        -3.7956    2.6061   -0.2312 H         1 <0>         0.1359
     36 H14        -5.6535    4.1710   -0.7023 H         1 <0>         0.1265
     37 H15        -7.2882    4.7431    1.0040 H         1 <0>         0.1296
     38 H16        -7.1689    3.7920    3.2802 H         1 <0>         0.1330
     39 H17        -5.4075    2.8462    5.8256 H         1 <0>         0.0854
     40 H18        -6.8605    2.2295    5.0030 H         1 <0>         0.0945
     41 H19        -5.7096    1.0938    5.7471 H         1 <0>         0.0927
     42 H20        -0.0436   -3.2691   -0.8775 H         1 <0>         0.4603
@<TRIPOS>BOND
     1    1    2 1
     2    1   24 1
     3    1   25 1
     4    1   26 1
     5    2    6 1
     6    2    3 2
     7    3    4 1
     8    3   42 1
     9    4    5 2
    10    4   27 1
    11    5    6 1
    12    5   28 1
    13    6    7 1
    14    7    8 1
    15    7   29 1
    16    7   30 1
    17    8    9 1
    18    8   22 1
    19    8   10 1
    20   10   11 1
    21   10   31 1
    22   10   32 1
    23   11   12 1
    24   11   33 1
    25   11   34 1
    26   12   20 1
    27   12   13 2
    28   13   14 1
    29   13   22 1
    30   14   19 ar
    31   14   15 ar
    32   15   16 ar
    33   15   35 1
    34   16   17 ar
    35   16   36 1
    36   17   18 ar
    37   17   37 1
    38   18   19 ar
    39   18   38 1
    40   19   20 1
    41   20   21 1
    42   21   39 1
    43   21   40 1
    44   21   41 1
    45   22   23 2
@<TRIPOS>MOLECULE
ZINC00004448
   41    44     0     0     0
SMALL
USER_CHARGES

@<TRIPOS>ATOM
      1 C1         -0.4391   -3.3377    1.8722 C.3       1 <0>        -0.0665
      2 C2         -0.1697   -2.2466    0.8683 C.2       1 <0>         0.1894
      3 N1         -0.0089   -2.4170   -0.4155 N.2       1 <0>        -0.4892
      4 C3          0.2118   -1.2278   -0.9953 C.2       1 <0>        -0.0442
      5 C4          0.1868   -0.2847   -0.0343 C.2       1 <0>        -0.0089
      6 N2         -0.0604   -0.9298    1.1473 N.pl3     1 <0>        -0.4502
      7 C5         -0.1811   -0.3082    2.4684 C.3       1 <0>         0.1208
      8 C6         -1.6568   -0.2375    2.8660 C.3       1 <0>        -0.1505
      9 H1         -2.1022   -1.2287    2.7806 H         1 <0>         0.1106
     10 C7         -1.7700    0.2464    4.3115 C.3       1 <0>        -0.1021
     11 C8         -3.2416    0.3294    4.7350 C.3       1 <0>        -0.0641
     12 C9         -3.9618    1.2252    3.7555 C.2       1 <0>         0.1486
     13 C10        -3.5215    1.3875    2.4463 C.2       1 <0>        -0.2760
     14 C11        -4.4444    2.3149    1.8134 C.ar      1 <0>        -0.0490
     15 C12        -4.5189    2.8565    0.5307 C.ar      1 <0>        -0.0694
     16 C13        -5.5626    3.7304    0.2795 C.ar      1 <0>        -0.1333
     17 C14        -6.4928    4.0558    1.2516 C.ar      1 <0>        -0.1057
     18 C15        -6.4370    3.5295    2.5307 C.ar      1 <0>        -0.1186
     19 C16        -5.3960    2.6468    2.8098 C.ar      1 <0>         0.0711
     20 N3         -5.0642    1.9669    3.9526 N.pl3     1 <0>        -0.4472
     21 C17        -5.8081    2.0387    5.2127 C.3       1 <0>         0.0636
     22 C18        -2.3800    0.7188    1.9432 C.2       1 <0>         0.4253
     23 O1         -1.9955    0.9054    0.8069 O.2       1 <0>        -0.4537
     24 H2         -1.5134   -3.4248    2.0346 H         1 <0>         0.0742
     25 H3         -0.0510   -4.2834    1.4939 H         1 <0>         0.0891
     26 H4          0.0522   -3.0941    2.8143 H         1 <0>         0.0704
     27 H5          0.3800   -1.0566   -2.0483 H         1 <0>         0.1656
     28 H6          0.3302    0.7771   -0.1704 H         1 <0>         0.1690
     29 H7          0.3645   -0.9030    3.2010 H         1 <0>         0.0973
     30 H8          0.2350    0.6987    2.4355 H         1 <0>         0.0958
     31 H9         -1.2451   -0.4489    4.9665 H         1 <0>         0.0916
     32 H10        -1.3139    1.2326    4.3982 H         1 <0>         0.0786
     33 H11        -3.6859   -0.6659    4.7191 H         1 <0>         0.0996
     34 H12        -3.3127    0.7488    5.7386 H         1 <0>         0.0928
     35 H13        -3.7956    2.6061   -0.2312 H         1 <0>         0.1375
     36 H14        -5.6535    4.1710   -0.7023 H         1 <0>         0.1236
     37 H15        -7.2882    4.7431    1.0040 H         1 <0>         0.1251
     38 H16        -7.1689    3.7920    3.2802 H         1 <0>         0.1289
     39 H17        -5.4075    2.8462    5.8256 H         1 <0>         0.0801
     40 H18        -6.8605    2.2295    5.0030 H         1 <0>         0.0900
     41 H19        -5.7096    1.0938    5.7471 H         1 <0>         0.0899
@<TRIPOS>BOND
     1    1    2 1
     2    1   24 1
     3    1   25 1
     4    1   26 1
     5    2    6 1
     6    2    3 2
     7    3    4 1
     8    4    5 2
     9    4   27 1
    10    5    6 1
    11    5   28 1
    12    6    7 1
    13    7    8 1
    14    7   29 1
    15    7   30 1
    16    8    9 1
    17    8   22 1
    18    8   10 1
    19   10   11 1
    20   10   31 1
    21   10   32 1
    22   11   12 1
    23   11   33 1
    24   11   34 1
    25   12   20 1
    26   12   13 2
    27   13   14 1
    28   13   22 1
    29   14   19 ar
    30   14   15 ar
    31   15   16 ar
    32   15   35 1
    33   16   17 ar
    34   16   36 1
    35   17   18 ar
    36   17   37 1
    37   18   19 ar
    38   18   38 1
    39   19   20 1
    40   20   21 1
    41   21   39 1
    42   21   40 1
    43   21   41 1
    44   22   23 2
@<TRIPOS>MOLECULE
ZINC00075126
   42    45     0     0     0
SMALL
USER_CHARGES

@<TRIPOS>ATOM
      1 C1         -0.0184    1.5028    0.0103 C.3       1 <0>        -0.1124
      2 C2          0.0021   -0.0041    0.0020 C.cat     1 <0>         0.2979
      3 N1          0.0080   -0.7588   -1.0626 N.pl3     1 <0>        -0.4737
      4 C3          0.0275   -2.0475   -0.6911 C.2       1 <0>        -0.0205
      5 C4          0.0339   -2.0930    0.6548 C.2       1 <0>         0.0808
      6 N2          0.0232   -0.7970    1.0950 N.pl3     1 <0>        -0.4033
      7 C5          0.0304   -0.3529    2.4910 C.3       1 <0>         0.1075
      8 C6         -1.4059   -0.0982    2.9525 C.3       1 <0>        -0.1549
      9 H1         -1.8841    0.6077    2.2734 H         1 <0>         0.1159
     10 C7         -1.3885    0.4885    4.3640 C.3       1 <0>        -0.1033
     11 C8         -2.8183    0.7509    4.8527 C.3       1 <0>        -0.0678
     12 C9         -3.5900   -0.5440    4.7622 C.2       1 <0>         0.1608
     13 C10        -3.2525   -1.5391    3.8511 C.2       1 <0>        -0.2929
     14 C11        -4.1973   -2.6242    4.0575 C.ar      1 <0>        -0.0457
     15 C12        -4.3599   -3.8715    3.4560 C.ar      1 <0>        -0.0764
     16 C13        -5.3958   -4.6619    3.9235 C.ar      1 <0>        -0.1247
     17 C14        -6.2353   -4.2398    4.9399 C.ar      1 <0>        -0.1031
     18 C15        -6.0913   -3.0056    5.5500 C.ar      1 <0>        -0.1109
     19 C16        -5.0557   -2.1905    5.0985 C.ar      1 <0>         0.0674
     20 N3         -4.6518   -0.9388    5.4840 N.pl3     1 <0>        -0.4386
     21 C17        -5.2885   -0.1432    6.5366 C.3       1 <0>         0.0582
     22 C18        -2.1743   -1.4014    2.9445 C.2       1 <0>         0.4351
     23 O1         -1.8781   -2.2996    2.1833 O.2       1 <0>        -0.4834
     24 H2          1.0042    1.8801    0.0026 H         1 <0>         0.1202
     25 H3         -0.5455    1.8639   -0.8728 H         1 <0>         0.1154
     26 H4         -0.5286    1.8543    0.9071 H         1 <0>         0.1111
     27 H5          0.0365   -2.8993   -1.3550 H         1 <0>         0.2206
     28 H6          0.0489   -2.9814    1.2688 H         1 <0>         0.2208
     29 H7          0.4812   -1.1244    3.1154 H         1 <0>         0.1274
     30 H8          0.6082    0.5674    2.5767 H         1 <0>         0.1264
     31 H9         -0.8997   -0.2132    5.0399 H         1 <0>         0.0860
     32 H10        -0.8320    1.4257    4.3579 H         1 <0>         0.0979
     33 H11        -2.7965    1.0950    5.8867 H         1 <0>         0.1003
     34 H12        -3.2899    1.5053    4.2230 H         1 <0>         0.1037
     35 H13        -3.7083   -4.2053    2.6621 H         1 <0>         0.1362
     36 H14        -5.5535   -5.6351    3.4825 H         1 <0>         0.1266
     37 H15        -7.0290   -4.8948    5.2675 H         1 <0>         0.1297
     38 H16        -6.7537   -2.6880    6.3417 H         1 <0>         0.1330
     39 H17        -6.0755    0.4723    6.1009 H         1 <0>         0.0853
     40 H18        -5.7197   -0.8087    7.2844 H         1 <0>         0.0946
     41 H19        -4.5439    0.4986    7.0075 H         1 <0>         0.0930
     42 H20        -0.0004   -0.4384   -1.9781 H         1 <0>         0.4599
@<TRIPOS>BOND
     1    1    2 1
     2    1   24 1
     3    1   25 1
     4    1   26 1
     5    2    6 1
     6    2    3 2
     7    3    4 1
     8    3   42 1
     9    4    5 2
    10    4   27 1
    11    5    6 1
    12    5   28 1
    13    6    7 1
    14    7    8 1
    15    7   29 1
    16    7   30 1
    17    8    9 1
    18    8   22 1
    19    8   10 1
    20   10   11 1
    21   10   31 1
    22   10   32 1
    23   11   12 1
    24   11   33 1
    25   11   34 1
    26   12   20 1
    27   12   13 2
    28   13   14 1
    29   13   22 1
    30   14   19 ar
    31   14   15 ar
    32   15   16 ar
    33   15   35 1
    34   16   17 ar
    35   16   36 1
    36   17   18 ar
    37   17   37 1
    38   18   19 ar
    39   18   38 1
    40   19   20 1
    41   20   21 1
    42   21   39 1
    43   21   40 1
    44   21   41 1
    45   22   23 2
@<TRIPOS>MOLECULE
ZINC00075126
   41    44     0     0     0
SMALL
USER_CHARGES

@<TRIPOS>ATOM
      1 C1         -0.0184    1.5028    0.0103 C.3       1 <0>        -0.0661
      2 C2          0.0021   -0.0041    0.0020 C.2       1 <0>         0.1869
      3 N1          0.0080   -0.7588   -1.0626 N.2       1 <0>        -0.4889
      4 C3          0.0275   -2.0475   -0.6911 C.2       1 <0>        -0.0505
      5 C4          0.0339   -2.0930    0.6548 C.2       1 <0>         0.0014
      6 N2          0.0232   -0.7970    1.0950 N.pl3     1 <0>        -0.4534
      7 C5          0.0304   -0.3529    2.4910 C.3       1 <0>         0.1206
      8 C6         -1.4059   -0.0982    2.9525 C.3       1 <0>        -0.1509
      9 H1         -1.8841    0.6077    2.2734 H         1 <0>         0.1102
     10 C7         -1.3885    0.4885    4.3640 C.3       1 <0>        -0.1025
     11 C8         -2.8183    0.7509    4.8527 C.3       1 <0>        -0.0640
     12 C9         -3.5900   -0.5440    4.7622 C.2       1 <0>         0.1489
     13 C10        -3.2525   -1.5391    3.8511 C.2       1 <0>        -0.2766
     14 C11        -4.1973   -2.6242    4.0575 C.ar      1 <0>        -0.0486
     15 C12        -4.3599   -3.8715    3.4560 C.ar      1 <0>        -0.0694
     16 C13        -5.3958   -4.6619    3.9235 C.ar      1 <0>        -0.1332
     17 C14        -6.2353   -4.2398    4.9399 C.ar      1 <0>        -0.1059
     18 C15        -6.0913   -3.0056    5.5500 C.ar      1 <0>        -0.1184
     19 C16        -5.0557   -2.1905    5.0985 C.ar      1 <0>         0.0708
     20 N3         -4.6518   -0.9388    5.4840 N.pl3     1 <0>        -0.4469
     21 C17        -5.2885   -0.1432    6.5366 C.3       1 <0>         0.0636
     22 C18        -2.1743   -1.4014    2.9445 C.2       1 <0>         0.4259
     23 O1         -1.8781   -2.2996    2.1833 O.2       1 <0>        -0.4545
     24 H2          1.0042    1.8801    0.0026 H         1 <0>         0.0774
     25 H3         -0.5455    1.8639   -0.8728 H         1 <0>         0.0878
     26 H4         -0.5286    1.8543    0.9071 H         1 <0>         0.0677
     27 H5          0.0365   -2.8993   -1.3550 H         1 <0>         0.1650
     28 H6          0.0489   -2.9814    1.2688 H         1 <0>         0.1714
     29 H7          0.4812   -1.1244    3.1154 H         1 <0>         0.0947
     30 H8          0.6082    0.5674    2.5767 H         1 <0>         0.0991
     31 H9         -0.8997   -0.2132    5.0399 H         1 <0>         0.0787
     32 H10        -0.8320    1.4257    4.3579 H         1 <0>         0.0916
     33 H11        -2.7965    1.0950    5.8867 H         1 <0>         0.0925
     34 H12        -3.2899    1.5053    4.2230 H         1 <0>         0.0998
     35 H13        -3.7083   -4.2053    2.6621 H         1 <0>         0.1378
     36 H14        -5.5535   -5.6351    3.4825 H         1 <0>         0.1237
     37 H15        -7.0290   -4.8948    5.2675 H         1 <0>         0.1251
     38 H16        -6.7537   -2.6880    6.3417 H         1 <0>         0.1289
     39 H17        -6.0755    0.4723    6.1009 H         1 <0>         0.0805
     40 H18        -5.7197   -0.8087    7.2844 H         1 <0>         0.0898
     41 H19        -4.5439    0.4986    7.0075 H         1 <0>         0.0898
@<TRIPOS>BOND
     1    1    2 1
     2    1   24 1
     3    1   25 1
     4    1   26 1
     5    2    6 1
     6    2    3 2
     7    3    4 1
     8    4    5 2
     9    4   27 1
    10    5    6 1
    11    5   28 1
    12    6    7 1
    13    7    8 1
    14    7   29 1
    15    7   30 1
    16    8    9 1
    17    8   22 1
    18    8   10 1
    19   10   11 1
    20   10   31 1
    21   10   32 1
    22   11   12 1
    23   11   33 1
    24   11   34 1
    25   12   20 1
    26   12   13 2
    27   13   14 1
    28   13   22 1
    29   14   19 ar
    30   14   15 ar
    31   15   16 ar
    32   15   35 1
    33   16   17 ar
    34   16   36 1
    35   17   18 ar
    36   17   37 1
    37   18   19 ar
    38   18   38 1
    39   19   20 1
    40   20   21 1
    41   21   39 1
    42   21   40 1
    43   21   41 1
    44   22   23 2
@<TRIPOS>MOLECULE
ZINC00598360
   66    69     0     0     0
SMALL
USER_CHARGES

@<TRIPOS>ATOM
      1 C1          0.1199    1.4815    0.3613 C.3       1 <0>        -0.1213
      2 C2          0.0696   -0.0129    0.1735 C.2       1 <0>         0.2434
      3 C3         -1.1199   -0.6380    0.1381 C.2       1 <0>        -0.2570
      4 C4         -1.2182   -2.1246   -0.0552 C.3       1 <0>         0.0905
      5 H1         -1.9570   -2.5285    0.6370 H         1 <0>         0.1021
      6 C5          0.1084   -2.7828    0.1977 C.2       1 <0>        -0.2517
      7 C6          1.2487   -2.0717    0.2307 C.2       1 <0>         0.2091
      8 N1          1.2351   -0.7162    0.0354 N.pl3     1 <0>        -0.6285
      9 C7          2.5578   -2.7755    0.4795 C.3       1 <0>        -0.1366
     10 C8          0.1586   -4.1806    0.4060 C.2       1 <0>         0.5467
     11 O1         -0.2232   -4.6527    1.4606 O.2       1 <0>        -0.4771
     12 O2          0.6299   -4.9910   -0.5647 O.3       1 <0>        -0.3290
     13 C9          0.6519   -6.3924   -0.2860 C.3       1 <0>         0.0662
     14 H2         -0.1434   -6.6628    0.4086 H         1 <0>         0.1220
     15 C10         2.0375   -6.8291    0.2583 C.3       1 <0>        -0.1621
     16 C11         2.1142   -8.3179   -0.1404 C.3       1 <0>        -0.0123
     17 N2          1.1817   -8.5175   -1.2650 N.4       1 <0>        -0.3856
     18 C12         0.5529   -7.2195   -1.5920 C.3       1 <0>        -0.0067
     19 C13         1.9168   -9.0196   -2.4335 C.3       1 <0>         0.0469
     20 C14         2.4400  -10.4024   -2.1417 C.ar      1 <0>        -0.1636
     21 C15         3.6885  -10.5628   -1.5703 C.ar      1 <0>        -0.0968
     22 C16         4.1684  -11.8312   -1.3027 C.ar      1 <0>        -0.1128
     23 C17         3.3996  -12.9393   -1.6060 C.ar      1 <0>        -0.0825
     24 C18         2.1508  -12.7789   -2.1766 C.ar      1 <0>        -0.1119
     25 C19         1.6691  -11.5103   -2.4403 C.ar      1 <0>        -0.0924
     26 C20        -1.6530   -2.4135   -1.4689 C.ar      1 <0>        -0.0766
     27 C21        -0.8761   -1.9902   -2.5313 C.ar      1 <0>        -0.0505
     28 C22        -1.2748   -2.2551   -3.8278 C.ar      1 <0>        -0.1152
     29 C23        -2.4505   -2.9438   -4.0624 C.ar      1 <0>        -0.0557
     30 C24        -3.2267   -3.3678   -3.0004 C.ar      1 <0>        -0.0465
     31 C25        -2.8257   -3.1065   -1.7033 C.ar      1 <0>        -0.0418
     32 N3         -4.4857   -4.1047   -3.2516 N.pl3     1 <0>         0.0305
     33 O3         -4.8349   -4.3357   -4.3857 O.2       1 <0>        -0.1546
     34 O4         -5.1647   -4.4755   -2.3226 O.3       1 <0>        -0.1547
     35 C26        -2.3044    0.1202    0.2866 C.2       1 <0>         0.5156
     36 O5         -2.2399    1.3250    0.4443 O.2       1 <0>        -0.5113
     37 O6         -3.5063   -0.4926    0.2534 O.3       1 <0>        -0.3525
     38 C27        -4.6609    0.3348    0.4098 C.3       1 <0>         0.0353
     39 H3          1.1582    1.8131    0.3601 H         1 <0>         0.0681
     40 H4         -0.4179    1.9682   -0.4523 H         1 <0>         0.1064
     41 H5         -0.3443    1.7440    1.3119 H         1 <0>         0.1089
     42 H6          2.0544   -0.2521   -0.1974 H         1 <0>         0.4282
     43 H7          2.9650   -3.1307   -0.4671 H         1 <0>         0.0982
     44 H8          3.2613   -2.0820    0.9403 H         1 <0>         0.0919
     45 H9          2.3940   -3.6228    1.1454 H         1 <0>         0.0845
     46 H10         2.8357   -6.2607   -0.2191 H         1 <0>         0.1103
     47 H11         2.0785   -6.7177    1.3418 H         1 <0>         0.1207
     48 H12         3.1288   -8.5667   -0.4514 H         1 <0>         0.1383
     49 H13         1.8184   -8.9431    0.7020 H         1 <0>         0.1369
     50 H14        -0.4906   -7.3626   -1.8724 H         1 <0>         0.1456
     51 H15         1.0986   -6.7258   -2.3961 H         1 <0>         0.1472
     52 H16         1.2488   -9.0579   -3.2940 H         1 <0>         0.1389
     53 H17         2.7518   -8.3537   -2.6511 H         1 <0>         0.1369
     54 H18         4.2891   -9.6970   -1.3334 H         1 <0>         0.1298
     55 H19         5.1441  -11.9565   -0.8569 H         1 <0>         0.1365
     56 H20         3.7748  -13.9303   -1.3976 H         1 <0>         0.1366
     57 H21         1.5503  -13.6447   -2.4139 H         1 <0>         0.1371
     58 H22         0.6918  -11.3849   -2.8826 H         1 <0>         0.1321
     59 H23         0.0423   -1.4522   -2.3480 H         1 <0>         0.1328
     60 H24        -0.6682   -1.9238   -4.6577 H         1 <0>         0.1482
     61 H25        -2.7624   -3.1502   -5.0756 H         1 <0>         0.1543
     62 H26        -3.4303   -3.4410   -0.8733 H         1 <0>         0.1529
     63 H27        -5.5586   -0.2817    0.3639 H         1 <0>         0.1032
     64 H28        -4.6169    0.8413    1.3740 H         1 <0>         0.0634
     65 H29        -4.6878    1.0759   -0.3890 H         1 <0>         0.0609
     66 H30         0.4698   -9.1823   -1.0018 H         1 <0>         0.4302
@<TRIPOS>BOND
     1    1    2 1
     2    1   39 1
     3    1   40 1
     4    1   41 1
     5    2    8 1
     6    2    3 2
     7    3    4 1
     8    3   35 1
     9    4    5 1
    10    4    6 1
    11    4   26 1
    12    6    7 2
    13    6   10 1
    14    7    8 1
    15    7    9 1
    16    8   42 1
    17    9   43 1
    18    9   44 1
    19    9   45 1
    20   10   11 2
    21   10   12 1
    22   12   13 1
    23   13   14 1
    24   13   18 1
    25   13   15 1
    26   15   16 1
    27   15   46 1
    28   15   47 1
    29   16   17 1
    30   16   48 1
    31   16   49 1
    32   17   18 1
    33   17   19 1
    34   17   66 1
    35   18   50 1
    36   18   51 1
    37   19   20 1
    38   19   52 1
    39   19   53 1
    40   20   25 ar
    41   20   21 ar
    42   21   22 ar
    43   21   54 1
    44   22   23 ar
    45   22   55 1
    46   23   24 ar
    47   23   56 1
    48   24   25 ar
    49   24   57 1
    50   25   58 1
    51   26   31 ar
    52   26   27 ar
    53   27   28 ar
    54   27   59 1
    55   28   29 ar
    56   28   60 1
    57   29   30 ar
    58   29   61 1
    59   30   31 ar
    60   30   32 1
    61   31   62 1
    62   32   33 2
    63   32   34 1
    64   35   36 2
    65   35   37 1
    66   37   38 1
    67   38   63 1
    68   38   64 1
    69   38   65 1
@<TRIPOS>MOLECULE
ZINC00598360
   65    68     0     0     0
SMALL
USER_CHARGES

@<TRIPOS>ATOM
      1 C1          0.1199    1.4815    0.3613 C.3       1 <0>        -0.1182
      2 C2          0.0696   -0.0129    0.1735 C.2       1 <0>         0.2454
      3 C3         -1.1199   -0.6380    0.1381 C.2       1 <0>        -0.2626
      4 C4         -1.2182   -2.1246   -0.0552 C.3       1 <0>         0.0882
      5 H1         -1.9570   -2.5285    0.6370 H         1 <0>         0.1016
      6 C5          0.1084   -2.7828    0.1977 C.2       1 <0>        -0.2314
      7 C6          1.2487   -2.0717    0.2307 C.2       1 <0>         0.1916
      8 N1          1.2351   -0.7162    0.0354 N.pl3     1 <0>        -0.6295
      9 C7          2.5578   -2.7755    0.4795 C.3       1 <0>        -0.1330
     10 C8          0.1586   -4.1806    0.4060 C.2       1 <0>         0.5338
     11 O1         -0.2232   -4.6527    1.4606 O.2       1 <0>        -0.4888
     12 O2          0.6299   -4.9910   -0.5647 O.3       1 <0>        -0.3362
     13 C9          0.6519   -6.3924   -0.2860 C.3       1 <0>         0.0748
     14 H2         -0.1434   -6.6628    0.4086 H         1 <0>         0.1030
     15 C10         2.0375   -6.8291    0.2583 C.3       1 <0>        -0.1598
     16 C11         2.1142   -8.3179   -0.1404 C.3       1 <0>         0.0431
     17 N2          1.1817   -8.5175   -1.2650 N.3       1 <0>        -0.5173
     18 C12         0.5529   -7.2195   -1.5920 C.3       1 <0>         0.0497
     19 C13         1.8770   -9.0752   -2.4327 C.3       1 <0>         0.0897
     20 C14         2.2747  -10.5004   -2.1471 C.ar      1 <0>        -0.0804
     21 C15         3.5008  -10.7734   -1.5698 C.ar      1 <0>        -0.1144
     22 C16         3.8656  -12.0808   -1.3079 C.ar      1 <0>        -0.1207
     23 C17         3.0043  -13.1151   -1.6228 C.ar      1 <0>        -0.1184
     24 C18         1.7779  -12.8420   -2.1993 C.ar      1 <0>        -0.1199
     25 C19         1.4112  -11.5344   -2.4573 C.ar      1 <0>        -0.0972
     26 C20        -1.6530   -2.4135   -1.4689 C.ar      1 <0>        -0.0737
     27 C21        -0.8761   -1.9902   -2.5313 C.ar      1 <0>        -0.0493
     28 C22        -1.2748   -2.2551   -3.8278 C.ar      1 <0>        -0.1163
     29 C23        -2.4505   -2.9438   -4.0624 C.ar      1 <0>        -0.0559
     30 C24        -3.2267   -3.3678   -3.0004 C.ar      1 <0>        -0.0458
     31 C25        -2.8257   -3.1065   -1.7033 C.ar      1 <0>        -0.0385
     32 N3         -4.4857   -4.1047   -3.2516 N.pl3     1 <0>         0.0336
     33 O3         -4.8349   -4.3357   -4.3857 O.2       1 <0>        -0.1594
     34 O4         -5.1647   -4.4755   -2.3226 O.3       1 <0>        -0.1555
     35 C26        -2.3044    0.1202    0.2866 C.2       1 <0>         0.5193
     36 O5         -2.2399    1.3250    0.4443 O.2       1 <0>        -0.5188
     37 O6         -3.5063   -0.4926    0.2534 O.3       1 <0>        -0.3505
     38 C27        -4.6609    0.3348    0.4098 C.3       1 <0>         0.0364
     39 H3          1.1582    1.8131    0.3601 H         1 <0>         0.0655
     40 H4         -0.4179    1.9682   -0.4523 H         1 <0>         0.1039
     41 H5         -0.3443    1.7440    1.3119 H         1 <0>         0.1064
     42 H6          2.0544   -0.2521   -0.1974 H         1 <0>         0.4252
     43 H7          2.9650   -3.1307   -0.4671 H         1 <0>         0.0972
     44 H8          3.2613   -2.0820    0.9403 H         1 <0>         0.0863
     45 H9          2.3940   -3.6228    1.1454 H         1 <0>         0.0865
     46 H10         2.8357   -6.2607   -0.2191 H         1 <0>         0.0781
     47 H11         2.0785   -6.7177    1.3418 H         1 <0>         0.0838
     48 H12         3.1288   -8.5667   -0.4514 H         1 <0>         0.0659
     49 H13         1.8184   -8.9431    0.7020 H         1 <0>         0.0844
     50 H14        -0.4906   -7.3626   -1.8724 H         1 <0>         0.0915
     51 H15         1.0986   -6.7258   -2.3961 H         1 <0>         0.0620
     52 H16         1.2135   -9.0494   -3.2971 H         1 <0>         0.0859
     53 H17         2.7686   -8.4840   -2.6412 H         1 <0>         0.0477
     54 H18         4.1737   -9.9653   -1.3238 H         1 <0>         0.1172
     55 H19         4.8238  -12.2941   -0.8575 H         1 <0>         0.1213
     56 H20         3.2896  -14.1365   -1.4188 H         1 <0>         0.1214
     57 H21         1.1051  -13.6502   -2.4456 H         1 <0>         0.1227
     58 H22         0.4516  -11.3208   -2.9042 H         1 <0>         0.1227
     59 H23         0.0423   -1.4522   -2.3480 H         1 <0>         0.1320
     60 H24        -0.6682   -1.9238   -4.6577 H         1 <0>         0.1465
     61 H25        -2.7624   -3.1502   -5.0756 H         1 <0>         0.1528
     62 H26        -3.4303   -3.4410   -0.8733 H         1 <0>         0.1529
     63 H27        -5.5586   -0.2817    0.3639 H         1 <0>         0.1017
     64 H28        -4.6169    0.8413    1.3740 H         1 <0>         0.0613
     65 H29        -4.6878    1.0759   -0.3890 H         1 <0>         0.0589
@<TRIPOS>BOND
     1    1    2 1
     2    1   39 1
     3    1   40 1
     4    1   41 1
     5    2    8 1
     6    2    3 2
     7    3    4 1
     8    3   35 1
     9    4    5 1
    10    4    6 1
    11    4   26 1
    12    6    7 2
    13    6   10 1
    14    7    8 1
    15    7    9 1
    16    8   42 1
    17    9   43 1
    18    9   44 1
    19    9   45 1
    20   10   11 2
    21   10   12 1
    22   12   13 1
    23   13   14 1
    24   13   18 1
    25   13   15 1
    26   15   16 1
    27   15   46 1
    28   15   47 1
    29   16   17 1
    30   16   48 1
    31   16   49 1
    32   17   18 1
    33   17   19 1
    34   18   50 1
    35   18   51 1
    36   19   20 1
    37   19   52 1
    38   19   53 1
    39   20   25 ar
    40   20   21 ar
    41   21   22 ar
    42   21   54 1
    43   22   23 ar
    44   22   55 1
    45   23   24 ar
    46   23   56 1
    47   24   25 ar
    48   24   57 1
    49   25   58 1
    50   26   31 ar
    51   26   27 ar
    52   27   28 ar
    53   27   59 1
    54   28   29 ar
    55   28   60 1
    56   29   30 ar
    57   29   61 1
    58   30   31 ar
    59   30   32 1
    60   31   62 1
    61   32   33 2
    62   32   34 1
    63   35   36 2
    64   35   37 1
    65   37   38 1
    66   38   63 1
    67   38   64 1
    68   38   65 1
@<TRIPOS>MOLECULE
ZINC00598360
   64    67     0     0     0
SMALL
USER_CHARGES

@<TRIPOS>ATOM
      1 C1         -0.4160    1.4619    0.0870 C.3       1 <0>        -0.0961
      2 C2         -0.1904   -0.0273    0.0388 C.2       1 <0>         0.2810
      3 C3         -1.2753   -0.8558    0.0055 C.2       1 <0>        -0.3739
      4 C4         -1.0162   -2.3505   -0.0432 C.3       1 <0>         0.1290
      5 H1         -1.4890   -2.7490   -0.9409 H         1 <0>         0.0463
      6 C5          0.4433   -2.7695   -0.0498 C.2       1 <0>        -0.3946
      7 C6          0.8101   -4.0967   -0.0928 C.2       1 <0>         0.4706
      8 O1         -0.1302   -5.0587   -0.0126 O.3       1 <0>        -0.6389
      9 O2          2.1094   -4.4331   -0.2150 O.3       1 <0>        -0.3351
     10 C7          2.4176   -5.8279   -0.2531 C.3       1 <0>         0.0381
     11 C8          1.3971   -1.7509   -0.0108 C.2       1 <0>         0.2944
     12 N1          1.0526   -0.4838    0.0248 N.2       1 <0>        -0.6431
     13 C9          2.8597   -2.1142   -0.0155 C.3       1 <0>        -0.1044
     14 C10        -1.6781   -2.9824    1.1542 C.ar      1 <0>        -0.0234
     15 C11        -1.3109   -2.5974    2.4303 C.ar      1 <0>        -0.0619
     16 C12        -1.9180   -3.1769    3.5285 C.ar      1 <0>        -0.1303
     17 C13        -2.8927   -4.1413    3.3508 C.ar      1 <0>        -0.0807
     18 C14        -3.2603   -4.5254    2.0751 C.ar      1 <0>        -0.0489
     19 C15        -2.6562   -3.9427    0.9765 C.ar      1 <0>        -0.0029
     20 N2         -4.3035   -5.5582    1.8850 N.pl3     1 <0>         0.0473
     21 O3         -4.8339   -6.0657    2.8456 O.2       1 <0>        -0.1882
     22 O4         -4.6251   -5.8943    0.7690 O.3       1 <0>        -0.1645
     23 C16        -2.5843   -0.3431    0.0164 C.2       1 <0>         0.5242
     24 O5         -2.7666    0.8604    0.0562 O.2       1 <0>        -0.5569
     25 O6         -3.6397   -1.1853   -0.0172 O.3       1 <0>        -0.3422
     26 C17        -4.9412   -0.5953   -0.0036 C.3       1 <0>         0.0840
     27 H2         -4.9145    0.3891   -0.4709 H         1 <0>         0.0846
     28 C18        -5.4661   -0.4869    1.4465 C.3       1 <0>        -0.1376
     29 C19        -6.9670   -0.8420    1.2991 C.3       1 <0>         0.0397
     30 N3         -6.9636   -1.9110    0.2679 N.3       1 <0>        -0.5035
     31 C20        -5.9481   -1.5052   -0.7313 C.3       1 <0>         0.0391
     32 C21        -8.2876   -2.0466   -0.3541 C.3       1 <0>         0.0844
     33 C22        -9.2544   -2.6289    0.6445 C.ar      1 <0>        -0.0749
     34 C23        -9.4083   -3.9994    0.7395 C.ar      1 <0>        -0.0944
     35 C24       -10.2951   -4.5335    1.6554 C.ar      1 <0>        -0.1192
     36 C25       -11.0278   -3.6972    2.4768 C.ar      1 <0>        -0.1224
     37 C26       -10.8733   -2.3267    2.3825 C.ar      1 <0>        -0.1242
     38 C27        -9.9832   -1.7927    1.4695 C.ar      1 <0>        -0.1148
     39 H3          0.5457    1.9747    0.1043 H         1 <0>         0.0545
     40 H4         -0.9778    1.7730   -0.7938 H         1 <0>         0.0766
     41 H5         -0.9790    1.7152    0.9853 H         1 <0>         0.0758
     42 H6          2.0782   -6.3003    0.6688 H         1 <0>         0.0503
     43 H7          1.9146   -6.2881   -1.1036 H         1 <0>         0.0519
     44 H8          3.4950   -5.9594   -0.3534 H         1 <0>         0.0854
     45 H9          3.1097   -2.6028   -0.9572 H         1 <0>         0.0792
     46 H10         3.4589   -1.2104    0.0951 H         1 <0>         0.0636
     47 H11         3.0684   -2.7920    0.8122 H         1 <0>         0.0768
     48 H12        -0.5495   -1.8442    2.5690 H         1 <0>         0.1254
     49 H13        -1.6306   -2.8768    4.5253 H         1 <0>         0.1323
     50 H14        -3.3665   -4.5946    4.2090 H         1 <0>         0.1377
     51 H15        -2.9461   -4.2402   -0.0204 H         1 <0>         0.1389
     52 H16        -4.9617   -1.2042    2.0939 H         1 <0>         0.0812
     53 H17        -5.3452    0.5279    1.8256 H         1 <0>         0.0762
     54 H18        -7.3678   -1.2171    2.2408 H         1 <0>         0.0832
     55 H19        -7.5349    0.0225    0.9552 H         1 <0>         0.0448
     56 H20        -6.4237   -0.9570   -1.5445 H         1 <0>         0.0548
     57 H21        -5.4381   -2.3858   -1.1218 H         1 <0>         0.0970
     58 H22        -8.6412   -1.0662   -0.6732 H         1 <0>         0.0441
     59 H23        -8.2169   -2.7065   -1.2188 H         1 <0>         0.0854
     60 H24        -8.8359   -4.6528    0.0977 H         1 <0>         0.1247
     61 H25       -10.4159   -5.6042    1.7291 H         1 <0>         0.1219
     62 H26       -11.7212   -4.1144    3.1920 H         1 <0>         0.1186
     63 H27       -11.4459   -1.6733    3.0240 H         1 <0>         0.1183
     64 H28        -9.8598   -0.7222    1.3983 H         1 <0>         0.1157
@<TRIPOS>BOND
     1    1    2 1
     2    1   39 1
     3    1   40 1
     4    1   41 1
     5    2   12 1
     6    2    3 2
     7    3    4 1
     8    3   23 1
     9    4    5 1
    10    4    6 1
    11    4   14 1
    12    6    7 2
    13    6   11 1
    14    7    8 1
    15    7    9 1
    16    9   10 1
    17   10   42 1
    18   10   43 1
    19   10   44 1
    20   11   12 2
    21   11   13 1
    22   13   45 1
    23   13   46 1
    24   13   47 1
    25   14   19 ar
    26   14   15 ar
    27   15   16 ar
    28   15   48 1
    29   16   17 ar
    30   16   49 1
    31   17   18 ar
    32   17   50 1
    33   18   19 ar
    34   18   20 1
    35   19   51 1
    36   20   21 2
    37   20   22 1
    38   23   24 2
    39   23   25 1
    40   25   26 1
    41   26   27 1
    42   26   31 1
    43   26   28 1
    44   28   29 1
    45   28   52 1
    46   28   53 1
    47   29   30 1
    48   29   54 1
    49   29   55 1
    50   30   31 1
    51   30   32 1
    52   31   56 1
    53   31   57 1
    54   32   33 1
    55   32   58 1
    56   32   59 1
    57   33   38 ar
    58   33   34 ar
    59   34   35 ar
    60   34   60 1
    61   35   36 ar
    62   35   61 1
    63   36   37 ar
    64   36   62 1
    65   37   38 ar
    66   37   63 1
    67   38   64 1
@<TRIPOS>MOLECULE
ZINC22009607
   66    69     0     0     0
SMALL
USER_CHARGES

@<TRIPOS>ATOM
      1 C1          0.1310    1.4843    0.3352 C.3       1 <0>        -0.1214
      2 C2          0.0750   -0.0115    0.1608 C.2       1 <0>         0.2436
      3 C3         -1.1168   -0.6328    0.1352 C.2       1 <0>        -0.2573
      4 C4         -1.2208   -2.1207   -0.0446 C.3       1 <0>         0.0907
      5 H1         -1.9585   -2.5159    0.6537 H         1 <0>         0.1019
      6 C5          0.1045   -2.7812    0.2095 C.2       1 <0>        -0.2519
      7 C6          1.2473   -2.0738    0.2322 C.2       1 <0>         0.2091
      8 N1          1.2376   -0.7200    0.0250 N.pl3     1 <0>        -0.6284
      9 C7          2.5548   -2.7798    0.4827 C.3       1 <0>        -0.1365
     10 C8          0.1506   -4.1773    0.4300 C.2       1 <0>         0.5462
     11 O1         -0.2284   -4.6387    1.4903 O.2       1 <0>        -0.4771
     12 O2          0.6150   -4.9979   -0.5355 O.3       1 <0>        -0.3298
     13 C9          0.6333   -6.3969   -0.2444 C.3       1 <0>         0.0649
     14 H2          0.7622   -6.5653    0.8248 H         1 <0>         0.1208
     15 C10        -0.6573   -7.0785   -0.7539 C.3       1 <0>        -0.1661
     16 C11        -0.1975   -8.4307   -1.3299 C.3       1 <0>        -0.0031
     17 N2          1.2649   -8.5146   -1.1254 N.4       1 <0>        -0.3902
     18 C12         1.7481   -7.1100   -1.0501 C.3       1 <0>        -0.0012
     19 C13         1.8955   -9.2085   -2.2563 C.3       1 <0>         0.0509
     20 C14         1.4508  -10.6483   -2.2733 C.ar      1 <0>        -0.1642
     21 C15         2.1709  -11.6023   -1.5788 C.ar      1 <0>        -0.0933
     22 C16         1.7630  -12.9230   -1.5944 C.ar      1 <0>        -0.1134
     23 C17         0.6349  -13.2897   -2.3041 C.ar      1 <0>        -0.0823
     24 C18        -0.0856  -12.3355   -2.9979 C.ar      1 <0>        -0.1130
     25 C19         0.3198  -11.0141   -2.9788 C.ar      1 <0>        -0.0940
     26 C20        -1.6615   -2.4206   -1.4542 C.ar      1 <0>        -0.0760
     27 C21        -0.8868   -2.0094   -2.5230 C.ar      1 <0>        -0.0503
     28 C22        -1.2911   -2.2844   -3.8157 C.ar      1 <0>        -0.1150
     29 C23        -2.4698   -2.9711   -4.0401 C.ar      1 <0>        -0.0558
     30 C24        -3.2438   -3.3830   -2.9717 C.ar      1 <0>        -0.0466
     31 C25        -2.8373   -3.1116   -1.6784 C.ar      1 <0>        -0.0420
     32 N3         -4.5061   -4.1177   -3.2119 N.pl3     1 <0>         0.0307
     33 O3         -4.8601   -4.3576   -4.3428 O.2       1 <0>        -0.1551
     34 O4         -5.1831   -4.4780   -2.2773 O.3       1 <0>        -0.1545
     35 C26        -2.2981    0.1307    0.2810 C.2       1 <0>         0.5156
     36 O5         -2.2290    1.3367    0.4278 O.2       1 <0>        -0.5113
     37 O6         -3.5022   -0.4782    0.2574 O.3       1 <0>        -0.3526
     38 C27        -4.6534    0.3545    0.4106 C.3       1 <0>         0.0353
     39 H3          1.1705    1.8123    0.3275 H         1 <0>         0.0681
     40 H4         -0.4080    1.9656   -0.4808 H         1 <0>         0.1064
     41 H5         -0.3289    1.7568    1.2851 H         1 <0>         0.1089
     42 H6          2.0577   -0.2607   -0.2148 H         1 <0>         0.4283
     43 H7          2.9625   -3.1361   -0.4633 H         1 <0>         0.0985
     44 H8          3.2590   -2.0874    0.9440 H         1 <0>         0.0921
     45 H9          2.3888   -3.6266    1.1486 H         1 <0>         0.0843
     46 H10        -1.3531   -7.2354    0.0703 H         1 <0>         0.1160
     47 H11        -1.1223   -6.4741   -1.5327 H         1 <0>         0.1125
     48 H12        -0.6934   -9.2463   -0.8037 H         1 <0>         0.1374
     49 H13        -0.4270   -8.4782   -2.3944 H         1 <0>         0.1342
     50 H14         1.8359   -6.6809   -2.0482 H         1 <0>         0.1478
     51 H15         2.6998   -7.0552   -0.5216 H         1 <0>         0.1479
     52 H16         1.6009   -8.7262   -3.1884 H         1 <0>         0.1366
     53 H17         2.9795   -9.1642   -2.1510 H         1 <0>         0.1390
     54 H18         3.0523  -11.3158   -1.0243 H         1 <0>         0.1311
     55 H19         2.3260  -13.6684   -1.0523 H         1 <0>         0.1364
     56 H20         0.3167  -14.3216   -2.3169 H         1 <0>         0.1364
     57 H21        -0.9668  -12.6221   -3.5527 H         1 <0>         0.1367
     58 H22        -0.2453  -10.2680   -3.5178 H         1 <0>         0.1294
     59 H23         0.0340   -1.4729   -2.3477 H         1 <0>         0.1329
     60 H24        -0.6863   -1.9625   -4.6506 H         1 <0>         0.1481
     61 H25        -2.7861   -3.1854   -5.0503 H         1 <0>         0.1541
     62 H26        -3.4402   -3.4367   -0.8434 H         1 <0>         0.1527
     63 H27        -5.5534   -0.2593    0.3732 H         1 <0>         0.1031
     64 H28        -4.6043    0.8694    1.3700 H         1 <0>         0.0635
     65 H29        -4.6806    1.0886   -0.3947 H         1 <0>         0.0608
     66 H30         1.4685   -8.9964   -0.2626 H         1 <0>         0.4296
@<TRIPOS>BOND
     1    1    2 1
     2    1   39 1
     3    1   40 1
     4    1   41 1
     5    2    8 1
     6    2    3 2
     7    3    4 1
     8    3   35 1
     9    4    5 1
    10    4    6 1
    11    4   26 1
    12    6    7 2
    13    6   10 1
    14    7    8 1
    15    7    9 1
    16    8   42 1
    17    9   43 1
    18    9   44 1
    19    9   45 1
    20   10   11 2
    21   10   12 1
    22   12   13 1
    23   13   14 1
    24   13   18 1
    25   13   15 1
    26   15   16 1
    27   15   46 1
    28   15   47 1
    29   16   17 1
    30   16   48 1
    31   16   49 1
    32   17   18 1
    33   17   19 1
    34   17   66 1
    35   18   50 1
    36   18   51 1
    37   19   20 1
    38   19   52 1
    39   19   53 1
    40   20   25 ar
    41   20   21 ar
    42   21   22 ar
    43   21   54 1
    44   22   23 ar
    45   22   55 1
    46   23   24 ar
    47   23   56 1
    48   24   25 ar
    49   24   57 1
    50   25   58 1
    51   26   31 ar
    52   26   27 ar
    53   27   28 ar
    54   27   59 1
    55   28   29 ar
    56   28   60 1
    57   29   30 ar
    58   29   61 1
    59   30   31 ar
    60   30   32 1
    61   31   62 1
    62   32   33 2
    63   32   34 1
    64   35   36 2
    65   35   37 1
    66   37   38 1
    67   38   63 1
    68   38   64 1
    69   38   65 1
@<TRIPOS>MOLECULE
ZINC22009607
   65    68     0     0     0
SMALL
USER_CHARGES

@<TRIPOS>ATOM
      1 C1         -0.4160    1.4619    0.0870 C.3       1 <0>        -0.1015
      2 C2         -0.1904   -0.0273    0.0388 C.2       1 <0>         0.3011
      3 C3         -1.2753   -0.8558    0.0055 C.2       1 <0>        -0.3935
      4 C4         -1.0162   -2.3505   -0.0432 C.3       1 <0>         0.1306
      5 H1         -1.4890   -2.7490   -0.9409 H         1 <0>         0.0470
      6 C5          0.4433   -2.7695   -0.0498 C.2       1 <0>        -0.3898
      7 C6          0.8101   -4.0967   -0.0928 C.2       1 <0>         0.4754
      8 O1         -0.1302   -5.0587   -0.0126 O.3       1 <0>        -0.6362
      9 O2          2.1094   -4.4331   -0.2150 O.3       1 <0>        -0.3315
     10 C7          2.4176   -5.8279   -0.2531 C.3       1 <0>         0.0366
     11 C8          1.3971   -1.7509   -0.0108 C.2       1 <0>         0.2993
     12 N1          1.0526   -0.4838    0.0248 N.2       1 <0>        -0.6389
     13 C9          2.8597   -2.1142   -0.0155 C.3       1 <0>        -0.1100
     14 C10        -1.6781   -2.9824    1.1542 C.ar      1 <0>        -0.0253
     15 C11        -1.3109   -2.5974    2.4303 C.ar      1 <0>        -0.0568
     16 C12        -1.9180   -3.1769    3.5285 C.ar      1 <0>        -0.1254
     17 C13        -2.8927   -4.1413    3.3508 C.ar      1 <0>        -0.0791
     18 C14        -3.2603   -4.5254    2.0751 C.ar      1 <0>        -0.0596
     19 C15        -2.6562   -3.9427    0.9765 C.ar      1 <0>        -0.0153
     20 N2         -4.3035   -5.5582    1.8850 N.pl3     1 <0>         0.0421
     21 O3         -4.8339   -6.0657    2.8456 O.2       1 <0>        -0.1778
     22 O4         -4.6251   -5.8943    0.7690 O.3       1 <0>        -0.1736
     23 C16        -2.5843   -0.3431    0.0164 C.2       1 <0>         0.5264
     24 O5         -2.7666    0.8604    0.0562 O.2       1 <0>        -0.5510
     25 O6         -3.6397   -1.1853   -0.0172 O.3       1 <0>        -0.3383
     26 C17        -4.9412   -0.5953   -0.0036 C.3       1 <0>         0.0755
     27 H2         -4.9263    0.3561    0.5281 H         1 <0>         0.1127
     28 C18        -5.4725   -0.4091   -1.4434 C.3       1 <0>        -0.1638
     29 C19        -6.9673   -0.7719   -1.3706 C.3       1 <0>        -0.0025
     30 N3         -7.2631   -1.1118    0.0381 N.4       1 <0>        -0.3877
     31 C20        -5.9744   -1.5609    0.6293 C.3       1 <0>        -0.0059
     32 C21        -8.2548   -2.1938    0.1007 C.3       1 <0>         0.0471
     33 C22        -9.5733   -1.6982   -0.4349 C.ar      1 <0>        -0.1549
     34 C23       -10.4904   -1.1139    0.4186 C.ar      1 <0>        -0.0940
     35 C24       -11.6999   -0.6594   -0.0728 C.ar      1 <0>        -0.1151
     36 C25       -11.9921   -0.7888   -1.4176 C.ar      1 <0>        -0.0877
     37 C26       -11.0747   -1.3723   -2.2713 C.ar      1 <0>        -0.1145
     38 C27        -9.8635   -1.8229   -1.7807 C.ar      1 <0>        -0.0929
     39 H3          0.5457    1.9747    0.1043 H         1 <0>         0.0603
     40 H4         -0.9778    1.7730   -0.7938 H         1 <0>         0.0785
     41 H5         -0.9790    1.7152    0.9853 H         1 <0>         0.0776
     42 H6          1.9146   -6.2881   -1.1036 H         1 <0>         0.0541
     43 H7          3.4950   -5.9594   -0.3534 H         1 <0>         0.0900
     44 H8          2.0782   -6.3003    0.6688 H         1 <0>         0.0525
     45 H9          3.1097   -2.6028   -0.9572 H         1 <0>         0.0833
     46 H10         3.4589   -1.2104    0.0951 H         1 <0>         0.0680
     47 H11         3.0684   -2.7920    0.8122 H         1 <0>         0.0803
     48 H12        -0.5495   -1.8442    2.5690 H         1 <0>         0.1297
     49 H13        -1.6306   -2.8768    4.5253 H         1 <0>         0.1373
     50 H14        -3.3665   -4.5946    4.2090 H         1 <0>         0.1415
     51 H15        -2.9461   -4.2402   -0.0204 H         1 <0>         0.1399
     52 H16        -5.3495    0.6263   -1.7611 H         1 <0>         0.1103
     53 H17        -4.9533   -1.0799   -2.1279 H         1 <0>         0.1139
     54 H18        -7.5718    0.0800   -1.6818 H         1 <0>         0.1313
     55 H19        -7.1727   -1.6300   -2.0106 H         1 <0>         0.1312
     56 H20        -5.7614   -2.5917    0.3461 H         1 <0>         0.1429
     57 H21        -5.9871   -1.4536    1.7140 H         1 <0>         0.1411
     58 H22        -7.9119   -3.0360   -0.5003 H         1 <0>         0.1385
     59 H23        -8.3797   -2.5127    1.1355 H         1 <0>         0.1365
     60 H24       -10.2620   -1.0128    1.4693 H         1 <0>         0.1308
     61 H25       -12.4166   -0.2035    0.5942 H         1 <0>         0.1341
     62 H26       -12.9374   -0.4343   -1.8014 H         1 <0>         0.1335
     63 H27       -11.3032   -1.4737   -3.3220 H         1 <0>         0.1347
     64 H28        -9.1452   -2.2755   -2.4483 H         1 <0>         0.1311
     65 H29        -7.6028   -0.2980    0.5284 H         1 <0>         0.4257
@<TRIPOS>BOND
     1    1    2 1
     2    1   39 1
     3    1   40 1
     4    1   41 1
     5    2   12 1
     6    2    3 2
     7    3    4 1
     8    3   23 1
     9    4    5 1
    10    4    6 1
    11    4   14 1
    12    6    7 2
    13    6   11 1
    14    7    8 1
    15    7    9 1
    16    9   10 1
    17   10   42 1
    18   10   43 1
    19   10   44 1
    20   11   12 2
    21   11   13 1
    22   13   45 1
    23   13   46 1
    24   13   47 1
    25   14   19 ar
    26   14   15 ar
    27   15   16 ar
    28   15   48 1
    29   16   17 ar
    30   16   49 1
    31   17   18 ar
    32   17   50 1
    33   18   19 ar
    34   18   20 1
    35   19   51 1
    36   20   21 2
    37   20   22 1
    38   23   24 2
    39   23   25 1
    40   25   26 1
    41   26   27 1
    42   26   31 1
    43   26   28 1
    44   28   29 1
    45   28   52 1
    46   28   53 1
    47   29   30 1
    48   29   54 1
    49   29   55 1
    50   30   31 1
    51   30   32 1
    52   30   65 1
    53   31   56 1
    54   31   57 1
    55   32   33 1
    56   32   58 1
    57   32   59 1
    58   33   38 ar
    59   33   34 ar
    60   34   35 ar
    61   34   60 1
    62   35   36 ar
    63   35   61 1
    64   36   37 ar
    65   36   62 1
    66   37   38 ar
    67   37   63 1
    68   38   64 1
@<TRIPOS>MOLECULE
ZINC22009607
   64    67     0     0     0
SMALL
USER_CHARGES

@<TRIPOS>ATOM
      1 C1         -0.4160    1.4619    0.0870 C.3       1 <0>        -0.0968
      2 C2         -0.1904   -0.0273    0.0388 C.2       1 <0>         0.2818
      3 C3         -1.2753   -0.8558    0.0055 C.2       1 <0>        -0.3743
      4 C4         -1.0162   -2.3505   -0.0432 C.3       1 <0>         0.1291
      5 H1         -1.4890   -2.7490   -0.9409 H         1 <0>         0.0461
      6 C5          0.4433   -2.7695   -0.0498 C.2       1 <0>        -0.3960
      7 C6          0.8101   -4.0967   -0.0928 C.2       1 <0>         0.4709
      8 O1         -0.1302   -5.0587   -0.0126 O.3       1 <0>        -0.6403
      9 O2          2.1094   -4.4331   -0.2150 O.3       1 <0>        -0.3348
     10 C7          2.4176   -5.8279   -0.2531 C.3       1 <0>         0.0381
     11 C8          1.3971   -1.7509   -0.0108 C.2       1 <0>         0.2954
     12 N1          1.0526   -0.4838    0.0248 N.2       1 <0>        -0.6426
     13 C9          2.8597   -2.1142   -0.0155 C.3       1 <0>        -0.1047
     14 C10        -1.6781   -2.9824    1.1542 C.ar      1 <0>        -0.0225
     15 C11        -1.3109   -2.5974    2.4303 C.ar      1 <0>        -0.0594
     16 C12        -1.9180   -3.1769    3.5285 C.ar      1 <0>        -0.1285
     17 C13        -2.8927   -4.1413    3.3508 C.ar      1 <0>        -0.0800
     18 C14        -3.2603   -4.5254    2.0751 C.ar      1 <0>        -0.0547
     19 C15        -2.6562   -3.9427    0.9765 C.ar      1 <0>        -0.0067
     20 N2         -4.3035   -5.5582    1.8850 N.pl3     1 <0>         0.0448
     21 O3         -4.8339   -6.0657    2.8456 O.2       1 <0>        -0.1835
     22 O4         -4.6251   -5.8943    0.7690 O.3       1 <0>        -0.1707
     23 C16        -2.5843   -0.3431    0.0164 C.2       1 <0>         0.5253
     24 O5         -2.7666    0.8604    0.0562 O.2       1 <0>        -0.5527
     25 O6         -3.6397   -1.1853   -0.0172 O.3       1 <0>        -0.3476
     26 C17        -4.9412   -0.5953   -0.0036 C.3       1 <0>         0.0905
     27 H2         -4.9263    0.3561    0.5281 H         1 <0>         0.0932
     28 C18        -5.4725   -0.4091   -1.4434 C.3       1 <0>        -0.1481
     29 C19        -6.9673   -0.7719   -1.3706 C.3       1 <0>         0.0424
     30 N3         -7.2631   -1.1118    0.0381 N.3       1 <0>        -0.5066
     31 C20        -5.9744   -1.5609    0.6293 C.3       1 <0>         0.0419
     32 C21        -8.2791   -2.1695    0.1223 C.3       1 <0>         0.0829
     33 C22        -9.6127   -1.6210   -0.3156 C.ar      1 <0>        -0.0719
     34 C23       -10.4611   -1.0448    0.6113 C.ar      1 <0>        -0.0984
     35 C24       -11.6844   -0.5417    0.2096 C.ar      1 <0>        -0.1223
     36 C25       -12.0590   -0.6144   -1.1190 C.ar      1 <0>        -0.1233
     37 C26       -11.2102   -1.1898   -2.0460 C.ar      1 <0>        -0.1216
     38 C27        -9.9851   -1.6891   -1.6451 C.ar      1 <0>        -0.1121
     39 H3          0.5457    1.9747    0.1043 H         1 <0>         0.0549
     40 H4         -0.9778    1.7730   -0.7938 H         1 <0>         0.0772
     41 H5         -0.9790    1.7152    0.9853 H         1 <0>         0.0765
     42 H6          2.0782   -6.3003    0.6688 H         1 <0>         0.0503
     43 H7          1.9146   -6.2881   -1.1036 H         1 <0>         0.0518
     44 H8          3.4950   -5.9594   -0.3534 H         1 <0>         0.0857
     45 H9          3.1097   -2.6028   -0.9572 H         1 <0>         0.0794
     46 H10         3.4589   -1.2104    0.0951 H         1 <0>         0.0640
     47 H11         3.0684   -2.7920    0.8122 H         1 <0>         0.0770
     48 H12        -0.5495   -1.8442    2.5690 H         1 <0>         0.1273
     49 H13        -1.6306   -2.8768    4.5253 H         1 <0>         0.1342
     50 H14        -3.3665   -4.5946    4.2090 H         1 <0>         0.1393
     51 H15        -2.9461   -4.2402   -0.0204 H         1 <0>         0.1391
     52 H16        -5.3495    0.6263   -1.7611 H         1 <0>         0.0778
     53 H17        -4.9533   -1.0799   -2.1279 H         1 <0>         0.0777
     54 H18        -7.5718    0.0800   -1.6818 H         1 <0>         0.0801
     55 H19        -7.1727   -1.6300   -2.0106 H         1 <0>         0.0479
     56 H20        -5.7614   -2.5917    0.3461 H         1 <0>         0.0569
     57 H21        -5.9871   -1.4536    1.7140 H         1 <0>         0.0868
     58 H22        -7.9959   -2.9978   -0.5271 H         1 <0>         0.0500
     59 H23        -8.3515   -2.5226    1.1510 H         1 <0>         0.0846
     60 H24       -10.1683   -0.9880    1.6493 H         1 <0>         0.1221
     61 H25       -12.3475   -0.0922    0.9339 H         1 <0>         0.1201
     62 H26       -13.0151   -0.2220   -1.4327 H         1 <0>         0.1186
     63 H27       -11.5031   -1.2469   -3.0840 H         1 <0>         0.1198
     64 H28        -9.3204   -2.1353   -2.3699 H         1 <0>         0.1185
@<TRIPOS>BOND
     1    1    2 1
     2    1   39 1
     3    1   40 1
     4    1   41 1
     5    2   12 1
     6    2    3 2
     7    3    4 1
     8    3   23 1
     9    4    5 1
    10    4    6 1
    11    4   14 1
    12    6    7 2
    13    6   11 1
    14    7    8 1
    15    7    9 1
    16    9   10 1
    17   10   42 1
    18   10   43 1
    19   10   44 1
    20   11   12 2
    21   11   13 1
    22   13   45 1
    23   13   46 1
    24   13   47 1
    25   14   19 ar
    26   14   15 ar
    27   15   16 ar
    28   15   48 1
    29   16   17 ar
    30   16   49 1
    31   17   18 ar
    32   17   50 1
    33   18   19 ar
    34   18   20 1
    35   19   51 1
    36   20   21 2
    37   20   22 1
    38   23   24 2
    39   23   25 1
    40   25   26 1
    41   26   27 1
    42   26   31 1
    43   26   28 1
    44   28   29 1
    45   28   52 1
    46   28   53 1
    47   29   30 1
    48   29   54 1
    49   29   55 1
    50   30   31 1
    51   30   32 1
    52   31   56 1
    53   31   57 1
    54   32   33 1
    55   32   58 1
    56   32   59 1
    57   33   38 ar
    58   33   34 ar
    59   34   35 ar
    60   34   60 1
    61   35   36 ar
    62   35   61 1
    63   36   37 ar
    64   36   62 1
    65   37   38 ar
    66   37   63 1
    67   38   64 1
@<TRIPOS>MOLECULE
ZINC22009607
   65    68     0     0     0
SMALL
USER_CHARGES

@<TRIPOS>ATOM
      1 C1          0.1310    1.4843    0.3352 C.3       1 <0>        -0.1183
      2 C2          0.0750   -0.0115    0.1608 C.2       1 <0>         0.2459
      3 C3         -1.1168   -0.6328    0.1352 C.2       1 <0>        -0.2633
      4 C4         -1.2208   -2.1207   -0.0446 C.3       1 <0>         0.0883
      5 H1         -1.9585   -2.5159    0.6537 H         1 <0>         0.1012
      6 C5          0.1045   -2.7812    0.2095 C.2       1 <0>        -0.2321
      7 C6          1.2473   -2.0738    0.2322 C.2       1 <0>         0.1919
      8 N1          1.2376   -0.7200    0.0250 N.pl3     1 <0>        -0.6294
      9 C7          2.5548   -2.7798    0.4827 C.3       1 <0>        -0.1331
     10 C8          0.1506   -4.1773    0.4300 C.2       1 <0>         0.5333
     11 O1         -0.2284   -4.6387    1.4903 O.2       1 <0>        -0.4887
     12 O2          0.6150   -4.9979   -0.5355 O.3       1 <0>        -0.3384
     13 C9          0.6333   -6.3969   -0.2444 C.3       1 <0>         0.0814
     14 H2          0.7622   -6.5653    0.8248 H         1 <0>         0.1020
     15 C10        -0.6573   -7.0785   -0.7539 C.3       1 <0>        -0.1489
     16 C11        -0.1975   -8.4307   -1.3299 C.3       1 <0>         0.0412
     17 N2          1.2649   -8.5146   -1.1254 N.3       1 <0>        -0.5067
     18 C12         1.7481   -7.1100   -1.0501 C.3       1 <0>         0.0425
     19 C13         1.9104   -9.2359   -2.2304 C.3       1 <0>         0.0871
     20 C14         1.5378  -10.6946   -2.1636 C.ar      1 <0>        -0.0812
     21 C15         2.3159  -11.5740   -1.4341 C.ar      1 <0>        -0.0978
     22 C16         1.9742  -12.9120   -1.3728 C.ar      1 <0>        -0.1208
     23 C17         0.8541  -13.3706   -2.0406 C.ar      1 <0>        -0.1182
     24 C18         0.0755  -12.4911   -2.7694 C.ar      1 <0>        -0.1201
     25 C19         0.4148  -11.1523   -2.8271 C.ar      1 <0>        -0.1130
     26 C20        -1.6615   -2.4206   -1.4542 C.ar      1 <0>        -0.0729
     27 C21        -0.8868   -2.0094   -2.5230 C.ar      1 <0>        -0.0490
     28 C22        -1.2911   -2.2844   -3.8157 C.ar      1 <0>        -0.1163
     29 C23        -2.4698   -2.9711   -4.0401 C.ar      1 <0>        -0.0565
     30 C24        -3.2438   -3.3830   -2.9717 C.ar      1 <0>        -0.0464
     31 C25        -2.8373   -3.1116   -1.6784 C.ar      1 <0>        -0.0389
     32 N3         -4.5061   -4.1177   -3.2119 N.pl3     1 <0>         0.0337
     33 O3         -4.8601   -4.3576   -4.3428 O.2       1 <0>        -0.1601
     34 O4         -5.1831   -4.4780   -2.2773 O.3       1 <0>        -0.1554
     35 C26        -2.2981    0.1307    0.2810 C.2       1 <0>         0.5193
     36 O5         -2.2290    1.3367    0.4278 O.2       1 <0>        -0.5189
     37 O6         -3.5022   -0.4782    0.2574 O.3       1 <0>        -0.3508
     38 C27        -4.6534    0.3545    0.4106 C.3       1 <0>         0.0364
     39 H3          1.1705    1.8123    0.3275 H         1 <0>         0.0657
     40 H4         -0.4080    1.9656   -0.4808 H         1 <0>         0.1038
     41 H5         -0.3289    1.7568    1.2851 H         1 <0>         0.1064
     42 H6          2.0577   -0.2607   -0.2148 H         1 <0>         0.4254
     43 H7          2.9625   -3.1361   -0.4633 H         1 <0>         0.0982
     44 H8          3.2590   -2.0874    0.9440 H         1 <0>         0.0864
     45 H9          2.3888   -3.6266    1.1486 H         1 <0>         0.0870
     46 H10        -1.3531   -7.2354    0.0703 H         1 <0>         0.0835
     47 H11        -1.1223   -6.4741   -1.5327 H         1 <0>         0.0756
     48 H12        -0.6934   -9.2463   -0.8037 H         1 <0>         0.0865
     49 H13        -0.4270   -8.4782   -2.3944 H         1 <0>         0.0509
     50 H14         1.8359   -6.6809   -2.0482 H         1 <0>         0.0604
     51 H15         2.6998   -7.0552   -0.5216 H         1 <0>         0.0946
     52 H16         1.5768   -8.8189   -3.1806 H         1 <0>         0.0483
     53 H17         2.9924   -9.1332   -2.1484 H         1 <0>         0.0871
     54 H18         3.1910  -11.2157   -0.9123 H         1 <0>         0.1223
     55 H19         2.5825  -13.5992   -0.8034 H         1 <0>         0.1224
     56 H20         0.5875  -14.4161   -1.9933 H         1 <0>         0.1215
     57 H21        -0.7994  -12.8495   -3.2914 H         1 <0>         0.1218
     58 H22        -0.1956  -10.4644   -3.3934 H         1 <0>         0.1170
     59 H23         0.0340   -1.4729   -2.3477 H         1 <0>         0.1325
     60 H24        -0.6863   -1.9625   -4.6506 H         1 <0>         0.1466
     61 H25        -2.7861   -3.1854   -5.0503 H         1 <0>         0.1525
     62 H26        -3.4402   -3.4367   -0.8434 H         1 <0>         0.1526
     63 H27        -5.5534   -0.2593    0.3732 H         1 <0>         0.1015
     64 H28        -4.6043    0.8694    1.3700 H         1 <0>         0.0614
     65 H29        -4.6806    1.0886   -0.3947 H         1 <0>         0.0589
@<TRIPOS>BOND
     1    1    2 1
     2    1   39 1
     3    1   40 1
     4    1   41 1
     5    2    8 1
     6    2    3 2
     7    3    4 1
     8    3   35 1
     9    4    5 1
    10    4    6 1
    11    4   26 1
    12    6    7 2
    13    6   10 1
    14    7    8 1
    15    7    9 1
    16    8   42 1
    17    9   43 1
    18    9   44 1
    19    9   45 1
    20   10   11 2
    21   10   12 1
    22   12   13 1
    23   13   14 1
    24   13   18 1
    25   13   15 1
    26   15   16 1
    27   15   46 1
    28   15   47 1
    29   16   17 1
    30   16   48 1
    31   16   49 1
    32   17   18 1
    33   17   19 1
    34   18   50 1
    35   18   51 1
    36   19   20 1
    37   19   52 1
    38   19   53 1
    39   20   25 ar
    40   20   21 ar
    41   21   22 ar
    42   21   54 1
    43   22   23 ar
    44   22   55 1
    45   23   24 ar
    46   23   56 1
    47   24   25 ar
    48   24   57 1
    49   25   58 1
    50   26   31 ar
    51   26   27 ar
    52   27   28 ar
    53   27   59 1
    54   28   29 ar
    55   28   60 1
    56   29   30 ar
    57   29   61 1
    58   30   31 ar
    59   30   32 1
    60   31   62 1
    61   32   33 2
    62   32   34 1
    63   35   36 2
    64   35   37 1
    65   37   38 1
    66   38   63 1
    67   38   64 1
    68   38   65 1
@<TRIPOS>MOLECULE
ZINC26569563
   66    69     0     0     0
SMALL
USER_CHARGES

@<TRIPOS>ATOM
      1 C1          0.2077    1.4969    0.1186 C.3       1 <0>        -0.1214
      2 C2          0.1123   -0.0058    0.0567 C.2       1 <0>         0.2441
      3 C3         -1.0909   -0.5988    0.1433 C.2       1 <0>        -0.2585
      4 C4         -1.2328   -2.0937    0.0955 C.3       1 <0>         0.0907
      5 H1         -2.0712   -2.3542   -0.5504 H         1 <0>         0.1008
      6 C5          0.0192   -2.7301   -0.4382 C.2       1 <0>        -0.2532
      7 C6          1.1780   -2.0518   -0.5015 C.2       1 <0>         0.2074
      8 N1          1.2510   -0.7496   -0.0924 N.pl3     1 <0>        -0.6267
      9 C7          2.4113   -2.7336   -1.0357 C.3       1 <0>        -0.1375
     10 C8         -0.0223   -4.0718   -0.8831 C.2       1 <0>         0.5470
     11 O1         -0.4505   -4.3321   -1.9920 O.2       1 <0>        -0.4751
     12 O2          0.4131   -5.0634   -0.0780 O.3       1 <0>        -0.3400
     13 C9          0.3421   -6.3949   -0.5921 C.3       1 <0>         0.0640
     14 H2          0.4386   -6.3862   -1.6778 H         1 <0>         0.1277
     15 C10        -0.9903   -7.0600   -0.1771 C.3       1 <0>        -0.1657
     16 C11        -0.5659   -8.5150    0.1444 C.3       1 <0>        -0.0011
     17 N2          0.7617   -8.3472    0.7891 N.4       1 <0>        -0.3924
     18 C12         1.4433   -7.2695    0.0354 C.3       1 <0>        -0.0051
     19 C13         1.5317   -9.5946    0.6951 C.3       1 <0>         0.0491
     20 C14         0.8620  -10.6619    1.5218 C.ar      1 <0>        -0.1641
     21 C15         1.1999  -10.8186    2.8530 C.ar      1 <0>        -0.0937
     22 C16         0.5856  -11.7976    3.6114 C.ar      1 <0>        -0.1132
     23 C17        -0.3669  -12.6195    3.0387 C.ar      1 <0>        -0.0824
     24 C18        -0.7054  -12.4622    1.7077 C.ar      1 <0>        -0.1133
     25 C19        -0.0942  -11.4804    0.9504 C.ar      1 <0>        -0.0945
     26 C20        -1.4979   -2.6117    1.4856 C.ar      1 <0>        -0.0740
     27 C21        -0.5790   -2.3871    2.4940 C.ar      1 <0>        -0.0498
     28 C22        -0.8221   -2.8622    3.7689 C.ar      1 <0>        -0.1154
     29 C23        -1.9844   -3.5616    4.0360 C.ar      1 <0>        -0.0567
     30 C24        -2.9034   -3.7854    3.0282 C.ar      1 <0>        -0.0472
     31 C25        -2.6622   -3.3065    1.7539 C.ar      1 <0>        -0.0421
     32 N3         -4.1475   -4.5347    3.3141 N.pl3     1 <0>         0.0306
     33 O3         -4.3598   -4.9510    4.4291 O.2       1 <0>        -0.1554
     34 O4         -4.9514   -4.7304    2.4325 O.3       1 <0>        -0.1545
     35 C26        -2.2483    0.2017    0.2829 C.2       1 <0>         0.5155
     36 O5         -2.1484    1.4138    0.3234 O.2       1 <0>        -0.5112
     37 O6         -3.4635   -0.3785    0.3711 O.3       1 <0>        -0.3529
     38 C27        -4.5889    0.4910    0.5105 C.3       1 <0>         0.0353
     39 H3          1.2512    1.7987    0.0286 H         1 <0>         0.0683
     40 H4         -0.3680    1.9314   -0.6986 H         1 <0>         0.1095
     41 H5         -0.1911    1.8474    1.0705 H         1 <0>         0.1060
     42 H6          2.1154   -0.3524    0.0969 H         1 <0>         0.4277
     43 H7          2.4891   -2.5555   -2.1083 H         1 <0>         0.0991
     44 H8          3.2932   -2.3330   -0.5359 H         1 <0>         0.0916
     45 H9          2.3434   -3.8054   -0.8493 H         1 <0>         0.0848
     46 H10        -1.4048   -6.5748    0.7067 H         1 <0>         0.1060
     47 H11        -1.7045   -7.0394   -1.0003 H         1 <0>         0.1279
     48 H12        -1.2722   -8.9785    0.8332 H         1 <0>         0.1406
     49 H13        -0.4780   -9.1011   -0.7704 H         1 <0>         0.1394
     50 H14         2.0673   -7.6997   -0.7480 H         1 <0>         0.1489
     51 H15         2.0527   -6.6705    0.7121 H         1 <0>         0.1466
     52 H16         1.5771   -9.9161   -0.3455 H         1 <0>         0.1372
     53 H17         2.5422   -9.4268    1.0678 H         1 <0>         0.1378
     54 H18         1.9441  -10.1764    3.3005 H         1 <0>         0.1305
     55 H19         0.8501  -11.9205    4.6513 H         1 <0>         0.1363
     56 H20        -0.8463  -13.3849    3.6310 H         1 <0>         0.1364
     57 H21        -1.4493  -13.1046    1.2601 H         1 <0>         0.1366
     58 H22        -0.3614  -11.3551   -0.0885 H         1 <0>         0.1301
     59 H23         0.3289   -1.8407    2.2853 H         1 <0>         0.1328
     60 H24        -0.1040   -2.6873    4.5564 H         1 <0>         0.1479
     61 H25        -2.1741   -3.9334    5.0321 H         1 <0>         0.1537
     62 H26        -3.3820   -3.4781    0.9672 H         1 <0>         0.1526
     63 H27        -5.5013   -0.1024    0.5703 H         1 <0>         0.1031
     64 H28        -4.4804    1.0829    1.4193 H         1 <0>         0.0608
     65 H29        -4.6436    1.1556   -0.3516 H         1 <0>         0.0636
     66 H30         0.6479   -8.0789    1.7551 H         1 <0>         0.4291
@<TRIPOS>BOND
     1    1    2 1
     2    1   39 1
     3    1   40 1
     4    1   41 1
     5    2    8 1
     6    2    3 2
     7    3    4 1
     8    3   35 1
     9    4    5 1
    10    4    6 1
    11    4   26 1
    12    6    7 2
    13    6   10 1
    14    7    8 1
    15    7    9 1
    16    8   42 1
    17    9   43 1
    18    9   44 1
    19    9   45 1
    20   10   11 2
    21   10   12 1
    22   12   13 1
    23   13   14 1
    24   13   18 1
    25   13   15 1
    26   15   16 1
    27   15   46 1
    28   15   47 1
    29   16   17 1
    30   16   48 1
    31   16   49 1
    32   17   18 1
    33   17   19 1
    34   17   66 1
    35   18   50 1
    36   18   51 1
    37   19   20 1
    38   19   52 1
    39   19   53 1
    40   20   25 ar
    41   20   21 ar
    42   21   22 ar
    43   21   54 1
    44   22   23 ar
    45   22   55 1
    46   23   24 ar
    47   23   56 1
    48   24   25 ar
    49   24   57 1
    50   25   58 1
    51   26   31 ar
    52   26   27 ar
    53   27   28 ar
    54   27   59 1
    55   28   29 ar
    56   28   60 1
    57   29   30 ar
    58   29   61 1
    59   30   31 ar
    60   30   32 1
    61   31   62 1
    62   32   33 2
    63   32   34 1
    64   35   36 2
    65   35   37 1
    66   37   38 1
    67   38   63 1
    68   38   64 1
    69   38   65 1
@<TRIPOS>MOLECULE
ZINC26569563
   65    68     0     0     0
SMALL
USER_CHARGES

@<TRIPOS>ATOM
      1 C1          0.2077    1.4969    0.1186 C.3       1 <0>        -0.1180
      2 C2          0.1123   -0.0058    0.0567 C.2       1 <0>         0.2456
      3 C3         -1.0909   -0.5988    0.1433 C.2       1 <0>        -0.2635
      4 C4         -1.2328   -2.0937    0.0955 C.3       1 <0>         0.0888
      5 H1         -2.0712   -2.3542   -0.5504 H         1 <0>         0.0995
      6 C5          0.0192   -2.7301   -0.4382 C.2       1 <0>        -0.2312
      7 C6          1.1780   -2.0518   -0.5015 C.2       1 <0>         0.1896
      8 N1          1.2510   -0.7496   -0.0924 N.pl3     1 <0>        -0.6276
      9 C7          2.4113   -2.7336   -1.0357 C.3       1 <0>        -0.1351
     10 C8         -0.0223   -4.0718   -0.8831 C.2       1 <0>         0.5336
     11 O1         -0.4505   -4.3321   -1.9920 O.2       1 <0>        -0.4919
     12 O2          0.4131   -5.0634   -0.0780 O.3       1 <0>        -0.3331
     13 C9          0.3421   -6.3949   -0.5921 C.3       1 <0>         0.0757
     14 H2          0.4386   -6.3862   -1.6778 H         1 <0>         0.0930
     15 C10        -0.9903   -7.0600   -0.1771 C.3       1 <0>        -0.1402
     16 C11        -0.5659   -8.5150    0.1444 C.3       1 <0>         0.0378
     17 N2          0.7617   -8.3472    0.7891 N.3       1 <0>        -0.5054
     18 C12         1.4433   -7.2695    0.0354 C.3       1 <0>         0.0396
     19 C13         1.5344   -9.5954    0.7356 C.3       1 <0>         0.0846
     20 C14         0.9082  -10.6135    1.6533 C.ar      1 <0>        -0.0804
     21 C15         1.3053  -10.6892    2.9752 C.ar      1 <0>        -0.0980
     22 C16         0.7309  -11.6232    3.8171 C.ar      1 <0>        -0.1205
     23 C17        -0.2409  -12.4812    3.3371 C.ar      1 <0>        -0.1182
     24 C18        -0.6386  -12.4049    2.0153 C.ar      1 <0>        -0.1201
     25 C19        -0.0672  -11.4681    1.1746 C.ar      1 <0>        -0.1136
     26 C20        -1.4979   -2.6117    1.4856 C.ar      1 <0>        -0.0727
     27 C21        -0.5790   -2.3871    2.4940 C.ar      1 <0>        -0.0482
     28 C22        -0.8221   -2.8622    3.7689 C.ar      1 <0>        -0.1151
     29 C23        -1.9844   -3.5616    4.0360 C.ar      1 <0>        -0.0546
     30 C24        -2.9034   -3.7854    3.0282 C.ar      1 <0>        -0.0451
     31 C25        -2.6622   -3.3065    1.7539 C.ar      1 <0>        -0.0386
     32 N3         -4.1475   -4.5347    3.3141 N.pl3     1 <0>         0.0345
     33 O3         -4.3598   -4.9510    4.4291 O.2       1 <0>        -0.1595
     34 O4         -4.9514   -4.7304    2.4325 O.3       1 <0>        -0.1577
     35 C26        -2.2483    0.2017    0.2829 C.2       1 <0>         0.5194
     36 O5         -2.1484    1.4138    0.3234 O.2       1 <0>        -0.5192
     37 O6         -3.4635   -0.3785    0.3711 O.3       1 <0>        -0.3506
     38 C27        -4.5889    0.4910    0.5105 C.3       1 <0>         0.0365
     39 H3          1.2512    1.7987    0.0286 H         1 <0>         0.0655
     40 H4         -0.3680    1.9314   -0.6986 H         1 <0>         0.1066
     41 H5         -0.1911    1.8474    1.0705 H         1 <0>         0.1035
     42 H6          2.1154   -0.3524    0.0969 H         1 <0>         0.4247
     43 H7          2.4891   -2.5555   -2.1083 H         1 <0>         0.0940
     44 H8          3.2932   -2.3330   -0.5359 H         1 <0>         0.0873
     45 H9          2.3434   -3.8054   -0.8493 H         1 <0>         0.0904
     46 H10        -1.4048   -6.5748    0.7067 H         1 <0>         0.0842
     47 H11        -1.7045   -7.0394   -1.0003 H         1 <0>         0.0830
     48 H12        -1.2722   -8.9785    0.8332 H         1 <0>         0.0904
     49 H13        -0.4780   -9.1011   -0.7704 H         1 <0>         0.0510
     50 H14         2.0673   -7.6997   -0.7480 H         1 <0>         0.0615
     51 H15         2.0527   -6.6705    0.7121 H         1 <0>         0.0966
     52 H16         1.5359   -9.9783   -0.2849 H         1 <0>         0.0480
     53 H17         2.5592   -9.4021    1.0526 H         1 <0>         0.0861
     54 H18         2.0645  -10.0189    3.3502 H         1 <0>         0.1217
     55 H19         1.0416  -11.6828    4.8497 H         1 <0>         0.1222
     56 H20        -0.6891  -13.2114    3.9946 H         1 <0>         0.1216
     57 H21        -1.3975  -13.0755    1.6403 H         1 <0>         0.1218
     58 H22        -0.3806  -11.4060    0.1429 H         1 <0>         0.1173
     59 H23         0.3289   -1.8407    2.2853 H         1 <0>         0.1314
     60 H24        -0.1040   -2.6873    4.5564 H         1 <0>         0.1463
     61 H25        -2.1741   -3.9334    5.0321 H         1 <0>         0.1523
     62 H26        -3.3820   -3.4781    0.9672 H         1 <0>         0.1513
     63 H27        -5.5013   -0.1024    0.5703 H         1 <0>         0.1014
     64 H28        -4.4804    1.0829    1.4193 H         1 <0>         0.0590
     65 H29        -4.6436    1.1556   -0.3516 H         1 <0>         0.0611
@<TRIPOS>BOND
     1    1    2 1
     2    1   39 1
     3    1   40 1
     4    1   41 1
     5    2    8 1
     6    2    3 2
     7    3    4 1
     8    3   35 1
     9    4    5 1
    10    4    6 1
    11    4   26 1
    12    6    7 2
    13    6   10 1
    14    7    8 1
    15    7    9 1
    16    8   42 1
    17    9   43 1
    18    9   44 1
    19    9   45 1
    20   10   11 2
    21   10   12 1
    22   12   13 1
    23   13   14 1
    24   13   18 1
    25   13   15 1
    26   15   16 1
    27   15   46 1
    28   15   47 1
    29   16   17 1
    30   16   48 1
    31   16   49 1
    32   17   18 1
    33   17   19 1
    34   18   50 1
    35   18   51 1
    36   19   20 1
    37   19   52 1
    38   19   53 1
    39   20   25 ar
    40   20   21 ar
    41   21   22 ar
    42   21   54 1
    43   22   23 ar
    44   22   55 1
    45   23   24 ar
    46   23   56 1
    47   24   25 ar
    48   24   57 1
    49   25   58 1
    50   26   31 ar
    51   26   27 ar
    52   27   28 ar
    53   27   59 1
    54   28   29 ar
    55   28   60 1
    56   29   30 ar
    57   29   61 1
    58   30   31 ar
    59   30   32 1
    60   31   62 1
    61   32   33 2
    62   32   34 1
    63   35   36 2
    64   35   37 1
    65   37   38 1
    66   38   63 1
    67   38   64 1
    68   38   65 1
@<TRIPOS>MOLECULE
ZINC26569563
   64    67     0     0     0
SMALL
USER_CHARGES

@<TRIPOS>ATOM
      1 C1         -0.1710    1.4937    0.0482 C.3       1 <0>        -0.0961
      2 C2         -0.0719   -0.0098    0.0198 C.2       1 <0>         0.2811
      3 C3         -1.2226   -0.7440   -0.0126 C.2       1 <0>        -0.3737
      4 C4         -1.0906   -2.2557   -0.0412 C.3       1 <0>         0.1285
      5 H1         -1.6157   -2.6599    0.8243 H         1 <0>         0.0496
      6 C5          0.3282   -2.7966   -0.0304 C.2       1 <0>        -0.3945
      7 C6          0.5818   -4.1505   -0.0543 C.2       1 <0>         0.4709
      8 O1         -0.4366   -5.0285    0.0366 O.3       1 <0>        -0.6394
      9 O2          1.8481   -4.5970   -0.1686 O.3       1 <0>        -0.3351
     10 C7          2.0376   -6.0133   -0.1869 C.3       1 <0>         0.0379
     11 C8          1.3645   -1.8618    0.0044 C.2       1 <0>         0.2944
     12 N1          1.1282   -0.5698    0.0219 N.2       1 <0>        -0.6430
     13 C9          2.7911   -2.3474    0.0164 C.3       1 <0>        -0.1045
     14 C10        -1.7750   -2.7648   -1.2836 C.ar      1 <0>        -0.0289
     15 C11        -1.3401   -2.3539   -2.5300 C.ar      1 <0>        -0.0598
     16 C12        -1.9678   -2.8208   -3.6694 C.ar      1 <0>        -0.1302
     17 C13        -3.0303   -3.6990   -3.5628 C.ar      1 <0>        -0.0804
     18 C14        -3.4644   -4.1105   -2.3168 C.ar      1 <0>        -0.0555
     19 C15        -2.8338   -3.6468   -1.1772 C.ar      1 <0>        -0.0075
     20 N2         -4.6022   -5.0504   -2.2027 N.pl3     1 <0>         0.0436
     21 O3         -5.1518   -5.4581   -3.1994 O.2       1 <0>        -0.1886
     22 O4         -4.9819   -5.4103   -1.1128 O.3       1 <0>        -0.1596
     23 C16        -2.4836   -0.1224   -0.0189 C.2       1 <0>         0.5242
     24 O5         -2.5637    1.0926    0.0048 O.2       1 <0>        -0.5567
     25 O6         -3.6063   -0.8728   -0.0513 O.3       1 <0>        -0.3421
     26 C17        -4.8532   -0.1748   -0.0558 C.3       1 <0>         0.0844
     27 H2         -4.7399    0.7979   -0.5346 H         1 <0>         0.0839
     28 C18        -5.3777   -0.0040    1.3884 C.3       1 <0>        -0.1386
     29 C19        -6.9022   -0.2328    1.2326 C.3       1 <0>         0.0394
     30 N3         -6.9817   -1.3113    0.2144 N.3       1 <0>        -0.5017
     31 C20        -5.9281   -1.0055   -0.7809 C.3       1 <0>         0.0422
     32 C21        -8.3077   -1.3424   -0.4170 C.3       1 <0>         0.0836
     33 C22        -9.3277   -1.8282    0.5803 C.ar      1 <0>        -0.0736
     34 C23        -9.5976   -3.1795    0.6904 C.ar      1 <0>        -0.0945
     35 C24       -10.5332   -3.6251    1.6053 C.ar      1 <0>        -0.1203
     36 C25       -11.1986   -2.7195    2.4103 C.ar      1 <0>        -0.1228
     37 C26       -10.9280   -1.3683    2.3008 C.ar      1 <0>        -0.1240
     38 C27        -9.9892   -0.9231    1.3890 C.ar      1 <0>        -0.1141
     39 H3          0.8305    1.9235    0.0675 H         1 <0>         0.0545
     40 H4         -0.6979    1.8399   -0.8409 H         1 <0>         0.0759
     41 H5         -0.7172    1.8050    0.9386 H         1 <0>         0.0765
     42 H6          1.6583   -6.4425    0.7405 H         1 <0>         0.0521
     43 H7          1.4988   -6.4411   -1.0323 H         1 <0>         0.0501
     44 H8          3.1001   -6.2365   -0.2827 H         1 <0>         0.0856
     45 H9          3.0075   -2.8625   -0.9195 H         1 <0>         0.0784
     46 H10         3.4635   -1.4967    0.1268 H         1 <0>         0.0638
     47 H11         2.9341   -3.0342    0.8506 H         1 <0>         0.0777
     48 H12        -0.5102   -1.6678   -2.6132 H         1 <0>         0.1279
     49 H13        -1.6286   -2.4992   -4.6431 H         1 <0>         0.1340
     50 H14        -3.5212   -4.0633   -4.4532 H         1 <0>         0.1392
     51 H15        -3.1706   -3.9713   -0.2037 H         1 <0>         0.1434
     52 H16        -4.9407   -0.7531    2.0486 H         1 <0>         0.0863
     53 H17        -5.1742    1.0017    1.7563 H         1 <0>         0.0769
     54 H18        -7.3403   -0.5607    2.1753 H         1 <0>         0.0855
     55 H19        -7.3923    0.6722    0.8736 H         1 <0>         0.0442
     56 H20        -6.3495   -0.4294   -1.6047 H         1 <0>         0.0528
     57 H21        -5.4915   -1.9309   -1.1566 H         1 <0>         0.0885
     58 H22        -8.5748   -0.3398   -0.7508 H         1 <0>         0.0442
     59 H23        -8.2867   -2.0168   -1.2731 H         1 <0>         0.0837
     60 H24        -9.0778   -3.8870    0.0615 H         1 <0>         0.1253
     61 H25       -10.7447   -4.6807    1.6908 H         1 <0>         0.1216
     62 H26       -11.9301   -3.0675    3.1246 H         1 <0>         0.1184
     63 H27       -11.4480   -0.6607    2.9296 H         1 <0>         0.1186
     64 H28        -9.7751    0.1322    1.3060 H         1 <0>         0.1162
@<TRIPOS>BOND
     1    1    2 1
     2    1   39 1
     3    1   40 1
     4    1   41 1
     5    2   12 1
     6    2    3 2
     7    3    4 1
     8    3   23 1
     9    4    5 1
    10    4    6 1
    11    4   14 1
    12    6    7 2
    13    6   11 1
    14    7    8 1
    15    7    9 1
    16    9   10 1
    17   10   42 1
    18   10   43 1
    19   10   44 1
    20   11   12 2
    21   11   13 1
    22   13   45 1
    23   13   46 1
    24   13   47 1
    25   14   19 ar
    26   14   15 ar
    27   15   16 ar
    28   15   48 1
    29   16   17 ar
    30   16   49 1
    31   17   18 ar
    32   17   50 1
    33   18   19 ar
    34   18   20 1
    35   19   51 1
    36   20   21 2
    37   20   22 1
    38   23   24 2
    39   23   25 1
    40   25   26 1
    41   26   27 1
    42   26   31 1
    43   26   28 1
    44   28   29 1
    45   28   52 1
    46   28   53 1
    47   29   30 1
    48   29   54 1
    49   29   55 1
    50   30   31 1
    51   30   32 1
    52   31   56 1
    53   31   57 1
    54   32   33 1
    55   32   58 1
    56   32   59 1
    57   33   38 ar
    58   33   34 ar
    59   34   35 ar
    60   34   60 1
    61   35   36 ar
    62   35   61 1
    63   36   37 ar
    64   36   62 1
    65   37   38 ar
    66   37   63 1
    67   38   64 1
