@<TRIPOS>MOLECULE
ZINC19796084
   64    68     0     0     0
SMALL
USER_CHARGES

@<TRIPOS>ATOM
      1 C1         -0.2663   -0.3620    5.4641 C.ar      1 <0>        -0.0986
      2 C2          0.6994    0.5149    5.0004 C.ar      1 <0>        -0.1026
      3 C3          1.8638    0.0332    4.4352 C.ar      1 <0>        -0.1044
      4 C4          2.0664   -1.3346    4.3318 C.ar      1 <0>         0.0788
      5 C5          1.0924   -2.2191    4.7995 C.ar      1 <0>         0.0916
      6 C6         -0.0735   -1.7260    5.3654 C.ar      1 <0>        -0.0998
      7 N1          1.5706   -3.5059    4.5639 N.am      1 <0>        -0.6391
      8 H1          1.1107   -4.3313    4.7830 H         1 <0>         0.4399
      9 C7          2.7798   -3.4086    3.9799 C.2       1 <0>         0.6857
     10 O1          3.4724   -4.3503    3.6415 O.2       1 <0>        -0.5583
     11 N2          3.1062   -2.1115    3.8266 N.am      1 <0>        -0.5378
     12 C8          4.3442   -1.6036    3.2301 C.3       1 <0>         0.1610
     13 C9          4.4622   -2.1072    1.7886 C.3       1 <0>        -0.1674
     14 C10         5.7941   -1.6393    1.1981 C.3       1 <0>         0.0018
     15 N3          6.9027   -2.1747    1.9974 N.4       1 <0>        -0.3868
     16 C11         6.8368   -1.6390    3.3624 C.3       1 <0>        -0.0033
     17 C12         5.5451   -2.1068    4.0361 C.3       1 <0>        -0.1667
     18 C13         8.1794   -1.7878    1.3822 C.3       1 <0>        -0.0099
     19 C14         9.3321   -2.4478    2.1415 C.3       1 <0>        -0.1521
     20 C15        10.6618   -2.0449    1.5008 C.3       1 <0>        -0.1087
     21 C16        11.8145   -2.7048    2.2601 C.3       1 <0>         0.0020
     22 C17        11.7312   -4.2008    2.0984 C.ar      1 <0>        -0.0960
     23 C18        11.6406   -4.7550    0.8351 C.ar      1 <0>        -0.0887
     24 C19        11.5647   -6.1268    0.6856 C.ar      1 <0>        -0.1502
     25 C20        11.5793   -6.9462    1.8016 C.ar      1 <0>         0.1040
     26 C21        11.6701   -6.3900    3.0664 C.ar      1 <0>        -0.1491
     27 C22        11.7512   -5.0182    3.2131 C.ar      1 <0>        -0.0845
     28 F1         11.5046   -8.2873    1.6567 F         1 <0>        -0.1345
     29 C23        13.1272   -2.2122    1.7076 C.ar      1 <0>        -0.0972
     30 C24        13.3682   -2.2667    0.3474 C.ar      1 <0>        -0.0865
     31 C25        14.5714   -1.8148   -0.1604 C.ar      1 <0>        -0.1502
     32 C26        15.5358   -1.3073    0.6937 C.ar      1 <0>         0.1057
     33 C27        15.2933   -1.2531    2.0559 C.ar      1 <0>        -0.1489
     34 C28        14.0872   -1.7008    2.5608 C.ar      1 <0>        -0.0812
     35 F2         16.7126   -0.8656    0.1985 F         1 <0>        -0.1344
     36 H2         -1.1724    0.0221    5.9090 H         1 <0>         0.1403
     37 H3          0.5414    1.5802    5.0807 H         1 <0>         0.1389
     38 H4          2.6148    0.7203    4.0743 H         1 <0>         0.1287
     39 H5         -0.8291   -2.4070    5.7282 H         1 <0>         0.1370
     40 H6          4.3316   -0.5137    3.2367 H         1 <0>         0.1148
     41 H7          4.4224   -3.1964    1.7792 H         1 <0>         0.1076
     42 H8          3.6403   -1.7072    1.1949 H         1 <0>         0.1178
     43 H9          5.8813   -1.9960    0.1718 H         1 <0>         0.1377
     44 H10         5.8327   -0.5501    1.2078 H         1 <0>         0.1327
     45 H11         7.6939   -1.9955    3.9338 H         1 <0>         0.1389
     46 H12         6.8532   -0.5498    3.3259 H         1 <0>         0.1330
     47 H13         5.4972   -1.7066    5.0489 H         1 <0>         0.1174
     48 H14         5.5278   -3.1961    4.0734 H         1 <0>         0.1073
     49 H15         8.1953   -2.1141    0.3423 H         1 <0>         0.1326
     50 H16         8.2896   -0.7042    1.4247 H         1 <0>         0.1320
     51 H17         9.3162   -2.1215    3.1814 H         1 <0>         0.0898
     52 H18         9.2220   -3.5314    2.0990 H         1 <0>         0.0914
     53 H19        10.6777   -2.3712    0.4609 H         1 <0>         0.0799
     54 H20        10.7720   -0.9613    1.5433 H         1 <0>         0.0841
     55 H21        11.7465   -2.4493    3.3175 H         1 <0>         0.0944
     56 H22        11.6289   -4.1157   -0.0352 H         1 <0>         0.1319
     57 H23        11.4935   -6.5595   -0.3014 H         1 <0>         0.1380
     58 H24        11.6812   -7.0281    3.9376 H         1 <0>         0.1387
     59 H25        11.8265   -4.5844    4.1993 H         1 <0>         0.1333
     60 H26        12.6160   -2.6630   -0.3186 H         1 <0>         0.1302
     61 H27        14.7596   -1.8579   -1.2230 H         1 <0>         0.1383
     62 H28        16.0449   -0.8577    2.7231 H         1 <0>         0.1395
     63 H29        13.8961   -1.6545    3.6228 H         1 <0>         0.1335
     64 H30         6.8381   -3.1812    2.0286 H         1 <0>         0.4267
@<TRIPOS>BOND
     1    1    6 ar
     2    1    2 ar
     3    1   36 1
     4    2    3 ar
     5    2   37 1
     6    3    4 ar
     7    3   38 1
     8    4   11 1
     9    4    5 ar
    10    5    6 ar
    11    5    7 1
    12    6   39 1
    13    7    8 1
    14    7    9 am
    15    9   10 2
    16    9   11 am
    17   11   12 1
    18   12   17 1
    19   12   13 1
    20   12   40 1
    21   13   14 1
    22   13   41 1
    23   13   42 1
    24   14   15 1
    25   14   43 1
    26   14   44 1
    27   15   16 1
    28   15   18 1
    29   15   64 1
    30   16   17 1
    31   16   45 1
    32   16   46 1
    33   17   47 1
    34   17   48 1
    35   18   19 1
    36   18   49 1
    37   18   50 1
    38   19   20 1
    39   19   51 1
    40   19   52 1
    41   20   21 1
    42   20   53 1
    43   20   54 1
    44   21   22 1
    45   21   29 1
    46   21   55 1
    47   22   27 ar
    48   22   23 ar
    49   23   24 ar
    50   23   56 1
    51   24   25 ar
    52   24   57 1
    53   25   26 ar
    54   25   28 1
    55   26   27 ar
    56   26   58 1
    57   27   59 1
    58   29   34 ar
    59   29   30 ar
    60   30   31 ar
    61   30   60 1
    62   31   32 ar
    63   31   61 1
    64   32   33 ar
    65   32   35 1
    66   33   34 ar
    67   33   62 1
    68   34   63 1
@<TRIPOS>MOLECULE
ZINC72113075
   61    64     0     0     0
SMALL
USER_CHARGES

@<TRIPOS>ATOM
      1 C1         -0.0489    1.2249   -0.0492 C.ar      1 <0>        -0.0834
      2 C2          1.1362    1.9361   -0.0725 C.ar      1 <0>        -0.1133
      3 C3          2.3448    1.2652   -0.0784 C.ar      1 <0>        -0.0976
      4 C4          2.3683   -0.1169   -0.0604 C.ar      1 <0>        -0.1629
      5 C5          1.1831   -0.8280   -0.0361 C.ar      1 <0>        -0.0935
      6 C6         -0.0255   -0.1571   -0.0317 C.ar      1 <0>        -0.1128
      7 C7          3.6859   -0.8483   -0.0678 C.3       1 <0>         0.0449
      8 N1          4.1319   -1.0676    1.3146 N.4       1 <0>        -0.3831
      9 C8          4.4005    0.2271    1.9517 C.3       1 <0>        -0.0120
     10 C9          4.7874    0.0088    3.4160 C.3       1 <0>        -0.1253
     11 C10         6.0436   -0.8646    3.4816 C.3       1 <0>        -0.1225
     12 C11         5.7758   -2.1826    2.7494 C.3       1 <0>        -0.1397
     13 C12         5.3523   -1.8831    1.3098 C.3       1 <0>        -0.0041
     14 C13         6.3853   -1.1485    4.9217 C.2       1 <0>         0.5146
     15 O1          5.6931   -0.6974    5.8095 O.2       1 <0>        -0.5238
     16 N2          7.4602   -1.9038    5.2229 N.am      1 <0>        -0.7217
     17 C14         7.7924   -2.1798    6.6228 C.3       1 <0>         0.1276
     18 C15         8.9723   -3.1518    6.6849 C.3       1 <0>        -0.0311
     19 C16         8.6314   -4.4439    5.9219 C.3       1 <0>        -0.1160
     20 C17         8.7067   -5.5940    6.9473 C.3       1 <0>        -0.1258
     21 C18         8.4810   -4.9002    8.3136 C.3       1 <0>        -0.1271
     22 C19         9.2428   -3.5619    8.1472 C.3       1 <0>        -0.1112
     23 C20        10.2008   -2.5104    6.0929 C.ar      1 <0>        -0.0893
     24 C21        10.1705   -1.1820    5.7112 C.ar      1 <0>        -0.0969
     25 C22        11.2966   -0.5926    5.1687 C.ar      1 <0>        -0.1515
     26 C23        12.4554   -1.3330    5.0075 C.ar      1 <0>         0.1004
     27 C24        12.4846   -2.6633    5.3902 C.ar      1 <0>        -0.1480
     28 C25        11.3588   -3.2492    5.9373 C.ar      1 <0>        -0.0806
     29 F1         13.5568   -0.7580    4.4768 F         1 <0>        -0.1366
     30 H1         -0.9931    1.7492   -0.0401 H         1 <0>         0.1361
     31 H2          1.1179    3.0158   -0.0866 H         1 <0>         0.1364
     32 H3          3.2708    1.8207   -0.0973 H         1 <0>         0.1310
     33 H4          1.2014   -1.9077   -0.0224 H         1 <0>         0.1310
     34 H5         -0.9515   -0.7127   -0.0131 H         1 <0>         0.1363
     35 H6          3.5650   -1.8095   -0.5674 H         1 <0>         0.1373
     36 H7          4.4287   -0.2534   -0.5992 H         1 <0>         0.1357
     37 H8          5.2181    0.7253    1.4308 H         1 <0>         0.1300
     38 H9          3.5065    0.8487    1.9014 H         1 <0>         0.1359
     39 H10         4.9882    0.9712    3.8868 H         1 <0>         0.1192
     40 H11         3.9703   -0.4891    3.9381 H         1 <0>         0.0969
     41 H12         6.8743   -0.3447    3.0044 H         1 <0>         0.1161
     42 H13         6.6831   -2.7867    2.7437 H         1 <0>         0.1162
     43 H14         4.9792   -2.7260    3.2576 H         1 <0>         0.0959
     44 H15         5.1611   -2.8194    0.7855 H         1 <0>         0.1360
     45 H16         6.1497   -1.3400    0.8025 H         1 <0>         0.1328
     46 H17         8.0138   -2.2646    4.5128 H         1 <0>         0.4030
     47 H18         8.0615   -1.2493    7.1226 H         1 <0>         0.0760
     48 H19         6.9298   -2.6231    7.1203 H         1 <0>         0.0817
     49 H20         7.6254   -4.3784    5.5074 H         1 <0>         0.0680
     50 H21         9.3549   -4.6078    5.1232 H         1 <0>         0.0715
     51 H22         7.9222   -6.3265    6.7572 H         1 <0>         0.0687
     52 H23         9.6878   -6.0680    6.9175 H         1 <0>         0.0695
     53 H24         7.4196   -4.7218    8.4855 H         1 <0>         0.0691
     54 H25         8.9105   -5.4912    9.1225 H         1 <0>         0.0738
     55 H26        10.3104   -3.7077    8.3113 H         1 <0>         0.0788
     56 H27         8.8495   -2.8113    8.8329 H         1 <0>         0.0745
     57 H28         9.2664   -0.6048    5.8367 H         1 <0>         0.1338
     58 H29        11.2726    0.4451    4.8702 H         1 <0>         0.1348
     59 H30        13.3878   -3.2419    5.2646 H         1 <0>         0.1385
     60 H31        11.3826   -4.2856    6.2400 H         1 <0>         0.1347
     61 H32         3.4088   -1.5492    1.8278 H         1 <0>         0.4232
@<TRIPOS>BOND
     1    1    6 ar
     2    1    2 ar
     3    1   30 1
     4    2    3 ar
     5    2   31 1
     6    3    4 ar
     7    3   32 1
     8    4    5 ar
     9    4    7 1
    10    5    6 ar
    11    5   33 1
    12    6   34 1
    13    7    8 1
    14    7   35 1
    15    7   36 1
    16    8   13 1
    17    8    9 1
    18    8   61 1
    19    9   10 1
    20    9   37 1
    21    9   38 1
    22   10   11 1
    23   10   39 1
    24   10   40 1
    25   11   12 1
    26   11   14 1
    27   11   41 1
    28   12   13 1
    29   12   42 1
    30   12   43 1
    31   13   44 1
    32   13   45 1
    33   14   15 2
    34   14   16 am
    35   16   17 1
    36   16   46 1
    37   17   18 1
    38   17   47 1
    39   17   48 1
    40   18   22 1
    41   18   19 1
    42   18   23 1
    43   19   20 1
    44   19   49 1
    45   19   50 1
    46   20   21 1
    47   20   51 1
    48   20   52 1
    49   21   22 1
    50   21   53 1
    51   21   54 1
    52   22   55 1
    53   22   56 1
    54   23   28 ar
    55   23   24 ar
    56   24   25 ar
    57   24   57 1
    58   25   26 ar
    59   25   58 1
    60   26   27 ar
    61   26   29 1
    62   27   28 ar
    63   27   59 1
    64   28   60 1
@<TRIPOS>MOLECULE
ZINC04004773
   64    67     0     0     0
SMALL
USER_CHARGES

@<TRIPOS>ATOM
      1 C1         -0.0173    1.4248    0.0099 C.3       1 <0>         0.0258
      2 O1          0.0021   -0.0041    0.0020 O.3       1 <0>        -0.3156
      3 C2         -1.2003   -0.6375    0.0101 C.ar      1 <0>         0.1410
      4 C3         -2.3746    0.1011    0.0195 C.ar      1 <0>        -0.2151
      5 C4         -3.5956   -0.5451    0.0272 C.ar      1 <0>        -0.0521
      6 C5         -3.6478   -1.9268    0.0260 C.ar      1 <0>        -0.1629
      7 C6         -2.4788   -2.6651    0.0172 C.ar      1 <0>        -0.0507
      8 C7         -1.2554   -2.0237    0.0032 C.ar      1 <0>        -0.1577
      9 C8         -4.9811   -2.6292    0.0350 C.3       1 <0>         0.1561
     10 N1         -5.4232   -2.8552   -1.3433 N.am      1 <0>        -0.5497
     11 C9         -6.1670   -1.9136   -1.9632 C.2       1 <0>         0.5630
     12 O2         -6.4723   -0.8847   -1.3923 O.2       1 <0>        -0.4806
     13 C10        -6.5992   -2.1658   -3.3522 C.ar      1 <0>        -0.1682
     14 C11        -7.3676   -1.2411   -4.0559 C.ar      1 <0>        -0.0165
     15 C12        -7.7496   -1.5151   -5.3506 C.ar      1 <0>        -0.1280
     16 C13        -7.3697   -2.7154   -5.9583 C.ar      1 <0>        -0.0705
     17 C14        -6.6015   -3.6445   -5.2608 C.ar      1 <0>        -0.1038
     18 C15        -6.2139   -3.3739   -3.9581 C.ar      1 <0>         0.2014
     19 N2         -5.4480   -4.2726   -3.2285 N.am      1 <0>        -0.6439
     20 H1         -5.1748   -5.1103   -3.6339 H         1 <0>         0.4389
     21 C16        -5.0767   -3.9916   -1.9677 C.2       1 <0>         0.7052
     22 O3         -4.4018   -4.8039   -1.3654 O.2       1 <0>        -0.5257
     23 C17        -7.7865   -3.0005   -7.3502 C.2       1 <0>         0.5638
     24 O4         -7.4580   -4.0430   -7.8814 O.2       1 <0>        -0.5149
     25 N3         -8.5303   -2.1040   -8.0281 N.am      1 <0>        -0.7303
     26 C18        -8.9427   -2.3861   -9.4052 C.3       1 <0>         0.1235
     27 C19        -9.7710   -1.2159   -9.9394 C.3       1 <0>        -0.1644
     28 C20       -10.2017   -1.5105  -11.3777 C.3       1 <0>        -0.0062
     29 N4        -10.9969   -0.3870  -11.8906 N.4       1 <0>        -0.3822
     30 C21       -12.2406   -0.2771  -11.1188 C.3       1 <0>        -0.0130
     31 C22       -13.0352    0.9407  -11.5952 C.3       1 <0>        -0.1459
     32 C23       -13.3676    0.7770  -13.0812 C.3       1 <0>        -0.1402
     33 C24       -12.0669    0.5888  -13.8674 C.3       1 <0>        -0.1465
     34 C25       -11.3082   -0.6160  -13.3067 C.3       1 <0>        -0.0068
     35 H2          1.0053    1.8021    0.0021 H         1 <0>         0.1031
     36 H3         -0.5445    1.7859   -0.8732 H         1 <0>         0.0556
     37 H4         -0.5275    1.7763    0.9067 H         1 <0>         0.0580
     38 H5         -2.3343    1.1803    0.0211 H         1 <0>         0.1305
     39 H6         -4.5101    0.0294    0.0345 H         1 <0>         0.1316
     40 H7         -2.5223   -3.7443    0.0166 H         1 <0>         0.1379
     41 H8         -0.3427   -2.6008   -0.0082 H         1 <0>         0.1340
     42 H9         -4.8840   -3.5865    0.5470 H         1 <0>         0.1122
     43 H10        -5.7136   -2.0117    0.5548 H         1 <0>         0.1101
     44 H11        -7.6628   -0.3135   -3.5882 H         1 <0>         0.1546
     45 H12        -8.3453   -0.7999   -5.8983 H         1 <0>         0.1366
     46 H13        -6.3097   -4.5712   -5.7326 H         1 <0>         0.1558
     47 H14        -8.7925   -1.2719   -7.6041 H         1 <0>         0.4047
     48 H15        -8.0589   -2.5203  -10.0289 H         1 <0>         0.0823
     49 H16        -9.5432   -3.2955   -9.4256 H         1 <0>         0.0821
     50 H17       -10.6548   -1.0817   -9.3158 H         1 <0>         0.0960
     51 H18        -9.1704   -0.3065   -9.9191 H         1 <0>         0.0963
     52 H19        -9.3179   -1.6447  -12.0014 H         1 <0>         0.1365
     53 H20       -10.8022   -2.4199  -11.3981 H         1 <0>         0.1346
     54 H21       -12.8371   -1.1781  -11.2615 H         1 <0>         0.1296
     55 H22       -12.0025   -0.1639  -10.0611 H         1 <0>         0.1305
     56 H23       -13.9590    1.0195  -11.0221 H         1 <0>         0.1122
     57 H24       -12.4396    1.8424  -11.4527 H         1 <0>         0.0875
     58 H25       -14.0057   -0.0960  -13.2179 H         1 <0>         0.0821
     59 H26       -13.8844    1.6674  -13.4393 H         1 <0>         0.0946
     60 H27       -12.2987    0.4160  -14.9183 H         1 <0>         0.1129
     61 H28       -11.4513    1.4832  -13.7720 H         1 <0>         0.0877
     62 H29       -10.3817   -0.7529  -13.8643 H         1 <0>         0.1311
     63 H30       -11.9246   -1.5098  -13.4028 H         1 <0>         0.1293
     64 H31       -10.4689    0.4678  -11.7973 H         1 <0>         0.4227
@<TRIPOS>BOND
     1    1    2 1
     2    1   35 1
     3    1   36 1
     4    1   37 1
     5    2    3 1
     6    3    8 ar
     7    3    4 ar
     8    4    5 ar
     9    4   38 1
    10    5    6 ar
    11    5   39 1
    12    6    7 ar
    13    6    9 1
    14    7    8 ar
    15    7   40 1
    16    8   41 1
    17    9   10 1
    18    9   42 1
    19    9   43 1
    20   10   21 am
    21   10   11 am
    22   11   12 2
    23   11   13 1
    24   13   18 ar
    25   13   14 ar
    26   14   15 ar
    27   14   44 1
    28   15   16 ar
    29   15   45 1
    30   16   17 ar
    31   16   23 1
    32   17   18 ar
    33   17   46 1
    34   18   19 1
    35   19   20 1
    36   19   21 am
    37   21   22 2
    38   23   24 2
    39   23   25 am
    40   25   26 1
    41   25   47 1
    42   26   27 1
    43   26   48 1
    44   26   49 1
    45   27   28 1
    46   27   50 1
    47   27   51 1
    48   28   29 1
    49   28   52 1
    50   28   53 1
    51   29   34 1
    52   29   30 1
    53   29   64 1
    54   30   31 1
    55   30   54 1
    56   30   55 1
    57   31   32 1
    58   31   56 1
    59   31   57 1
    60   32   33 1
    61   32   58 1
    62   32   59 1
    63   33   34 1
    64   33   60 1
    65   33   61 1
    66   34   62 1
    67   34   63 1
@<TRIPOS>MOLECULE
ZINC04004773
   63    66     0     0     0
SMALL
USER_CHARGES

@<TRIPOS>ATOM
      1 C1         -0.0173    1.4248    0.0099 C.3       1 <0>         0.0287
      2 O1          0.0021   -0.0041    0.0020 O.3       1 <0>        -0.3201
      3 C2         -1.2003   -0.6375    0.0101 C.ar      1 <0>         0.1241
      4 C3         -2.3746    0.1011    0.0195 C.ar      1 <0>        -0.2177
      5 C4         -3.5956   -0.5451    0.0272 C.ar      1 <0>        -0.0594
      6 C5         -3.6478   -1.9268    0.0260 C.ar      1 <0>        -0.1366
      7 C6         -2.4788   -2.6651    0.0172 C.ar      1 <0>        -0.0469
      8 C7         -1.2554   -2.0237    0.0032 C.ar      1 <0>        -0.1589
      9 C8         -4.9811   -2.6292    0.0350 C.3       1 <0>         0.1520
     10 N1         -5.4232   -2.8552   -1.3433 N.am      1 <0>        -0.5509
     11 C9         -6.1686   -1.9165   -1.9710 C.2       1 <0>         0.5576
     12 O2         -6.4818   -0.8818   -1.4121 O.2       1 <0>        -0.5482
     13 C10        -6.5861   -2.1930   -3.3550 C.ar      1 <0>        -0.2583
     14 C11        -7.3551   -1.2865   -4.0836 C.ar      1 <0>        -0.0137
     15 C12        -7.7210   -1.5814   -5.3657 C.ar      1 <0>        -0.1946
     16 C13        -7.3309   -2.7888   -5.9583 C.ar      1 <0>        -0.0940
     17 C14        -6.5652   -3.7062   -5.2505 C.ar      1 <0>        -0.0891
     18 C15        -6.1842   -3.4153   -3.9382 C.ar      1 <0>         0.2410
     19 N2         -5.4368   -4.2794   -3.2096 N.2       1 <0>        -0.6246
     20 C16        -5.0755   -4.0065   -1.9839 C.2       1 <0>         0.6166
     21 O3         -4.3260   -4.9109   -1.3184 O.3       1 <0>        -0.6536
     22 C17        -7.7381   -3.0897   -7.3497 C.2       1 <0>         0.5693
     23 O4         -7.4021   -4.1360   -7.8684 O.2       1 <0>        -0.5283
     24 N3         -8.4815   -2.2031   -8.0409 N.am      1 <0>        -0.7378
     25 C18        -8.8845   -2.5008   -9.4176 C.3       1 <0>         0.1254
     26 C19        -9.7144   -1.3395   -9.9686 C.3       1 <0>        -0.1633
     27 C20       -10.1352   -1.6505  -11.4063 C.3       1 <0>        -0.0058
     28 N4        -10.9321   -0.5355  -11.9353 N.4       1 <0>        -0.3821
     29 C21       -12.1808   -0.4231  -11.1720 C.3       1 <0>        -0.0137
     30 C22       -12.9776    0.7865  -11.6655 C.3       1 <0>        -0.1456
     31 C23       -13.3003    0.6064  -13.1516 C.3       1 <0>        -0.1393
     32 C24       -11.9942    0.4158  -13.9281 C.3       1 <0>        -0.1460
     33 C25       -11.2339   -0.7801  -13.3508 C.3       1 <0>        -0.0067
     34 H1          1.0053    1.8021    0.0021 H         1 <0>         0.0970
     35 H2         -0.5445    1.7859   -0.8732 H         1 <0>         0.0529
     36 H3         -0.5275    1.7763    0.9067 H         1 <0>         0.0539
     37 H4         -2.3343    1.1803    0.0211 H         1 <0>         0.1239
     38 H5         -4.5101    0.0294    0.0345 H         1 <0>         0.1286
     39 H6         -2.5223   -3.7443    0.0166 H         1 <0>         0.1429
     40 H7         -0.3427   -2.6008   -0.0082 H         1 <0>         0.1289
     41 H8         -4.8840   -3.5865    0.5470 H         1 <0>         0.1017
     42 H9         -5.7136   -2.0117    0.5548 H         1 <0>         0.0873
     43 H10        -7.6609   -0.3530   -3.6348 H         1 <0>         0.1248
     44 H11        -8.3170   -0.8775   -5.9275 H         1 <0>         0.1098
     45 H12        -6.2665   -4.6365   -5.7108 H         1 <0>         0.1389
     46 H13        -8.7498   -1.3679   -7.6269 H         1 <0>         0.4035
     47 H14        -7.9964   -2.6375  -10.0346 H         1 <0>         0.0767
     48 H15        -9.4811   -3.4129   -9.4324 H         1 <0>         0.0765
     49 H16       -10.6025   -1.2028   -9.3515 H         1 <0>         0.0945
     50 H17        -9.1178   -0.4274   -9.9538 H         1 <0>         0.0949
     51 H18        -9.2471   -1.7872  -12.0233 H         1 <0>         0.1358
     52 H19       -10.7318   -2.5626  -11.4211 H         1 <0>         0.1339
     53 H20       -12.7727   -1.3281  -11.3092 H         1 <0>         0.1291
     54 H21       -11.9495   -0.2982  -10.1141 H         1 <0>         0.1327
     55 H22       -13.9051    0.8671  -11.0987 H         1 <0>         0.1114
     56 H23       -12.3866    1.6921  -11.5285 H         1 <0>         0.0873
     57 H24       -13.9340   -0.2706  -13.2833 H         1 <0>         0.0813
     58 H25       -13.8187    1.4909  -13.5218 H         1 <0>         0.0927
     59 H26       -12.2189    0.2315  -14.9786 H         1 <0>         0.1109
     60 H27       -11.3829    1.3137  -13.8381 H         1 <0>         0.0872
     61 H28       -10.3035   -0.9187  -13.9015 H         1 <0>         0.1304
     62 H29       -11.8460   -1.6774  -13.4415 H         1 <0>         0.1284
     63 H30       -10.4082    0.3224  -11.8475 H         1 <0>         0.4225
@<TRIPOS>BOND
     1    1    2 1
     2    1   34 1
     3    1   35 1
     4    1   36 1
     5    2    3 1
     6    3    8 ar
     7    3    4 ar
     8    4    5 ar
     9    4   37 1
    10    5    6 ar
    11    5   38 1
    12    6    7 ar
    13    6    9 1
    14    7    8 ar
    15    7   39 1
    16    8   40 1
    17    9   10 1
    18    9   41 1
    19    9   42 1
    20   10   20 1
    21   10   11 am
    22   11   12 2
    23   11   13 1
    24   13   18 ar
    25   13   14 ar
    26   14   15 ar
    27   14   43 1
    28   15   16 ar
    29   15   44 1
    30   16   17 ar
    31   16   22 1
    32   17   18 ar
    33   17   45 1
    34   18   19 1
    35   19   20 2
    36   20   21 1
    37   22   23 2
    38   22   24 am
    39   24   25 1
    40   24   46 1
    41   25   26 1
    42   25   47 1
    43   25   48 1
    44   26   27 1
    45   26   49 1
    46   26   50 1
    47   27   28 1
    48   27   51 1
    49   27   52 1
    50   28   33 1
    51   28   29 1
    52   28   63 1
    53   29   30 1
    54   29   53 1
    55   29   54 1
    56   30   31 1
    57   30   55 1
    58   30   56 1
    59   31   32 1
    60   31   57 1
    61   31   58 1
    62   32   33 1
    63   32   59 1
    64   32   60 1
    65   33   61 1
    66   33   62 1
@<TRIPOS>MOLECULE
ZINC13118827
   62    65     0     0     0
SMALL
USER_CHARGES

@<TRIPOS>ATOM
      1 C1         -0.0187    1.5258    0.0104 C.3       1 <0>        -0.1537
      2 C2          0.0021   -0.0041    0.0020 C.3       1 <0>        -0.1048
      3 C3          0.7273   -0.4995   -1.2525 C.3       1 <0>        -0.1430
      4 C4          0.8143   -2.0267   -1.2151 C.3       1 <0>        -0.0062
      5 N1          1.5556   -2.4491   -0.0207 N.4       1 <0>        -0.3822
      6 C5          0.8289   -2.0398    1.1872 C.3       1 <0>        -0.0129
      7 C6          0.7425   -0.5130    1.2422 C.3       1 <0>        -0.1427
      8 C7          1.7038   -3.9106   -0.0295 C.3       1 <0>        -0.0059
      9 C8          2.5818   -4.3413    1.1472 C.3       1 <0>        -0.1635
     10 C9          2.7361   -5.8634    1.1380 C.3       1 <0>         0.1252
     11 N2          3.5768   -6.2758    2.2647 N.am      1 <0>        -0.7366
     12 C10         3.8516   -7.5810    2.4581 C.2       1 <0>         0.5690
     13 O1          3.4020   -8.4158    1.6980 O.2       1 <0>        -0.5239
     14 C11         4.7012   -7.9978    3.5968 C.ar      1 <0>        -0.0995
     15 C12         5.2119   -7.0319    4.4731 C.ar      1 <0>        -0.1639
     16 C13         5.9968   -7.3969    5.5290 C.ar      1 <0>        -0.0256
     17 C14         6.2951   -8.7425    5.7405 C.ar      1 <0>        -0.2217
     18 C15         5.7879   -9.7296    4.8657 C.ar      1 <0>         0.2039
     19 C16         4.9811   -9.3440    3.7913 C.ar      1 <0>        -0.0660
     20 N3          6.0912  -11.0297    5.0907 N.2       1 <0>        -0.5600
     21 C17         6.8435  -11.3937    6.0998 C.2       1 <0>         0.5335
     22 S1          7.1874  -13.1083    6.3157 S.3       1 <0>        -0.7386
     23 N4          7.3739  -10.5060    6.9916 N.am      1 <0>        -0.5317
     24 C18         7.1372   -9.1800    6.8651 C.2       1 <0>         0.5494
     25 O2          7.6040   -8.3780    7.6527 O.2       1 <0>        -0.5328
     26 C19         8.2057  -10.9936    8.0947 C.3       1 <0>         0.1364
     27 C20         9.6474  -11.0325    7.6575 C.ar      1 <0>        -0.0996
     28 C21        10.1595  -12.1723    7.0663 C.ar      1 <0>        -0.0718
     29 C22        11.4817  -12.2087    6.6651 C.ar      1 <0>        -0.1216
     30 C23        12.2926  -11.1040    6.8554 C.ar      1 <0>        -0.0294
     31 C24        11.7795   -9.9636    7.4472 C.ar      1 <0>        -0.1269
     32 C25        10.4557   -9.9265    7.8428 C.ar      1 <0>        -0.0883
     33 Cl1        13.9535  -11.1491    6.3524 Cl        1 <0>        -0.0829
     34 H1          1.0039    1.9031    0.0027 H         1 <0>         0.0617
     35 H2         -0.5459    1.8868   -0.8726 H         1 <0>         0.0664
     36 H3         -0.5289    1.8773    0.9072 H         1 <0>         0.0669
     37 H4         -1.0201   -0.3825    0.0069 H         1 <0>         0.0882
     38 H5          0.1750   -0.1880   -2.1391 H         1 <0>         0.1115
     39 H6          1.7322   -0.0783   -1.2822 H         1 <0>         0.0880
     40 H7         -0.1911   -2.4469   -1.1856 H         1 <0>         0.1287
     41 H8          1.3299   -2.3828   -2.1070 H         1 <0>         0.1310
     42 H9         -0.1768   -2.4596    1.1654 H         1 <0>         0.1293
     43 H10         1.3553   -2.4054    2.0688 H         1 <0>         0.1327
     44 H11         1.7477   -0.0921    1.2642 H         1 <0>         0.0881
     45 H12         0.2010   -0.2112    2.1387 H         1 <0>         0.1117
     46 H13         0.7222   -4.3759    0.0602 H         1 <0>         0.1342
     47 H14         2.1699   -4.2229   -0.9640 H         1 <0>         0.1360
     48 H15         3.5634   -3.8760    1.0575 H         1 <0>         0.0952
     49 H16         2.1157   -4.0290    2.0817 H         1 <0>         0.0948
     50 H17         1.7545   -6.3287    1.2277 H         1 <0>         0.0777
     51 H18         3.2022   -6.1757    0.2035 H         1 <0>         0.0780
     52 H19         3.9356   -5.6095    2.8714 H         1 <0>         0.4034
     53 H20         4.9830   -5.9889    4.3119 H         1 <0>         0.1169
     54 H21         6.3863   -6.6446    6.1990 H         1 <0>         0.1322
     55 H22         4.5821  -10.0863    3.1159 H         1 <0>         0.1453
     56 H23         8.1032  -10.3255    8.9498 H         1 <0>         0.0928
     57 H24         7.8842  -11.9963    8.3764 H         1 <0>         0.1264
     58 H25         9.5265  -13.0347    6.9181 H         1 <0>         0.1668
     59 H26        11.8818  -13.0993    6.2035 H         1 <0>         0.1313
     60 H27        12.4121   -9.1011    7.5963 H         1 <0>         0.1281
     61 H28        10.0537   -9.0346    8.3005 H         1 <0>         0.1328
     62 H29         2.4690   -2.0204   -0.0239 H         1 <0>         0.4225
@<TRIPOS>BOND
     1    1    2 1
     2    1   34 1
     3    1   35 1
     4    1   36 1
     5    2    7 1
     6    2    3 1
     7    2   37 1
     8    3    4 1
     9    3   38 1
    10    3   39 1
    11    4    5 1
    12    4   40 1
    13    4   41 1
    14    5    6 1
    15    5    8 1
    16    5   62 1
    17    6    7 1
    18    6   42 1
    19    6   43 1
    20    7   44 1
    21    7   45 1
    22    8    9 1
    23    8   46 1
    24    8   47 1
    25    9   10 1
    26    9   48 1
    27    9   49 1
    28   10   11 1
    29   10   50 1
    30   10   51 1
    31   11   12 am
    32   11   52 1
    33   12   13 2
    34   12   14 1
    35   14   19 ar
    36   14   15 ar
    37   15   16 ar
    38   15   53 1
    39   16   17 ar
    40   16   54 1
    41   17   24 1
    42   17   18 ar
    43   18   19 ar
    44   18   20 1
    45   19   55 1
    46   20   21 2
    47   21   22 1
    48   21   23 1
    49   23   24 am
    50   23   26 1
    51   24   25 2
    52   26   27 1
    53   26   56 1
    54   26   57 1
    55   27   32 ar
    56   27   28 ar
    57   28   29 ar
    58   28   58 1
    59   29   30 ar
    60   29   59 1
    61   30   31 ar
    62   30   33 1
    63   31   32 ar
    64   31   60 1
    65   32   61 1
@<TRIPOS>MOLECULE
ZINC20644031
   59    62     0     0     0
SMALL
USER_CHARGES
3-[(4-chlorophenyl)methyl]-4-oxo-N-[3-(1-piperidyl)propyl]-2-thioxo-1H-quinazoline-7-carboxamide
@<TRIPOS>ATOM
      1 C1          3.5226   -2.2604   -2.1118 C.ar      1 <0>        -0.0709
      2 C2          3.8908   -2.5048   -3.4214 C.ar      1 <0>        -0.1217
      3 C3          4.7365   -1.6279   -4.0771 C.ar      1 <0>        -0.0296
      4 C4          5.2086   -0.5038   -3.4232 C.ar      1 <0>        -0.1266
      5 C5          4.8352   -0.2575   -2.1154 C.ar      1 <0>        -0.0886
      6 C6          3.9902   -1.1341   -1.4608 C.ar      1 <0>        -0.0977
      7 C7          3.5834   -0.8650   -0.0349 C.3       1 <0>         0.1298
      8 N1          2.3600   -0.0593   -0.0199 N.am      1 <0>        -0.5226
      9 C8          2.4542    1.2880   -0.0135 C.2       1 <0>         0.5494
     10 O1          3.5387    1.8373   -0.0205 O.2       1 <0>        -0.5316
     11 C9          1.2059    2.0767    0.0017 C.ar      1 <0>        -0.2155
     12 C10         1.2232    3.4695    0.0090 C.ar      1 <0>        -0.0275
     13 C11         0.0356    4.1671    0.0241 C.ar      1 <0>        -0.1649
     14 C12        -1.1835    3.4832    0.0325 C.ar      1 <0>        -0.0963
     15 C13        -1.2085    2.0905    0.0305 C.ar      1 <0>        -0.0713
     16 C14        -0.0167    1.3835    0.0096 C.ar      1 <0>         0.1917
     17 N2          0.0021   -0.0041    0.0020 N.2       1 <0>        -0.5657
     18 C15         1.1670   -0.6741   -0.0123 C.2       1 <0>         0.5067
     19 S1          1.1275   -2.3856   -0.0205 S.3       1 <0>        -0.7040
     20 C16        -2.4544    4.2428    0.0492 C.2       1 <0>         0.5697
     21 O2         -3.5159    3.6512    0.0566 O.2       1 <0>        -0.5287
     22 N3         -2.4339    5.5904    0.0563 N.am      1 <0>        -0.7473
     23 C17        -3.6913    6.3420    0.0728 C.3       1 <0>         0.1269
     24 C18        -3.3889    7.8418    0.0779 C.3       1 <0>        -0.1615
     25 C19        -4.7021    8.6268    0.0951 C.3       1 <0>        -0.0035
     26 N4         -4.4118   10.0668    0.1000 N.4       1 <0>        -0.3969
     27 C20        -3.7443   10.4649    1.3459 C.3       1 <0>        -0.0103
     28 C21        -3.3279   11.9348    1.2560 C.3       1 <0>        -0.1464
     29 C22        -4.5702   12.7988    1.0220 C.3       1 <0>        -0.1408
     30 C23        -5.2735   12.3321   -0.2555 C.3       1 <0>        -0.1466
     31 C24        -5.6336   10.8507   -0.1218 C.3       1 <0>        -0.0041
     32 Cl1         5.2046   -1.9376   -5.7198 Cl        1 <0>        -0.0828
     33 H1          2.8660   -2.9472   -1.5984 H         1 <0>         0.1653
     34 H2          3.5219   -3.3825   -3.9313 H         1 <0>         0.1314
     35 H3          5.8685    0.1813   -3.9346 H         1 <0>         0.1281
     36 H4          5.2034    0.6202   -1.6050 H         1 <0>         0.1330
     37 H5          3.4003   -1.8194    0.4805 H         1 <0>         0.1299
     38 H6          4.3882   -0.3192    0.4793 H         1 <0>         0.0942
     39 H7          2.1639    4.0001    0.0025 H         1 <0>         0.1321
     40 H8          0.0464    5.2471    0.0298 H         1 <0>         0.1176
     41 H9         -2.1517    1.5645    0.0406 H         1 <0>         0.1425
     42 H10        -1.4731    6.1259    0.0497 H         1 <0>         0.4226
     43 H11        -4.2809    6.0899   -0.8209 H         1 <0>         0.0754
     44 H12        -4.2632    6.0802    0.9752 H         1 <0>         0.0747
     45 H13        -2.7993    8.0939    0.9716 H         1 <0>         0.0941
     46 H14        -2.8170    8.1036   -0.8245 H         1 <0>         0.0956
     47 H15        -5.2917    8.3747   -0.7986 H         1 <0>         0.1357
     48 H16        -5.2740    8.3650    0.9975 H         1 <0>         0.1310
     49 H17        -4.4355   10.3311    2.1911 H         1 <0>         0.1259
     50 H18        -2.8520    9.8403    1.4996 H         1 <0>         0.1325
     51 H19        -2.8412   12.2361    2.1953 H         1 <0>         0.1111
     52 H20        -2.6249   12.0663    0.4202 H         1 <0>         0.0881
     53 H21        -5.2536   12.6978    1.8780 H         1 <0>         0.0805
     54 H22        -4.2698   13.8516    0.9149 H         1 <0>         0.0930
     55 H23        -6.1898   12.9218   -0.4059 H         1 <0>         0.1109
     56 H24        -4.6022   12.4719   -1.1156 H         1 <0>         0.0881
     57 H25        -6.1262   10.5089   -1.0440 H         1 <0>         0.1309
     58 H26        -6.3160   10.7151    0.7302 H         1 <0>         0.1255
     59 H27        -3.7229   10.2772   -0.7313 H         1 <0>         0.4399
@<TRIPOS>BOND
     1    1    6 ar
     2    1    2 ar
     3    1   33 1
     4    2    3 ar
     5    2   34 1
     6    3    4 ar
     7    3   32 1
     8    4    5 ar
     9    4   35 1
    10    5    6 ar
    11    5   36 1
    12    6    7 1
    13    7    8 1
    14    7   37 1
    15    7   38 1
    16    8   18 1
    17    8    9 am
    18    9   10 2
    19    9   11 1
    20   11   16 ar
    21   11   12 ar
    22   12   13 ar
    23   12   39 1
    24   13   14 ar
    25   13   40 1
    26   14   15 ar
    27   14   20 1
    28   15   16 ar
    29   15   41 1
    30   16   17 1
    31   17   18 2
    32   18   19 1
    33   20   21 2
    34   20   22 am
    35   22   23 1
    36   22   42 1
    37   23   24 1
    38   23   43 1
    39   23   44 1
    40   24   25 1
    41   24   45 1
    42   24   46 1
    43   25   26 1
    44   25   47 1
    45   25   48 1
    46   26   31 1
    47   26   27 1
    48   26   59 1
    49   27   28 1
    50   27   49 1
    51   27   50 1
    52   28   29 1
    53   28   51 1
    54   28   52 1
    55   29   30 1
    56   29   53 1
    57   29   54 1
    58   30   31 1
    59   30   55 1
    60   30   56 1
    61   31   57 1
    62   31   58 1
@<TRIPOS>MOLECULE
ZINC20644064
   64    67     0     0     0
SMALL
USER_CHARGES
3-[(4-chlorophenyl)methyl]-N-[3-(4-ethylpiperazin-1-yl)propyl]-4-oxo-2-thioxo-1H-quinazoline-7-carboxamide
@<TRIPOS>ATOM
      1 C1         -3.8766   14.6012    2.4732 C.3       1 <0>        -0.1904
      2 C2         -4.3286   14.1777    1.0742 C.3       1 <0>        -0.0070
      3 N1         -4.6189   12.7377    1.0684 N.4       1 <0>        -0.4019
      4 C3         -5.2782   12.3384   -0.1829 C.3       1 <0>         0.0013
      5 C4         -5.6345   10.8514   -0.1167 C.3       1 <0>         0.0245
      6 N2         -4.4118   10.0668    0.1047 N.3       1 <0>        -0.5385
      7 C5         -3.7525   10.4661    1.3560 C.3       1 <0>         0.0193
      8 C6         -3.3963   11.9531    1.2898 C.3       1 <0>        -0.0026
      9 C7         -4.7021    8.6268    0.0989 C.3       1 <0>         0.0564
     10 C8         -3.3889    7.8418    0.0811 C.3       1 <0>        -0.1296
     11 C9         -3.6913    6.3420    0.0751 C.3       1 <0>         0.1229
     12 N3         -2.4339    5.5904    0.0581 N.am      1 <0>        -0.7432
     13 C10        -2.4544    4.2428    0.0502 C.2       1 <0>         0.5658
     14 O1         -3.5159    3.6512    0.0571 O.2       1 <0>        -0.5331
     15 C11        -1.1835    3.4832    0.0330 C.ar      1 <0>        -0.0930
     16 C12         0.0356    4.1671    0.0250 C.ar      1 <0>        -0.1625
     17 C13         1.2232    3.4695    0.0095 C.ar      1 <0>        -0.0292
     18 C14         1.2059    2.0767    0.0017 C.ar      1 <0>        -0.2164
     19 C15        -0.0167    1.3835    0.0096 C.ar      1 <0>         0.1902
     20 C16        -1.2085    2.0905    0.0305 C.ar      1 <0>        -0.0727
     21 N4          0.0021   -0.0041    0.0020 N.2       1 <0>        -0.5650
     22 C17         1.1670   -0.6741   -0.0123 C.2       1 <0>         0.5067
     23 S1          1.1275   -2.3856   -0.0205 S.3       1 <0>        -0.7096
     24 N5          2.3600   -0.0593   -0.0199 N.am      1 <0>        -0.5229
     25 C18         2.4542    1.2880   -0.0135 C.2       1 <0>         0.5498
     26 O2          3.5387    1.8373   -0.0205 O.2       1 <0>        -0.5332
     27 C19         3.5834   -0.8650   -0.0349 C.3       1 <0>         0.1301
     28 C20         3.9902   -1.1341   -1.4608 C.ar      1 <0>        -0.0972
     29 C21         3.5226   -2.2604   -2.1118 C.ar      1 <0>        -0.0708
     30 C22         3.8908   -2.5048   -3.4214 C.ar      1 <0>        -0.1218
     31 C23         4.7365   -1.6279   -4.0771 C.ar      1 <0>        -0.0298
     32 C24         5.2086   -0.5038   -3.4232 C.ar      1 <0>        -0.1268
     33 C25         4.8352   -0.2575   -2.1154 C.ar      1 <0>        -0.0886
     34 Cl1         5.2046   -1.9376   -5.7198 Cl        1 <0>        -0.0836
     35 H1         -3.6592   15.6795    2.4775 H         1 <0>         0.1061
     36 H2         -2.9700   14.0433    2.7502 H         1 <0>         0.0804
     37 H3         -4.6757   14.3853    3.1977 H         1 <0>         0.0802
     38 H4         -5.2352   14.7356    0.7973 H         1 <0>         0.1298
     39 H5         -3.5296   14.3936    0.3497 H         1 <0>         0.1270
     40 H6         -6.1952   12.9305   -0.3193 H         1 <0>         0.1348
     41 H7         -4.5978   12.5161   -1.0288 H         1 <0>         0.1347
     42 H8         -6.3369   10.6792    0.7121 H         1 <0>         0.0609
     43 H9         -6.1022   10.5439   -1.0636 H         1 <0>         0.1243
     44 H10        -4.4329   10.2883    2.2018 H         1 <0>         0.0613
     45 H11        -2.8355    9.8741    1.4924 H         1 <0>         0.1268
     46 H12        -2.6943   12.1264    0.4609 H         1 <0>         0.1350
     47 H13        -2.9290   12.2617    2.2366 H         1 <0>         0.1358
     48 H14        -5.2739    8.3644    1.0012 H         1 <0>         0.0516
     49 H15        -5.2918    8.3752   -0.7949 H         1 <0>         0.0938
     50 H16        -2.8171    8.1042   -0.8212 H         1 <0>         0.0847
     51 H17        -2.7992    8.0934    0.9749 H         1 <0>         0.0707
     52 H18        -4.2631    6.0797    0.9774 H         1 <0>         0.0654
     53 H19        -4.2810    6.0904   -0.8187 H         1 <0>         0.0687
     54 H20        -1.4731    6.1259    0.0518 H         1 <0>         0.4202
     55 H21         0.0464    5.2471    0.0314 H         1 <0>         0.1191
     56 H22         2.1639    4.0001    0.0030 H         1 <0>         0.1316
     57 H23        -2.1517    1.5645    0.0410 H         1 <0>         0.1422
     58 H24         4.3882   -0.3192    0.4792 H         1 <0>         0.0936
     59 H25         3.4003   -1.8194    0.4805 H         1 <0>         0.1296
     60 H26         2.8660   -2.9472   -1.5984 H         1 <0>         0.1655
     61 H27         3.5219   -3.3825   -3.9313 H         1 <0>         0.1311
     62 H28         5.8685    0.1813   -3.9346 H         1 <0>         0.1279
     63 H29         5.2034    0.6202   -1.6050 H         1 <0>         0.1330
     64 H30        -5.3105   12.5302    1.8982 H         1 <0>         0.4369
@<TRIPOS>BOND
     1    1    2 1
     2    1   35 1
     3    1   36 1
     4    1   37 1
     5    2    3 1
     6    2   38 1
     7    2   39 1
     8    3    8 1
     9    3    4 1
    10    3   64 1
    11    4    5 1
    12    4   40 1
    13    4   41 1
    14    5    6 1
    15    5   42 1
    16    5   43 1
    17    6    7 1
    18    6    9 1
    19    7    8 1
    20    7   44 1
    21    7   45 1
    22    8   46 1
    23    8   47 1
    24    9   10 1
    25    9   48 1
    26    9   49 1
    27   10   11 1
    28   10   50 1
    29   10   51 1
    30   11   12 1
    31   11   52 1
    32   11   53 1
    33   12   13 am
    34   12   54 1
    35   13   14 2
    36   13   15 1
    37   15   20 ar
    38   15   16 ar
    39   16   17 ar
    40   16   55 1
    41   17   18 ar
    42   17   56 1
    43   18   25 1
    44   18   19 ar
    45   19   20 ar
    46   19   21 1
    47   20   57 1
    48   21   22 2
    49   22   23 1
    50   22   24 1
    51   24   25 am
    52   24   27 1
    53   25   26 2
    54   27   28 1
    55   27   58 1
    56   27   59 1
    57   28   33 ar
    58   28   29 ar
    59   29   30 ar
    60   29   60 1
    61   30   31 ar
    62   30   61 1
    63   31   32 ar
    64   31   34 1
    65   32   33 ar
    66   32   62 1
    67   33   63 1
@<TRIPOS>MOLECULE
ZINC20644064
   65    68     0     0     0
SMALL
USER_CHARGES
3-[(4-chlorophenyl)methyl]-N-[3-(4-ethylpiperazin-1-yl)propyl]-4-oxo-2-thioxo-1H-quinazoline-7-carboxamide
@<TRIPOS>ATOM
      1 C1         -3.8766   14.6012    2.4732 C.3       1 <0>        -0.1906
      2 C2         -4.3286   14.1777    1.0742 C.3       1 <0>        -0.0074
      3 N1         -4.6189   12.7377    1.0684 N.4       1 <0>        -0.4020
      4 C3         -5.2782   12.3384   -0.1829 C.3       1 <0>         0.0008
      5 C4         -5.6345   10.8514   -0.1167 C.3       1 <0>         0.0247
      6 N2         -4.4118   10.0668    0.1047 N.3       1 <0>        -0.5389
      7 C5         -3.7525   10.4661    1.3560 C.3       1 <0>         0.0199
      8 C6         -3.3963   11.9531    1.2898 C.3       1 <0>        -0.0029
      9 C7         -4.7021    8.6268    0.0989 C.3       1 <0>         0.0558
     10 C8         -3.3889    7.8418    0.0811 C.3       1 <0>        -0.1308
     11 C9         -3.6913    6.3420    0.0751 C.3       1 <0>         0.1206
     12 N3         -2.4339    5.5904    0.0581 N.am      1 <0>        -0.7351
     13 C10        -2.4544    4.2428    0.0502 C.2       1 <0>         0.5592
     14 O1         -3.5159    3.6512    0.0571 O.2       1 <0>        -0.5224
     15 C11        -1.1835    3.4832    0.0330 C.ar      1 <0>        -0.0639
     16 C12         0.0356    4.1671    0.0250 C.ar      1 <0>        -0.1162
     17 C13         1.2232    3.4695    0.0095 C.ar      1 <0>        -0.0194
     18 C14         1.2059    2.0767    0.0017 C.ar      1 <0>        -0.1628
     19 C15        -0.0167    1.3835    0.0096 C.ar      1 <0>         0.1771
     20 C16        -1.2085    2.0905    0.0305 C.ar      1 <0>        -0.0925
     21 N4          0.0021   -0.0041    0.0020 N.pl3     1 <0>        -0.5979
     22 C17         1.1670   -0.6741   -0.0123 C.2       1 <0>         0.5315
     23 S1          1.1275   -2.3856   -0.0205 S.2       1 <0>        -0.5320
     24 N5          2.3600   -0.0593   -0.0199 N.am      1 <0>        -0.5062
     25 C18         2.4542    1.2880   -0.0135 C.2       1 <0>         0.5533
     26 O2          3.5387    1.8373   -0.0205 O.2       1 <0>        -0.4663
     27 C19         3.5834   -0.8650   -0.0349 C.3       1 <0>         0.1303
     28 C20         3.9902   -1.1341   -1.4608 C.ar      1 <0>        -0.1205
     29 C21         3.5226   -2.2604   -2.1118 C.ar      1 <0>        -0.0742
     30 C22         3.8908   -2.5048   -3.4214 C.ar      1 <0>        -0.1182
     31 C23         4.7365   -1.6279   -4.0771 C.ar      1 <0>        -0.0205
     32 C24         5.2086   -0.5038   -3.4232 C.ar      1 <0>        -0.1205
     33 C25         4.8352   -0.2575   -2.1154 C.ar      1 <0>        -0.0828
     34 Cl1         5.2046   -1.9376   -5.7198 Cl        1 <0>        -0.0653
     35 H1         -3.6592   15.6795    2.4775 H         1 <0>         0.1076
     36 H2         -2.9700   14.0433    2.7502 H         1 <0>         0.0797
     37 H3         -4.6757   14.3853    3.1977 H         1 <0>         0.0807
     38 H4         -5.2352   14.7356    0.7973 H         1 <0>         0.1312
     39 H5         -3.5296   14.3936    0.3497 H         1 <0>         0.1274
     40 H6         -6.1952   12.9305   -0.3193 H         1 <0>         0.1366
     41 H7         -4.5978   12.5161   -1.0288 H         1 <0>         0.1351
     42 H8         -6.3369   10.6792    0.7121 H         1 <0>         0.0621
     43 H9         -6.1022   10.5439   -1.0636 H         1 <0>         0.1249
     44 H10        -4.4329   10.2883    2.2018 H         1 <0>         0.0617
     45 H11        -2.8355    9.8741    1.4924 H         1 <0>         0.1246
     46 H12        -2.6943   12.1264    0.4609 H         1 <0>         0.1348
     47 H13        -2.9290   12.2617    2.2366 H         1 <0>         0.1364
     48 H14        -5.2739    8.3644    1.0012 H         1 <0>         0.0522
     49 H15        -5.2918    8.3752   -0.7949 H         1 <0>         0.0944
     50 H16        -2.8171    8.1042   -0.8212 H         1 <0>         0.0860
     51 H17        -2.7992    8.0934    0.9749 H         1 <0>         0.0721
     52 H18        -4.2631    6.0797    0.9774 H         1 <0>         0.0711
     53 H19        -4.2810    6.0904   -0.8187 H         1 <0>         0.0743
     54 H20        -1.4731    6.1259    0.0518 H         1 <0>         0.4224
     55 H21         0.0464    5.2471    0.0314 H         1 <0>         0.1415
     56 H22         2.1639    4.0001    0.0030 H         1 <0>         0.1565
     57 H23        -2.1517    1.5645    0.0410 H         1 <0>         0.1586
     58 H24         4.3882   -0.3192    0.4792 H         1 <0>         0.1166
     59 H25         3.4003   -1.8194    0.4805 H         1 <0>         0.1394
     60 H26         2.8660   -2.9472   -1.5984 H         1 <0>         0.1587
     61 H27         3.5219   -3.3825   -3.9313 H         1 <0>         0.1371
     62 H28         5.8685    0.1813   -3.9346 H         1 <0>         0.1352
     63 H29         5.2034    0.6202   -1.6050 H         1 <0>         0.1360
     64 H30        -5.3105   12.5302    1.8982 H         1 <0>         0.4374
     65 H31        -0.9429   -0.5670    0.0077 H         1 <0>         0.4837
@<TRIPOS>BOND
     1    1    2 1
     2    1   35 1
     3    1   36 1
     4    1   37 1
     5    2    3 1
     6    2   38 1
     7    2   39 1
     8    3    8 1
     9    3    4 1
    10    3   64 1
    11    4    5 1
    12    4   40 1
    13    4   41 1
    14    5    6 1
    15    5   42 1
    16    5   43 1
    17    6    7 1
    18    6    9 1
    19    7    8 1
    20    7   44 1
    21    7   45 1
    22    8   46 1
    23    8   47 1
    24    9   10 1
    25    9   48 1
    26    9   49 1
    27   10   11 1
    28   10   50 1
    29   10   51 1
    30   11   12 1
    31   11   52 1
    32   11   53 1
    33   12   13 am
    34   12   54 1
    35   13   14 2
    36   13   15 1
    37   15   20 ar
    38   15   16 ar
    39   16   17 ar
    40   16   55 1
    41   17   18 ar
    42   17   56 1
    43   18   25 1
    44   18   19 ar
    45   19   20 ar
    46   19   21 1
    47   20   57 1
    48   21   22 1
    49   21   65 1
    50   22   23 2
    51   22   24 1
    52   24   25 am
    53   24   27 1
    54   25   26 2
    55   27   28 1
    56   27   58 1
    57   27   59 1
    58   28   33 ar
    59   28   29 ar
    60   29   30 ar
    61   29   60 1
    62   30   31 ar
    63   30   61 1
    64   31   32 ar
    65   31   34 1
    66   32   33 ar
    67   32   62 1
    68   33   63 1
@<TRIPOS>MOLECULE
ZINC19360739
   57    60     0     0     0
SMALL
USER_CHARGES

@<TRIPOS>ATOM
      1 C1         -0.5652    1.2485    0.7222 C.ar      1 <0>        -0.0943
      2 C2          0.5404    2.0554    0.9232 C.ar      1 <0>        -0.1192
      3 C3          1.8064    1.5069    0.9299 C.ar      1 <0>        -0.0897
      4 C4          1.9702    0.1352    0.7340 C.ar      1 <0>        -0.1001
      5 C5          0.8509   -0.6733    0.5323 C.ar      1 <0>        -0.0995
      6 C6         -0.4096   -0.1123    0.5274 C.ar      1 <0>        -0.1213
      7 C7          3.3236   -0.4590    0.7395 C.2       1 <0>        -0.0129
      8 C8          3.4760   -1.7626    0.5530 C.2       1 <0>        -0.2547
      9 C9          4.8559   -2.3684    0.5587 C.3       1 <0>         0.0399
     10 N1          4.9108   -3.4522    1.5488 N.4       1 <0>        -0.3851
     11 C10         4.0101   -4.5370    1.1373 C.3       1 <0>        -0.0024
     12 C11         4.0527   -5.6581    2.1781 C.3       1 <0>         0.0240
     13 N2          5.4291   -6.1596    2.2975 N.3       1 <0>        -0.5314
     14 C12         6.3467   -5.0788    2.6848 C.3       1 <0>         0.0243
     15 C13         6.2851   -3.9625    1.6399 C.3       1 <0>        -0.0015
     16 C14         5.5014   -7.2775    3.2479 C.3       1 <0>         0.1826
     17 C15         4.5657   -8.3733    2.8066 C.ar      1 <0>        -0.1088
     18 C16         4.5143   -8.7433    1.4756 C.ar      1 <0>        -0.0655
     19 C17         3.6570   -9.7484    1.0699 C.ar      1 <0>        -0.1560
     20 C18         2.8492  -10.3848    1.9971 C.ar      1 <0>         0.1127
     21 C19         2.9015  -10.0133    3.3299 C.ar      1 <0>        -0.1509
     22 C20         3.7634   -9.0115    3.7341 C.ar      1 <0>        -0.0777
     23 F1          2.0103  -11.3671    1.6015 F         1 <0>        -0.1328
     24 C21         6.9111   -7.8084    3.2926 C.ar      1 <0>        -0.1084
     25 C22         7.6132   -8.0036    2.1178 C.ar      1 <0>        -0.0645
     26 C23         8.9061   -8.4900    2.1575 C.ar      1 <0>        -0.1560
     27 C24         9.4983   -8.7818    3.3746 C.ar      1 <0>         0.1126
     28 C25         8.7941   -8.5859    4.5506 C.ar      1 <0>        -0.1509
     29 C26         7.5032   -8.0944    4.5086 C.ar      1 <0>        -0.0782
     30 F2         10.7620   -9.2578    3.4147 F         1 <0>        -0.1329
     31 H1         -1.5544    1.6820    0.7219 H         1 <0>         0.1310
     32 H2          0.4123    3.1170    1.0747 H         1 <0>         0.1321
     33 H3          2.6688    2.1380    1.0862 H         1 <0>         0.1292
     34 H4          0.9711   -1.7357    0.3797 H         1 <0>         0.1229
     35 H5         -1.2767   -0.7369    0.3711 H         1 <0>         0.1300
     36 H6          4.1884    0.1689    0.8954 H         1 <0>         0.1304
     37 H7          2.6112   -2.3905    0.3971 H         1 <0>         0.1361
     38 H8          5.0814   -2.7678   -0.4301 H         1 <0>         0.1357
     39 H9          5.5877   -1.6029    0.8169 H         1 <0>         0.1303
     40 H10         2.9927   -4.1539    1.0575 H         1 <0>         0.1348
     41 H11         4.3285   -4.9266    0.1704 H         1 <0>         0.1381
     42 H12         3.7213   -5.2722    3.1421 H         1 <0>         0.0629
     43 H13         3.3957   -6.4697    1.8655 H         1 <0>         0.1264
     44 H14         6.0531   -4.6834    3.6572 H         1 <0>         0.0632
     45 H15         7.3633   -5.4679    2.7419 H         1 <0>         0.1267
     46 H16         6.5919   -4.3551    0.6704 H         1 <0>         0.1386
     47 H17         6.9545   -3.1536    1.9326 H         1 <0>         0.1357
     48 H18         5.2123   -6.9303    4.2398 H         1 <0>         0.0722
     49 H19         5.1443   -8.2466    0.7526 H         1 <0>         0.1382
     50 H20         3.6168  -10.0371    0.0300 H         1 <0>         0.1392
     51 H21         2.2716  -10.5087    4.0539 H         1 <0>         0.1406
     52 H22         3.8076   -8.7246    4.7744 H         1 <0>         0.1329
     53 H23         7.1509   -7.7762    1.1685 H         1 <0>         0.1380
     54 H24         9.4543   -8.6427    1.2396 H         1 <0>         0.1391
     55 H25         9.2549   -8.8135    5.5005 H         1 <0>         0.1405
     56 H26         6.9553   -7.9373    5.4260 H         1 <0>         0.1327
     57 H27         4.6228   -3.0997    2.4493 H         1 <0>         0.4211
@<TRIPOS>BOND
     1    1    6 ar
     2    1    2 ar
     3    1   31 1
     4    2    3 ar
     5    2   32 1
     6    3    4 ar
     7    3   33 1
     8    4    5 ar
     9    4    7 1
    10    5    6 ar
    11    5   34 1
    12    6   35 1
    13    7    8 2
    14    7   36 1
    15    8    9 1
    16    8   37 1
    17    9   10 1
    18    9   38 1
    19    9   39 1
    20   10   15 1
    21   10   11 1
    22   10   57 1
    23   11   12 1
    24   11   40 1
    25   11   41 1
    26   12   13 1
    27   12   42 1
    28   12   43 1
    29   13   14 1
    30   13   16 1
    31   14   15 1
    32   14   44 1
    33   14   45 1
    34   15   46 1
    35   15   47 1
    36   16   17 1
    37   16   24 1
    38   16   48 1
    39   17   22 ar
    40   17   18 ar
    41   18   19 ar
    42   18   49 1
    43   19   20 ar
    44   19   50 1
    45   20   21 ar
    46   20   23 1
    47   21   22 ar
    48   21   51 1
    49   22   52 1
    50   24   29 ar
    51   24   25 ar
    52   25   26 ar
    53   25   53 1
    54   26   27 ar
    55   26   54 1
    56   27   28 ar
    57   27   30 1
    58   28   29 ar
    59   28   55 1
    60   29   56 1
@<TRIPOS>MOLECULE
ZINC19360739
   57    60     0     0     0
SMALL
USER_CHARGES

@<TRIPOS>ATOM
      1 C1         -0.0167    1.3792    0.0096 C.ar      1 <0>        -0.1111
      2 C2          1.1683    2.0931    0.0021 C.ar      1 <0>        -0.1174
      3 C3          2.3774    1.4286   -0.0134 C.ar      1 <0>        -0.1032
      4 C4          2.4032    0.0335   -0.0212 C.ar      1 <0>        -0.0719
      5 C5          1.2045   -0.6806   -0.0131 C.ar      1 <0>        -0.1113
      6 C6          0.0021   -0.0041    0.0020 C.ar      1 <0>        -0.1199
      7 C7          3.6950   -0.6848   -0.0384 C.2       1 <0>        -0.0777
      8 C8          3.7162   -2.0103   -0.0457 C.2       1 <0>        -0.1693
      9 C9          5.0332   -2.7426   -0.0633 C.3       1 <0>         0.0894
     10 N1          5.0868   -3.6810    1.0657 N.3       1 <0>        -0.5336
     11 C10         4.0942   -4.7533    0.9069 C.3       1 <0>         0.0249
     12 C11         4.1414   -5.6730    2.1290 C.3       1 <0>        -0.0045
     13 N2          5.4882   -6.2444    2.2603 N.4       1 <0>        -0.3853
     14 C12         6.4652   -5.1629    2.4428 C.3       1 <0>        -0.0043
     15 C13         6.4373   -4.2389    1.2233 C.3       1 <0>         0.0273
     16 C14         5.5281   -7.1413    3.4231 C.3       1 <0>         0.1390
     17 C15         4.5271   -8.2520    3.2353 C.ar      1 <0>        -0.1483
     18 C16         4.3690   -8.8365    1.9925 C.ar      1 <0>        -0.0905
     19 C17         3.4516   -9.8555    1.8192 C.ar      1 <0>        -0.1395
     20 C18         2.6908  -10.2910    2.8909 C.ar      1 <0>         0.1333
     21 C19         2.8500   -9.7049    4.1352 C.ar      1 <0>        -0.1404
     22 C20         3.7717   -8.6896    4.3073 C.ar      1 <0>        -0.0532
     23 F1          1.7934  -11.2868    2.7225 F         1 <0>        -0.1222
     24 C21         6.9097   -7.7277    3.5580 C.ar      1 <0>        -0.1479
     25 C22         7.6094   -8.1138    2.4299 C.ar      1 <0>        -0.0911
     26 C23         8.8766   -8.6513    2.5523 C.ar      1 <0>        -0.1392
     27 C24         9.4456   -8.8030    3.8055 C.ar      1 <0>         0.1332
     28 C25         8.7439   -8.4159    4.9346 C.ar      1 <0>        -0.1401
     29 C26         7.4789   -7.8738    4.8093 C.ar      1 <0>        -0.0534
     30 F2         10.6842   -9.3287    3.9264 F         1 <0>        -0.1221
     31 H1         -0.9604    1.9041    0.0260 H         1 <0>         0.1259
     32 H2          1.1469    3.1729    0.0082 H         1 <0>         0.1273
     33 H3          3.3018    1.9870   -0.0200 H         1 <0>         0.1256
     34 H4          1.2178   -1.7605   -0.0194 H         1 <0>         0.1202
     35 H5         -0.9265   -0.5556    0.0079 H         1 <0>         0.1249
     36 H6          4.6214   -0.1298   -0.0450 H         1 <0>         0.1212
     37 H7          2.7898   -2.5653   -0.0392 H         1 <0>         0.1156
     38 H8          5.1300   -3.2938   -0.9987 H         1 <0>         0.0564
     39 H9          5.8492   -2.0250    0.0217 H         1 <0>         0.0932
     40 H10         3.0991   -4.3175    0.8179 H         1 <0>         0.1259
     41 H11         4.3212   -5.3289    0.0096 H         1 <0>         0.0604
     42 H12         3.9011   -5.0999    3.0245 H         1 <0>         0.1416
     43 H13         3.4159   -6.4772    2.0068 H         1 <0>         0.1365
     44 H14         6.2129   -4.5924    3.3367 H         1 <0>         0.1418
     45 H15         7.4624   -5.5889    2.5531 H         1 <0>         0.1369
     46 H16         6.7029   -4.8061    0.3311 H         1 <0>         0.0602
     47 H17         7.1516   -3.4279    1.3651 H         1 <0>         0.1261
     48 H18         5.2824   -6.5792    4.3241 H         1 <0>         0.1543
     49 H19         4.9623   -8.4964    1.1566 H         1 <0>         0.1248
     50 H20         3.3280  -10.3117    0.8481 H         1 <0>         0.1494
     51 H21         2.2569  -10.0435    4.9717 H         1 <0>         0.1518
     52 H22         3.8993   -8.2353    5.2787 H         1 <0>         0.1457
     53 H23         7.1652   -7.9958    1.4525 H         1 <0>         0.1247
     54 H24         9.4229   -8.9532    1.6709 H         1 <0>         0.1494
     55 H25         9.1866   -8.5340    5.9126 H         1 <0>         0.1518
     56 H26         6.9332   -7.5676    5.6896 H         1 <0>         0.1457
     57 H27         5.7151   -6.7652    1.4264 H         1 <0>         0.4130
@<TRIPOS>BOND
     1    1    6 ar
     2    1    2 ar
     3    1   31 1
     4    2    3 ar
     5    2   32 1
     6    3    4 ar
     7    3   33 1
     8    4    5 ar
     9    4    7 1
    10    5    6 ar
    11    5   34 1
    12    6   35 1
    13    7    8 2
    14    7   36 1
    15    8    9 1
    16    8   37 1
    17    9   10 1
    18    9   38 1
    19    9   39 1
    20   10   15 1
    21   10   11 1
    22   11   12 1
    23   11   40 1
    24   11   41 1
    25   12   13 1
    26   12   42 1
    27   12   43 1
    28   13   14 1
    29   13   16 1
    30   13   57 1
    31   14   15 1
    32   14   44 1
    33   14   45 1
    34   15   46 1
    35   15   47 1
    36   16   17 1
    37   16   24 1
    38   16   48 1
    39   17   22 ar
    40   17   18 ar
    41   18   19 ar
    42   18   49 1
    43   19   20 ar
    44   19   50 1
    45   20   21 ar
    46   20   23 1
    47   21   22 ar
    48   21   51 1
    49   22   52 1
    50   24   29 ar
    51   24   25 ar
    52   25   26 ar
    53   25   53 1
    54   26   27 ar
    55   26   54 1
    56   27   28 ar
    57   27   30 1
    58   28   29 ar
    59   28   55 1
    60   29   56 1
@<TRIPOS>MOLECULE
ZINC19360739
   56    59     0     0     0
SMALL
USER_CHARGES

@<TRIPOS>ATOM
      1 C1         -0.6450    1.2067    0.7385 C.ar      1 <0>        -0.1212
      2 C2          0.4537    2.0253    0.9303 C.ar      1 <0>        -0.1188
      3 C3          1.7253    1.4899    0.9286 C.ar      1 <0>        -0.1101
      4 C4          1.9018    0.1196    0.7332 C.ar      1 <0>        -0.0554
      5 C5          0.7895   -0.7006    0.5408 C.ar      1 <0>        -0.1151
      6 C6         -0.4768   -0.1527    0.5444 C.ar      1 <0>        -0.1183
      7 C7          3.2613   -0.4606    0.7297 C.2       1 <0>        -0.1106
      8 C8          3.4257   -1.7628    0.5439 C.2       1 <0>        -0.1355
      9 C9          4.8118   -2.3544    0.5403 C.3       1 <0>         0.0846
     10 N1          4.8851   -3.4361    1.5314 N.3       1 <0>        -0.5355
     11 C10         4.0261   -4.5640    1.1446 C.3       1 <0>         0.0568
     12 C11         4.0688   -5.6331    2.2389 C.3       1 <0>         0.0566
     13 N2          5.4567   -6.0748    2.4347 N.3       1 <0>        -0.5294
     14 C12         6.3157   -4.9470    2.8216 C.3       1 <0>         0.0574
     15 C13         6.2730   -3.8778    1.7272 C.3       1 <0>         0.0585
     16 C14         5.5300   -7.1566    3.4259 C.3       1 <0>         0.1710
     17 C15         4.6571   -8.3028    2.9839 C.ar      1 <0>        -0.0902
     18 C16         4.6784   -8.7188    1.6657 C.ar      1 <0>        -0.0616
     19 C17         3.8787   -9.7702    1.2594 C.ar      1 <0>        -0.1564
     20 C18         3.0561  -10.4069    2.1731 C.ar      1 <0>         0.1011
     21 C19         3.0356   -9.9894    3.4931 C.ar      1 <0>        -0.1535
     22 C20         3.8401   -8.9412    3.8983 C.ar      1 <0>        -0.0820
     23 F1          2.2736  -11.4345    1.7769 F         1 <0>        -0.1394
     24 C21         6.9556   -7.6292    3.5490 C.ar      1 <0>        -0.0900
     25 C22         7.7154   -7.8360    2.4127 C.ar      1 <0>        -0.0609
     26 C23         9.0230   -8.2690    2.5245 C.ar      1 <0>        -0.1564
     27 C24         9.5721   -8.4957    3.7751 C.ar      1 <0>         0.1010
     28 C25         8.8102   -8.2884    4.9125 C.ar      1 <0>        -0.1536
     29 C26         7.5045   -7.8503    4.7985 C.ar      1 <0>        -0.0822
     30 F2         10.8502   -8.9195    3.8855 F         1 <0>        -0.1394
     31 H1         -1.6385    1.6300    0.7449 H         1 <0>         0.1219
     32 H2          0.3157    3.0857    1.0814 H         1 <0>         0.1233
     33 H3          2.5822    2.1300    1.0777 H         1 <0>         0.1236
     34 H4          0.9195   -1.7619    0.3888 H         1 <0>         0.1224
     35 H5         -1.3385   -0.7864    0.3952 H         1 <0>         0.1228
     36 H6          4.1206    0.1764    0.8785 H         1 <0>         0.1188
     37 H7          2.5664   -2.3998    0.3951 H         1 <0>         0.1136
     38 H8          5.0342   -2.7529   -0.4496 H         1 <0>         0.0473
     39 H9          5.5375   -1.5811    0.7921 H         1 <0>         0.0809
     40 H10         3.0016   -4.2141    1.0178 H         1 <0>         0.0804
     41 H11         4.3842   -4.9889    0.2069 H         1 <0>         0.0440
     42 H12         3.6851   -5.2160    3.1700 H         1 <0>         0.0452
     43 H13         3.4552   -6.4833    1.9409 H         1 <0>         0.0839
     44 H14         5.9575   -4.5220    3.7593 H         1 <0>         0.0455
     45 H15         7.3402   -5.2969    2.9483 H         1 <0>         0.0841
     46 H16         6.6566   -4.2950    0.7961 H         1 <0>         0.0443
     47 H17         6.8865   -3.0277    2.0252 H         1 <0>         0.0807
     48 H18         5.1846   -6.7883    4.3919 H         1 <0>         0.0629
     49 H19         5.3199   -8.2218    0.9531 H         1 <0>         0.1388
     50 H20         3.8952  -10.0948    0.2295 H         1 <0>         0.1357
     51 H21         2.3941  -10.4851    4.2066 H         1 <0>         0.1360
     52 H22         3.8276   -8.6183    4.9288 H         1 <0>         0.1311
     53 H23         7.2867   -7.6593    1.4373 H         1 <0>         0.1386
     54 H24         9.6162   -8.4307    1.6366 H         1 <0>         0.1356
     55 H25         9.2374   -8.4652    5.8885 H         1 <0>         0.1360
     56 H26         6.9114   -7.6842    5.6856 H         1 <0>         0.1310
@<TRIPOS>BOND
     1    1    6 ar
     2    1    2 ar
     3    1   31 1
     4    2    3 ar
     5    2   32 1
     6    3    4 ar
     7    3   33 1
     8    4    5 ar
     9    4    7 1
    10    5    6 ar
    11    5   34 1
    12    6   35 1
    13    7    8 2
    14    7   36 1
    15    8    9 1
    16    8   37 1
    17    9   10 1
    18    9   38 1
    19    9   39 1
    20   10   15 1
    21   10   11 1
    22   11   12 1
    23   11   40 1
    24   11   41 1
    25   12   13 1
    26   12   42 1
    27   12   43 1
    28   13   14 1
    29   13   16 1
    30   14   15 1
    31   14   44 1
    32   14   45 1
    33   15   46 1
    34   15   47 1
    35   16   17 1
    36   16   24 1
    37   16   48 1
    38   17   22 ar
    39   17   18 ar
    40   18   19 ar
    41   18   49 1
    42   19   20 ar
    43   19   50 1
    44   20   21 ar
    45   20   23 1
    46   21   22 ar
    47   21   51 1
    48   22   52 1
    49   24   29 ar
    50   24   25 ar
    51   25   26 ar
    52   25   53 1
    53   26   27 ar
    54   26   54 1
    55   27   28 ar
    56   27   30 1
    57   28   29 ar
    58   28   55 1
    59   29   56 1
@<TRIPOS>MOLECULE
ZINC20644066
   62    65     0     0     0
SMALL
USER_CHARGES
N-[3-(benzyl-methyl-amino)propyl]-3-[(4-chlorophenyl)methyl]-4-oxo-2-thioxo-1H-quinazoline-7-carboxamide
@<TRIPOS>ATOM
      1 C1         -3.7744   10.4804   -1.1525 C.3       1 <0>        -0.0562
      2 N1         -4.4118   10.0668    0.1047 N.4       1 <0>        -0.3984
      3 C2         -4.7021    8.6268    0.0989 C.3       1 <0>        -0.0043
      4 C3         -3.3889    7.8418    0.0811 C.3       1 <0>        -0.1615
      5 C4         -3.6913    6.3420    0.0751 C.3       1 <0>         0.1270
      6 N2         -2.4339    5.5904    0.0581 N.am      1 <0>        -0.7473
      7 C5         -2.4544    4.2428    0.0502 C.2       1 <0>         0.5697
      8 O1         -3.5159    3.6512    0.0571 O.2       1 <0>        -0.5288
      9 C6         -1.1835    3.4832    0.0330 C.ar      1 <0>        -0.0963
     10 C7          0.0356    4.1671    0.0250 C.ar      1 <0>        -0.1648
     11 C8          1.2232    3.4695    0.0095 C.ar      1 <0>        -0.0276
     12 C9          1.2059    2.0767    0.0017 C.ar      1 <0>        -0.2155
     13 C10        -0.0167    1.3835    0.0096 C.ar      1 <0>         0.1916
     14 C11        -1.2085    2.0905    0.0305 C.ar      1 <0>        -0.0713
     15 N3          0.0021   -0.0041    0.0020 N.2       1 <0>        -0.5656
     16 C12         1.1670   -0.6741   -0.0123 C.2       1 <0>         0.5067
     17 S1          1.1275   -2.3856   -0.0205 S.3       1 <0>        -0.7043
     18 N4          2.3600   -0.0593   -0.0199 N.am      1 <0>        -0.5226
     19 C13         2.4542    1.2880   -0.0135 C.2       1 <0>         0.5494
     20 O2          3.5387    1.8373   -0.0205 O.2       1 <0>        -0.5317
     21 C14         3.5834   -0.8650   -0.0349 C.3       1 <0>         0.1298
     22 C15         3.9902   -1.1341   -1.4608 C.ar      1 <0>        -0.0977
     23 C16         3.5226   -2.2604   -2.1118 C.ar      1 <0>        -0.0709
     24 C17         3.8908   -2.5048   -3.4214 C.ar      1 <0>        -0.1217
     25 C18         4.7365   -1.6279   -4.0771 C.ar      1 <0>        -0.0296
     26 C19         5.2086   -0.5038   -3.4232 C.ar      1 <0>        -0.1266
     27 C20         4.8352   -0.2575   -2.1154 C.ar      1 <0>        -0.0886
     28 Cl1         5.2046   -1.9376   -5.7198 Cl        1 <0>        -0.0828
     29 C21        -5.6293   10.8482    0.3597 C.3       1 <0>         0.0459
     30 C22        -5.2598   12.2890    0.6021 C.ar      1 <0>        -0.1589
     31 C23        -4.9938   12.7278    1.8856 C.ar      1 <0>        -0.0942
     32 C24        -4.6502   14.0483    2.1074 C.ar      1 <0>        -0.1137
     33 C25        -4.5824   14.9323    1.0468 C.ar      1 <0>        -0.0856
     34 C26        -4.8539   14.4948   -0.2361 C.ar      1 <0>        -0.1148
     35 C27        -5.1924   13.1731   -0.4585 C.ar      1 <0>        -0.0965
     36 H1         -3.5685   11.5605   -1.1212 H         1 <0>         0.1238
     37 H2         -4.4469   10.2596   -1.9945 H         1 <0>         0.1204
     38 H3         -2.8305    9.9308   -1.2832 H         1 <0>         0.1263
     39 H4         -5.2739    8.3644    1.0012 H         1 <0>         0.1358
     40 H5         -5.2918    8.3752   -0.7949 H         1 <0>         0.1325
     41 H6         -2.8171    8.1042   -0.8212 H         1 <0>         0.0949
     42 H7         -2.7992    8.0934    0.9749 H         1 <0>         0.0955
     43 H8         -4.2631    6.0797    0.9774 H         1 <0>         0.0754
     44 H9         -4.2810    6.0904   -0.8187 H         1 <0>         0.0748
     45 H10        -1.4731    6.1259    0.0518 H         1 <0>         0.4227
     46 H11         0.0464    5.2471    0.0314 H         1 <0>         0.1177
     47 H12         2.1639    4.0001    0.0030 H         1 <0>         0.1321
     48 H13        -2.1517    1.5645    0.0410 H         1 <0>         0.1425
     49 H14         4.3882   -0.3192    0.4792 H         1 <0>         0.0942
     50 H15         3.4003   -1.8194    0.4805 H         1 <0>         0.1299
     51 H16         2.8660   -2.9472   -1.5984 H         1 <0>         0.1653
     52 H17         3.5219   -3.3825   -3.9313 H         1 <0>         0.1313
     53 H18         5.8685    0.1813   -3.9346 H         1 <0>         0.1281
     54 H19         5.2034    0.6202   -1.6050 H         1 <0>         0.1330
     55 H20        -6.2965   10.7825   -0.5124 H         1 <0>         0.1334
     56 H21        -6.1434   10.4474    1.2457 H         1 <0>         0.1378
     57 H22        -5.0508   12.0381    2.7148 H         1 <0>         0.1321
     58 H23        -4.4385   14.3902    3.1097 H         1 <0>         0.1355
     59 H24        -4.3176   15.9648    1.2205 H         1 <0>         0.1347
     60 H25        -4.8013   15.1855   -1.0647 H         1 <0>         0.1350
     61 H26        -5.4046   12.8313   -1.4608 H         1 <0>         0.1305
     62 H27        -3.7048   10.2658    0.9235 H         1 <0>         0.4426
@<TRIPOS>BOND
     1    1    2 1
     2    1   36 1
     3    1   37 1
     4    1   38 1
     5    2    3 1
     6    2   29 1
     7    2   62 1
     8    3    4 1
     9    3   39 1
    10    3   40 1
    11    4    5 1
    12    4   41 1
    13    4   42 1
    14    5    6 1
    15    5   43 1
    16    5   44 1
    17    6    7 am
    18    6   45 1
    19    7    8 2
    20    7    9 1
    21    9   14 ar
    22    9   10 ar
    23   10   11 ar
    24   10   46 1
    25   11   12 ar
    26   11   47 1
    27   12   19 1
    28   12   13 ar
    29   13   14 ar
    30   13   15 1
    31   14   48 1
    32   15   16 2
    33   16   17 1
    34   16   18 1
    35   18   19 am
    36   18   21 1
    37   19   20 2
    38   21   22 1
    39   21   49 1
    40   21   50 1
    41   22   27 ar
    42   22   23 ar
    43   23   24 ar
    44   23   51 1
    45   24   25 ar
    46   24   52 1
    47   25   26 ar
    48   25   28 1
    49   26   27 ar
    50   26   53 1
    51   27   54 1
    52   29   30 1
    53   29   55 1
    54   29   56 1
    55   30   35 ar
    56   30   31 ar
    57   31   32 ar
    58   31   57 1
    59   32   33 ar
    60   32   58 1
    61   33   34 ar
    62   33   59 1
    63   34   35 ar
    64   34   60 1
    65   35   61 1
@<TRIPOS>MOLECULE
ZINC20644066
   63    66     0     0     0
SMALL
USER_CHARGES
N-[3-(benzyl-methyl-amino)propyl]-3-[(4-chlorophenyl)methyl]-4-oxo-2-thioxo-1H-quinazoline-7-carboxamide
@<TRIPOS>ATOM
      1 C1         -3.7744   10.4804   -1.1525 C.3       1 <0>        -0.0564
      2 N1         -4.4118   10.0668    0.1047 N.4       1 <0>        -0.3985
      3 C2         -4.7021    8.6268    0.0989 C.3       1 <0>        -0.0046
      4 C3         -3.3889    7.8418    0.0811 C.3       1 <0>        -0.1628
      5 C4         -3.6913    6.3420    0.0751 C.3       1 <0>         0.1249
      6 N2         -2.4339    5.5904    0.0581 N.am      1 <0>        -0.7399
      7 C5         -2.4544    4.2428    0.0502 C.2       1 <0>         0.5637
      8 O1         -3.5159    3.6512    0.0571 O.2       1 <0>        -0.5177
      9 C6         -1.1835    3.4832    0.0330 C.ar      1 <0>        -0.0675
     10 C7          0.0356    4.1671    0.0250 C.ar      1 <0>        -0.1169
     11 C8          1.2232    3.4695    0.0095 C.ar      1 <0>        -0.0188
     12 C9          1.2059    2.0767    0.0017 C.ar      1 <0>        -0.1608
     13 C10        -0.0167    1.3835    0.0096 C.ar      1 <0>         0.1791
     14 C11        -1.2085    2.0905    0.0305 C.ar      1 <0>        -0.0917
     15 N3          0.0021   -0.0041    0.0020 N.pl3     1 <0>        -0.5988
     16 C12         1.1670   -0.6741   -0.0123 C.2       1 <0>         0.5299
     17 S1          1.1275   -2.3856   -0.0205 S.2       1 <0>        -0.5267
     18 N4          2.3600   -0.0593   -0.0199 N.am      1 <0>        -0.5058
     19 C13         2.4542    1.2880   -0.0135 C.2       1 <0>         0.5526
     20 O2          3.5387    1.8373   -0.0205 O.2       1 <0>        -0.4648
     21 C14         3.5834   -0.8650   -0.0349 C.3       1 <0>         0.1301
     22 C15         3.9902   -1.1341   -1.4608 C.ar      1 <0>        -0.1209
     23 C16         3.5226   -2.2604   -2.1118 C.ar      1 <0>        -0.0742
     24 C17         3.8908   -2.5048   -3.4214 C.ar      1 <0>        -0.1181
     25 C18         4.7365   -1.6279   -4.0771 C.ar      1 <0>        -0.0203
     26 C19         5.2086   -0.5038   -3.4232 C.ar      1 <0>        -0.1205
     27 C20         4.8352   -0.2575   -2.1154 C.ar      1 <0>        -0.0829
     28 Cl1         5.2046   -1.9376   -5.7198 Cl        1 <0>        -0.0646
     29 C21        -5.6293   10.8482    0.3597 C.3       1 <0>         0.0466
     30 C22        -5.2598   12.2890    0.6021 C.ar      1 <0>        -0.1619
     31 C23        -4.9938   12.7278    1.8856 C.ar      1 <0>        -0.0944
     32 C24        -4.6502   14.0483    2.1074 C.ar      1 <0>        -0.1132
     33 C25        -4.5824   14.9323    1.0468 C.ar      1 <0>        -0.0834
     34 C26        -4.8539   14.4948   -0.2361 C.ar      1 <0>        -0.1138
     35 C27        -5.1924   13.1731   -0.4585 C.ar      1 <0>        -0.0966
     36 H1         -3.5685   11.5605   -1.1212 H         1 <0>         0.1259
     37 H2         -4.4469   10.2596   -1.9945 H         1 <0>         0.1210
     38 H3         -2.8305    9.9308   -1.2832 H         1 <0>         0.1245
     39 H4         -5.2739    8.3644    1.0012 H         1 <0>         0.1364
     40 H5         -5.2918    8.3752   -0.7949 H         1 <0>         0.1331
     41 H6         -2.8171    8.1042   -0.8212 H         1 <0>         0.0962
     42 H7         -2.7992    8.0934    0.9749 H         1 <0>         0.0967
     43 H8         -4.2631    6.0797    0.9774 H         1 <0>         0.0809
     44 H9         -4.2810    6.0904   -0.8187 H         1 <0>         0.0803
     45 H10        -1.4731    6.1259    0.0518 H         1 <0>         0.4248
     46 H11         0.0464    5.2471    0.0314 H         1 <0>         0.1404
     47 H12         2.1639    4.0001    0.0030 H         1 <0>         0.1571
     48 H13        -2.1517    1.5645    0.0410 H         1 <0>         0.1589
     49 H14         4.3882   -0.3192    0.4792 H         1 <0>         0.1171
     50 H15         3.4003   -1.8194    0.4805 H         1 <0>         0.1397
     51 H16         2.8660   -2.9472   -1.5984 H         1 <0>         0.1586
     52 H17         3.5219   -3.3825   -3.9313 H         1 <0>         0.1373
     53 H18         5.8685    0.1813   -3.9346 H         1 <0>         0.1353
     54 H19         5.2034    0.6202   -1.6050 H         1 <0>         0.1360
     55 H20        -6.2965   10.7825   -0.5124 H         1 <0>         0.1340
     56 H21        -6.1434   10.4474    1.2457 H         1 <0>         0.1381
     57 H22        -5.0508   12.0381    2.7148 H         1 <0>         0.1315
     58 H23        -4.4385   14.3902    3.1097 H         1 <0>         0.1363
     59 H24        -4.3176   15.9648    1.2205 H         1 <0>         0.1361
     60 H25        -4.8013   15.1855   -1.0647 H         1 <0>         0.1361
     61 H26        -5.4046   12.8313   -1.4608 H         1 <0>         0.1304
     62 H27        -3.7048   10.2658    0.9235 H         1 <0>         0.4426
     63 H28        -0.9429   -0.5670    0.0077 H         1 <0>         0.4839
@<TRIPOS>BOND
     1    1    2 1
     2    1   36 1
     3    1   37 1
     4    1   38 1
     5    2    3 1
     6    2   29 1
     7    2   62 1
     8    3    4 1
     9    3   39 1
    10    3   40 1
    11    4    5 1
    12    4   41 1
    13    4   42 1
    14    5    6 1
    15    5   43 1
    16    5   44 1
    17    6    7 am
    18    6   45 1
    19    7    8 2
    20    7    9 1
    21    9   14 ar
    22    9   10 ar
    23   10   11 ar
    24   10   46 1
    25   11   12 ar
    26   11   47 1
    27   12   19 1
    28   12   13 ar
    29   13   14 ar
    30   13   15 1
    31   14   48 1
    32   15   16 1
    33   15   63 1
    34   16   17 2
    35   16   18 1
    36   18   19 am
    37   18   21 1
    38   19   20 2
    39   21   22 1
    40   21   49 1
    41   21   50 1
    42   22   27 ar
    43   22   23 ar
    44   23   24 ar
    45   23   51 1
    46   24   25 ar
    47   24   52 1
    48   25   26 ar
    49   25   28 1
    50   26   27 ar
    51   26   53 1
    52   27   54 1
    53   29   30 1
    54   29   55 1
    55   29   56 1
    56   30   35 ar
    57   30   31 ar
    58   31   32 ar
    59   31   57 1
    60   32   33 ar
    61   32   58 1
    62   33   34 ar
    63   33   59 1
    64   34   35 ar
    65   34   60 1
    66   35   61 1
@<TRIPOS>MOLECULE
ZINC20644060
   56    59     0     0     0
SMALL
USER_CHARGES
3-[(4-chlorophenyl)methyl]-4-oxo-N-(3-pyrrolidin-1-ylpropyl)-2-thioxo-1H-quinazoline-7-carboxamide
@<TRIPOS>ATOM
      1 C1          3.5226   -2.2604   -2.1118 C.ar      1 <0>        -0.0709
      2 C2          3.8908   -2.5048   -3.4214 C.ar      1 <0>        -0.1217
      3 C3          4.7365   -1.6279   -4.0771 C.ar      1 <0>        -0.0296
      4 C4          5.2086   -0.5038   -3.4232 C.ar      1 <0>        -0.1266
      5 C5          4.8352   -0.2575   -2.1154 C.ar      1 <0>        -0.0886
      6 C6          3.9902   -1.1341   -1.4608 C.ar      1 <0>        -0.0977
      7 C7          3.5834   -0.8650   -0.0349 C.3       1 <0>         0.1298
      8 N1          2.3600   -0.0593   -0.0199 N.am      1 <0>        -0.5225
      9 C8          2.4542    1.2880   -0.0135 C.2       1 <0>         0.5494
     10 O1          3.5387    1.8373   -0.0205 O.2       1 <0>        -0.5316
     11 C9          1.2059    2.0767    0.0017 C.ar      1 <0>        -0.2155
     12 C10         1.2232    3.4695    0.0090 C.ar      1 <0>        -0.0274
     13 C11         0.0356    4.1671    0.0241 C.ar      1 <0>        -0.1650
     14 C12        -1.1835    3.4832    0.0325 C.ar      1 <0>        -0.0964
     15 C13        -1.2085    2.0905    0.0305 C.ar      1 <0>        -0.0713
     16 C14        -0.0167    1.3835    0.0096 C.ar      1 <0>         0.1917
     17 N2          0.0021   -0.0041    0.0020 N.2       1 <0>        -0.5656
     18 C15         1.1670   -0.6741   -0.0123 C.2       1 <0>         0.5067
     19 S1          1.1275   -2.3856   -0.0205 S.3       1 <0>        -0.7039
     20 C16        -2.4544    4.2428    0.0492 C.2       1 <0>         0.5696
     21 O2         -3.5159    3.6512    0.0566 O.2       1 <0>        -0.5287
     22 N3         -2.4339    5.5904    0.0563 N.am      1 <0>        -0.7473
     23 C17        -3.6913    6.3420    0.0728 C.3       1 <0>         0.1263
     24 C18        -3.3889    7.8418    0.0779 C.3       1 <0>        -0.1615
     25 C19        -4.7021    8.6268    0.0951 C.3       1 <0>        -0.0063
     26 N4         -4.4118   10.0668    0.1000 N.4       1 <0>        -0.4105
     27 C20        -3.4920   10.4281   -1.0089 C.3       1 <0>        -0.0061
     28 C21        -3.7196   11.9516   -1.1761 C.3       1 <0>        -0.1440
     29 C22        -5.2386   12.1031   -0.9321 C.3       1 <0>        -0.1428
     30 C23        -5.6424   10.8563   -0.1234 C.3       1 <0>        -0.0004
     31 Cl1         5.2046   -1.9376   -5.7198 Cl        1 <0>        -0.0828
     32 H1          2.8660   -2.9472   -1.5984 H         1 <0>         0.1653
     33 H2          3.5219   -3.3825   -3.9313 H         1 <0>         0.1314
     34 H3          5.8685    0.1813   -3.9346 H         1 <0>         0.1281
     35 H4          5.2034    0.6202   -1.6050 H         1 <0>         0.1330
     36 H5          3.4003   -1.8194    0.4805 H         1 <0>         0.1299
     37 H6          4.3882   -0.3192    0.4793 H         1 <0>         0.0942
     38 H7          2.1639    4.0001    0.0025 H         1 <0>         0.1321
     39 H8          0.0464    5.2471    0.0298 H         1 <0>         0.1175
     40 H9         -2.1517    1.5645    0.0406 H         1 <0>         0.1425
     41 H10        -1.4731    6.1259    0.0497 H         1 <0>         0.4225
     42 H11        -4.2809    6.0899   -0.8209 H         1 <0>         0.0741
     43 H12        -4.2632    6.0802    0.9752 H         1 <0>         0.0751
     44 H13        -2.7993    8.0939    0.9716 H         1 <0>         0.0948
     45 H14        -2.8170    8.1036   -0.8245 H         1 <0>         0.0939
     46 H15        -5.2917    8.3747   -0.7986 H         1 <0>         0.1291
     47 H16        -5.2740    8.3650    0.9975 H         1 <0>         0.1354
     48 H17        -2.4582   10.1860   -0.7214 H         1 <0>         0.1333
     49 H18        -3.7642    9.8603   -1.9109 H         1 <0>         0.1304
     50 H19        -3.1154   12.4960   -0.4355 H         1 <0>         0.0972
     51 H20        -3.4209   12.2579   -2.1895 H         1 <0>         0.1142
     52 H21        -5.4291   13.0293   -0.3701 H         1 <0>         0.1047
     53 H22        -5.7627   12.1461   -1.8983 H         1 <0>         0.1034
     54 H23        -6.3705   10.2501   -0.6823 H         1 <0>         0.1289
     55 H24        -6.0736   11.1455    0.8463 H         1 <0>         0.1310
     56 H25        -3.9693   10.2797    1.0843 H         1 <0>         0.4494
@<TRIPOS>BOND
     1    1    6 ar
     2    1    2 ar
     3    1   32 1
     4    2    3 ar
     5    2   33 1
     6    3    4 ar
     7    3   31 1
     8    4    5 ar
     9    4   34 1
    10    5    6 ar
    11    5   35 1
    12    6    7 1
    13    7    8 1
    14    7   36 1
    15    7   37 1
    16    8   18 1
    17    8    9 am
    18    9   10 2
    19    9   11 1
    20   11   16 ar
    21   11   12 ar
    22   12   13 ar
    23   12   38 1
    24   13   14 ar
    25   13   39 1
    26   14   15 ar
    27   14   20 1
    28   15   16 ar
    29   15   40 1
    30   16   17 1
    31   17   18 2
    32   18   19 1
    33   20   21 2
    34   20   22 am
    35   22   23 1
    36   22   41 1
    37   23   24 1
    38   23   42 1
    39   23   43 1
    40   24   25 1
    41   24   44 1
    42   24   45 1
    43   25   26 1
    44   25   46 1
    45   25   47 1
    46   26   30 1
    47   26   27 1
    48   26   56 1
    49   27   28 1
    50   27   48 1
    51   27   49 1
    52   28   29 1
    53   28   50 1
    54   28   51 1
    55   29   30 1
    56   29   52 1
    57   29   53 1
    58   30   54 1
    59   30   55 1
@<TRIPOS>MOLECULE
ZINC20644062
   62    65     0     0     0
SMALL
USER_CHARGES
N-[3-(azepan-1-yl)propyl]-3-[(4-chlorophenyl)methyl]-4-oxo-2-thioxo-1H-quinazoline-7-carboxamide
@<TRIPOS>ATOM
      1 C1          3.5226   -2.2604   -2.1118 C.ar      1 <0>        -0.0709
      2 C2          3.8908   -2.5048   -3.4214 C.ar      1 <0>        -0.1217
      3 C3          4.7365   -1.6279   -4.0771 C.ar      1 <0>        -0.0296
      4 C4          5.2086   -0.5038   -3.4232 C.ar      1 <0>        -0.1266
      5 C5          4.8352   -0.2575   -2.1154 C.ar      1 <0>        -0.0886
      6 C6          3.9902   -1.1341   -1.4608 C.ar      1 <0>        -0.0978
      7 C7          3.5834   -0.8650   -0.0349 C.3       1 <0>         0.1298
      8 N1          2.3600   -0.0593   -0.0199 N.am      1 <0>        -0.5226
      9 C8          2.4542    1.2880   -0.0135 C.2       1 <0>         0.5494
     10 O1          3.5387    1.8373   -0.0205 O.2       1 <0>        -0.5317
     11 C9          1.2059    2.0767    0.0017 C.ar      1 <0>        -0.2156
     12 C10         1.2232    3.4695    0.0090 C.ar      1 <0>        -0.0275
     13 C11         0.0356    4.1671    0.0241 C.ar      1 <0>        -0.1649
     14 C12        -1.1835    3.4832    0.0325 C.ar      1 <0>        -0.0962
     15 C13        -1.2085    2.0905    0.0305 C.ar      1 <0>        -0.0714
     16 C14        -0.0167    1.3835    0.0096 C.ar      1 <0>         0.1917
     17 N2          0.0021   -0.0041    0.0020 N.2       1 <0>        -0.5657
     18 C15         1.1670   -0.6741   -0.0123 C.2       1 <0>         0.5067
     19 S1          1.1275   -2.3856   -0.0205 S.3       1 <0>        -0.7041
     20 C16        -2.4544    4.2428    0.0492 C.2       1 <0>         0.5696
     21 O2         -3.5159    3.6512    0.0566 O.2       1 <0>        -0.5289
     22 N3         -2.4339    5.5904    0.0563 N.am      1 <0>        -0.7471
     23 C17        -3.6913    6.3420    0.0728 C.3       1 <0>         0.1267
     24 C18        -3.3889    7.8418    0.0779 C.3       1 <0>        -0.1613
     25 C19        -4.7021    8.6268    0.0951 C.3       1 <0>         0.0000
     26 N4         -4.4118   10.0668    0.1000 N.4       1 <0>        -0.4006
     27 C20        -3.6441   10.4490    1.3062 C.3       1 <0>        -0.0094
     28 C21        -3.5575   11.9391    1.4950 C.3       1 <0>        -0.1424
     29 C22        -4.7056   12.3822    2.4259 C.3       1 <0>        -0.1329
     30 C23        -5.9824   12.4647    1.7251 C.3       1 <0>        -0.1335
     31 C24        -6.4167   11.1031    1.1432 C.3       1 <0>        -0.1496
     32 C25        -5.6432   10.8569   -0.1235 C.3       1 <0>        -0.0042
     33 Cl1         5.2046   -1.9376   -5.7198 Cl        1 <0>        -0.0828
     34 H1          2.8660   -2.9472   -1.5984 H         1 <0>         0.1653
     35 H2          3.5219   -3.3825   -3.9313 H         1 <0>         0.1314
     36 H3          5.8685    0.1813   -3.9346 H         1 <0>         0.1281
     37 H4          5.2034    0.6202   -1.6050 H         1 <0>         0.1330
     38 H5          3.4003   -1.8194    0.4805 H         1 <0>         0.1299
     39 H6          4.3882   -0.3192    0.4793 H         1 <0>         0.0942
     40 H7          2.1639    4.0001    0.0025 H         1 <0>         0.1321
     41 H8          0.0464    5.2471    0.0298 H         1 <0>         0.1177
     42 H9         -2.1517    1.5645    0.0406 H         1 <0>         0.1424
     43 H10        -1.4731    6.1259    0.0497 H         1 <0>         0.4226
     44 H11        -4.2809    6.0899   -0.8209 H         1 <0>         0.0750
     45 H12        -4.2632    6.0802    0.9752 H         1 <0>         0.0740
     46 H13        -2.7993    8.0939    0.9716 H         1 <0>         0.0940
     47 H14        -2.8170    8.1036   -0.8245 H         1 <0>         0.0956
     48 H15        -5.2917    8.3747   -0.7986 H         1 <0>         0.1353
     49 H16        -5.2740    8.3650    0.9975 H         1 <0>         0.1292
     50 H17        -4.1281   10.0251    2.1984 H         1 <0>         0.1245
     51 H18        -2.6181   10.0605    1.2262 H         1 <0>         0.1322
     52 H19        -2.5878   12.1957    1.9465 H         1 <0>         0.1096
     53 H20        -3.6513   12.4384    0.5193 H         1 <0>         0.0848
     54 H21        -4.8125   11.6577    3.2467 H         1 <0>         0.0736
     55 H22        -4.4787   13.3754    2.8408 H         1 <0>         0.0840
     56 H23        -6.7626   12.8025    2.4231 H         1 <0>         0.0828
     57 H24        -5.8990   13.1805    0.8941 H         1 <0>         0.0726
     58 H25        -6.2047   10.3080    1.8732 H         1 <0>         0.0836
     59 H26        -7.4950   11.1240    0.9267 H         1 <0>         0.1069
     60 H27        -5.3785   11.8354   -0.5507 H         1 <0>         0.1294
     61 H28        -6.3027   10.3188   -0.8203 H         1 <0>         0.1299
     62 H29        -3.7553   10.2999   -0.7513 H         1 <0>         0.4401
@<TRIPOS>BOND
     1    1    6 ar
     2    1    2 ar
     3    1   34 1
     4    2    3 ar
     5    2   35 1
     6    3    4 ar
     7    3   33 1
     8    4    5 ar
     9    4   36 1
    10    5    6 ar
    11    5   37 1
    12    6    7 1
    13    7    8 1
    14    7   38 1
    15    7   39 1
    16    8   18 1
    17    8    9 am
    18    9   10 2
    19    9   11 1
    20   11   16 ar
    21   11   12 ar
    22   12   13 ar
    23   12   40 1
    24   13   14 ar
    25   13   41 1
    26   14   15 ar
    27   14   20 1
    28   15   16 ar
    29   15   42 1
    30   16   17 1
    31   17   18 2
    32   18   19 1
    33   20   21 2
    34   20   22 am
    35   22   23 1
    36   22   43 1
    37   23   24 1
    38   23   44 1
    39   23   45 1
    40   24   25 1
    41   24   46 1
    42   24   47 1
    43   25   26 1
    44   25   48 1
    45   25   49 1
    46   26   32 1
    47   26   27 1
    48   26   62 1
    49   27   28 1
    50   27   50 1
    51   27   51 1
    52   28   29 1
    53   28   52 1
    54   28   53 1
    55   29   30 1
    56   29   54 1
    57   29   55 1
    58   30   31 1
    59   30   56 1
    60   30   57 1
    61   31   32 1
    62   31   58 1
    63   31   59 1
    64   32   60 1
    65   32   61 1
@<TRIPOS>MOLECULE
ZINC20644062
   63    66     0     0     0
SMALL
USER_CHARGES
N-[3-(azepan-1-yl)propyl]-3-[(4-chlorophenyl)methyl]-4-oxo-2-thioxo-1H-quinazoline-7-carboxamide
@<TRIPOS>ATOM
      1 C1          3.5226   -2.2604   -2.1118 C.ar      1 <0>        -0.0742
      2 C2          3.8908   -2.5048   -3.4214 C.ar      1 <0>        -0.1181
      3 C3          4.7365   -1.6279   -4.0771 C.ar      1 <0>        -0.0202
      4 C4          5.2086   -0.5038   -3.4232 C.ar      1 <0>        -0.1205
      5 C5          4.8352   -0.2575   -2.1154 C.ar      1 <0>        -0.0829
      6 C6          3.9902   -1.1341   -1.4608 C.ar      1 <0>        -0.1210
      7 C7          3.5834   -0.8650   -0.0349 C.3       1 <0>         0.1301
      8 N1          2.3600   -0.0593   -0.0199 N.am      1 <0>        -0.5058
      9 C8          2.4542    1.2880   -0.0135 C.2       1 <0>         0.5526
     10 O1          3.5387    1.8373   -0.0205 O.2       1 <0>        -0.4648
     11 C9          1.2059    2.0767    0.0017 C.ar      1 <0>        -0.1607
     12 C10         1.2232    3.4695    0.0090 C.ar      1 <0>        -0.0188
     13 C11         0.0356    4.1671    0.0241 C.ar      1 <0>        -0.1170
     14 C12        -1.1835    3.4832    0.0325 C.ar      1 <0>        -0.0675
     15 C13        -1.2085    2.0905    0.0305 C.ar      1 <0>        -0.0917
     16 C14        -0.0167    1.3835    0.0096 C.ar      1 <0>         0.1791
     17 N2          0.0021   -0.0041    0.0020 N.pl3     1 <0>        -0.5988
     18 C15         1.1670   -0.6741   -0.0123 C.2       1 <0>         0.5298
     19 S1          1.1275   -2.3856   -0.0205 S.2       1 <0>        -0.5265
     20 C16        -2.4544    4.2428    0.0492 C.2       1 <0>         0.5635
     21 O2         -3.5159    3.6512    0.0566 O.2       1 <0>        -0.5177
     22 N3         -2.4339    5.5904    0.0563 N.am      1 <0>        -0.7396
     23 C17        -3.6913    6.3420    0.0728 C.3       1 <0>         0.1246
     24 C18        -3.3889    7.8418    0.0779 C.3       1 <0>        -0.1626
     25 C19        -4.7021    8.6268    0.0951 C.3       1 <0>        -0.0003
     26 N4         -4.4118   10.0668    0.1000 N.4       1 <0>        -0.4009
     27 C20        -3.6441   10.4490    1.3062 C.3       1 <0>        -0.0085
     28 C21        -3.5575   11.9391    1.4950 C.3       1 <0>        -0.1434
     29 C22        -4.7056   12.3822    2.4259 C.3       1 <0>        -0.1330
     30 C23        -5.9824   12.4647    1.7251 C.3       1 <0>        -0.1349
     31 C24        -6.4167   11.1031    1.1432 C.3       1 <0>        -0.1493
     32 C25        -5.6432   10.8569   -0.1235 C.3       1 <0>        -0.0047
     33 Cl1         5.2046   -1.9376   -5.7198 Cl        1 <0>        -0.0646
     34 H1          2.8660   -2.9472   -1.5984 H         1 <0>         0.1585
     35 H2          3.5219   -3.3825   -3.9313 H         1 <0>         0.1373
     36 H3          5.8685    0.1813   -3.9346 H         1 <0>         0.1354
     37 H4          5.2034    0.6202   -1.6050 H         1 <0>         0.1359
     38 H5          3.4003   -1.8194    0.4805 H         1 <0>         0.1397
     39 H6          4.3882   -0.3192    0.4793 H         1 <0>         0.1171
     40 H7          2.1639    4.0001    0.0025 H         1 <0>         0.1572
     41 H8          0.0464    5.2471    0.0298 H         1 <0>         0.1403
     42 H9         -2.1517    1.5645    0.0406 H         1 <0>         0.1589
     43 H10        -1.4731    6.1259    0.0497 H         1 <0>         0.4247
     44 H11        -4.2809    6.0899   -0.8209 H         1 <0>         0.0805
     45 H12        -4.2632    6.0802    0.9752 H         1 <0>         0.0796
     46 H13        -2.7993    8.0939    0.9716 H         1 <0>         0.0953
     47 H14        -2.8170    8.1036   -0.8245 H         1 <0>         0.0969
     48 H15        -5.2917    8.3747   -0.7986 H         1 <0>         0.1359
     49 H16        -5.2740    8.3650    0.9975 H         1 <0>         0.1300
     50 H17        -4.1281   10.0251    2.1984 H         1 <0>         0.1245
     51 H18        -2.6181   10.0605    1.2262 H         1 <0>         0.1305
     52 H19        -2.5878   12.1957    1.9465 H         1 <0>         0.1101
     53 H20        -3.6513   12.4384    0.5193 H         1 <0>         0.0858
     54 H21        -4.8125   11.6577    3.2467 H         1 <0>         0.0732
     55 H22        -4.4787   13.3754    2.8408 H         1 <0>         0.0856
     56 H23        -6.7626   12.8025    2.4231 H         1 <0>         0.0844
     57 H24        -5.8990   13.1805    0.8941 H         1 <0>         0.0737
     58 H25        -6.2047   10.3080    1.8732 H         1 <0>         0.0826
     59 H26        -7.4950   11.1240    0.9267 H         1 <0>         0.1082
     60 H27        -5.3785   11.8354   -0.5507 H         1 <0>         0.1313
     61 H28        -6.3027   10.3188   -0.8203 H         1 <0>         0.1305
     62 H29        -3.7553   10.2999   -0.7513 H         1 <0>         0.4403
     63 H30        -0.9429   -0.5670    0.0077 H         1 <0>         0.4839
@<TRIPOS>BOND
     1    1    6 ar
     2    1    2 ar
     3    1   34 1
     4    2    3 ar
     5    2   35 1
     6    3    4 ar
     7    3   33 1
     8    4    5 ar
     9    4   36 1
    10    5    6 ar
    11    5   37 1
    12    6    7 1
    13    7    8 1
    14    7   38 1
    15    7   39 1
    16    8   18 1
    17    8    9 am
    18    9   10 2
    19    9   11 1
    20   11   16 ar
    21   11   12 ar
    22   12   13 ar
    23   12   40 1
    24   13   14 ar
    25   13   41 1
    26   14   15 ar
    27   14   20 1
    28   15   16 ar
    29   15   42 1
    30   16   17 1
    31   17   18 1
    32   17   63 1
    33   18   19 2
    34   20   21 2
    35   20   22 am
    36   22   23 1
    37   22   43 1
    38   23   24 1
    39   23   44 1
    40   23   45 1
    41   24   25 1
    42   24   46 1
    43   24   47 1
    44   25   26 1
    45   25   48 1
    46   25   49 1
    47   26   32 1
    48   26   27 1
    49   26   62 1
    50   27   28 1
    51   27   50 1
    52   27   51 1
    53   28   29 1
    54   28   52 1
    55   28   53 1
    56   29   30 1
    57   29   54 1
    58   29   55 1
    59   30   31 1
    60   30   56 1
    61   30   57 1
    62   31   32 1
    63   31   58 1
    64   31   59 1
    65   32   60 1
    66   32   61 1
@<TRIPOS>MOLECULE
ZINC03782486
   75    78     0     0     0
SMALL
USER_CHARGES

@<TRIPOS>ATOM
      1 C1          0.5287   -1.3298    1.3705 C.3       1 <0>        -0.1645
      2 C2          0.2576   -0.1526    0.4316 C.3       1 <0>        -0.0948
      3 C3          0.8599   -0.4479   -0.9435 C.3       1 <0>        -0.1421
      4 C4         -1.2524    0.0524    0.2936 C.3       1 <0>        -0.0310
      5 H1         -1.6967    0.1299    1.2859 H         1 <0>         0.0986
      6 C5         -1.5132    1.3255   -0.4683 C.ar      1 <0>        -0.0914
      7 C6         -0.7302    2.4322   -0.1648 C.ar      1 <0>        -0.0835
      8 C7         -0.9224    3.6290   -0.8221 C.ar      1 <0>        -0.1523
      9 C8         -1.9049    3.7297   -1.7930 C.ar      1 <0>         0.1111
     10 C9         -2.6825    2.6289   -2.0971 C.ar      1 <0>        -0.1551
     11 C10        -2.4863    1.4227   -1.4375 C.ar      1 <0>        -0.0398
     12 C11        -3.3589    0.2592   -1.8298 C.3       1 <0>        -0.0800
     13 C12        -3.3240   -0.8251   -0.7547 C.3       1 <0>        -0.1506
     14 C13        -1.8583   -1.1438   -0.4376 C.3       1 <0>         0.1473
     15 C14        -1.7830   -2.3849    0.4540 C.3       1 <0>        -0.2170
     16 C15        -2.4267   -2.0800    1.8080 C.3       1 <0>        -0.0176
     17 N1         -2.3149   -3.2572    2.6796 N.4       1 <0>        -0.3835
     18 C16        -3.1024   -4.3612    2.1147 C.3       1 <0>        -0.0591
     19 C17        -2.8245   -2.9265    4.0171 C.3       1 <0>        -0.0111
     20 C18        -2.5940   -4.1108    4.9579 C.3       1 <0>        -0.1425
     21 C19        -3.1248   -3.7663    6.3509 C.3       1 <0>        -0.0320
     22 C20        -2.8978   -4.9328    7.2776 C.2       1 <0>         0.2643
     23 N2         -2.2376   -4.8677    8.4652 N.pl3     1 <0>        -0.5958
     24 H2         -1.8374   -4.0761    8.8578 H         1 <0>         0.4237
     25 C21        -2.2432   -6.1369    9.0083 C.ar      1 <0>         0.0516
     26 C22        -1.7394   -6.6905   10.1776 C.ar      1 <0>        -0.1145
     27 C23        -1.9201   -8.0335   10.4303 C.ar      1 <0>        -0.0902
     28 C24        -2.6011   -8.8343    9.5242 C.ar      1 <0>        -0.1216
     29 C25        -3.1037   -8.3069    8.3686 C.ar      1 <0>        -0.0637
     30 C26        -2.9330   -6.9479    8.0915 C.ar      1 <0>         0.0430
     31 N3         -3.3096   -6.1479    7.0611 N.2       1 <0>        -0.4831
     32 O1         -1.1426   -1.3786   -1.6520 O.3       1 <0>        -0.3090
     33 C27        -1.4862   -2.4650   -2.3615 C.2       1 <0>         0.4592
     34 O2         -2.3931   -3.1697   -1.9863 O.2       1 <0>        -0.4841
     35 C28        -0.7407   -2.8058   -3.6261 C.3       1 <0>         0.0629
     36 O3         -1.2881   -3.9967   -4.1955 O.3       1 <0>        -0.3710
     37 C29        -0.6490   -4.4096   -5.4051 C.3       1 <0>         0.0296
     38 F1         -2.1025    4.8993   -2.4395 F         1 <0>        -0.1336
     39 H3          1.4855   -1.1823    1.8713 H         1 <0>         0.0691
     40 H4         -0.2652   -1.3913    2.1148 H         1 <0>         0.0441
     41 H5          0.5589   -2.2546    0.7944 H         1 <0>         0.0682
     42 H6          0.7109    0.7503    0.8406 H         1 <0>         0.0874
     43 H7          0.7715   -1.5129   -1.1579 H         1 <0>         0.0605
     44 H8          0.3255    0.1214   -1.7041 H         1 <0>         0.0726
     45 H9          1.9119   -0.1624   -0.9483 H         1 <0>         0.0524
     46 H10         0.0355    2.3546    0.5929 H         1 <0>         0.1345
     47 H11        -0.3093    4.4847   -0.5806 H         1 <0>         0.1393
     48 H12        -3.4489    2.7071   -2.8540 H         1 <0>         0.1369
     49 H13        -4.3844    0.6060   -1.9572 H         1 <0>         0.0883
     50 H14        -3.0012   -0.1568   -2.7716 H         1 <0>         0.0816
     51 H15        -3.8251   -0.4667    0.1445 H         1 <0>         0.0824
     52 H16        -3.8237   -1.7217   -1.1213 H         1 <0>         0.0974
     53 H17        -2.3141   -3.2082   -0.0237 H         1 <0>         0.1246
     54 H18        -0.7395   -2.6630    0.6021 H         1 <0>         0.1198
     55 H19        -1.9163   -1.2354    2.2710 H         1 <0>         0.1376
     56 H20        -3.4786   -1.8338    1.6631 H         1 <0>         0.1361
     57 H21        -4.1478   -4.0614    2.0414 H         1 <0>         0.1261
     58 H22        -2.7242   -4.6066    1.1223 H         1 <0>         0.1276
     59 H23        -3.0194   -5.2347    2.7614 H         1 <0>         0.1290
     60 H24        -2.2997   -2.0511    4.3996 H         1 <0>         0.1319
     61 H25        -3.8916   -2.7127    3.9567 H         1 <0>         0.1357
     62 H26        -3.1189   -4.9862    4.5754 H         1 <0>         0.1052
     63 H27        -1.5269   -4.3245    5.0183 H         1 <0>         0.0893
     64 H28        -2.6000   -2.8909    6.7335 H         1 <0>         0.0937
     65 H29        -4.1919   -3.5525    6.2905 H         1 <0>         0.1074
     66 H30        -1.2081   -6.0719   10.8857 H         1 <0>         0.1265
     67 H31        -1.5288   -8.4656   11.3394 H         1 <0>         0.1360
     68 H32        -2.7348   -9.8851    9.7347 H         1 <0>         0.1350
     69 H33        -3.6318   -8.9393    7.6703 H         1 <0>         0.1315
     70 H34        -0.8375   -1.9854   -4.3372 H         1 <0>         0.0969
     71 H35         0.3127   -2.9643   -3.3954 H         1 <0>         0.0955
     72 H36        -1.1220   -5.3199   -5.7735 H         1 <0>         0.0993
     73 H37        -0.7439   -3.6224   -6.1531 H         1 <0>         0.0510
     74 H38         0.4063   -4.6013   -5.2113 H         1 <0>         0.0498
     75 H39        -1.3472   -3.5347    2.7475 H         1 <0>         0.4230
@<TRIPOS>BOND
     1    1    2 1
     2    1   39 1
     3    1   40 1
     4    1   41 1
     5    2    3 1
     6    2    4 1
     7    2   42 1
     8    3   43 1
     9    3   44 1
    10    3   45 1
    11    4    5 1
    12    4   14 1
    13    4    6 1
    14    6   11 ar
    15    6    7 ar
    16    7    8 ar
    17    7   46 1
    18    8    9 ar
    19    8   47 1
    20    9   10 ar
    21    9   38 1
    22   10   11 ar
    23   10   48 1
    24   11   12 1
    25   12   13 1
    26   12   49 1
    27   12   50 1
    28   13   14 1
    29   13   51 1
    30   13   52 1
    31   14   15 1
    32   14   32 1
    33   15   16 1
    34   15   53 1
    35   15   54 1
    36   16   17 1
    37   16   55 1
    38   16   56 1
    39   17   18 1
    40   17   19 1
    41   17   75 1
    42   18   57 1
    43   18   58 1
    44   18   59 1
    45   19   20 1
    46   19   60 1
    47   19   61 1
    48   20   21 1
    49   20   62 1
    50   20   63 1
    51   21   22 1
    52   21   64 1
    53   21   65 1
    54   22   31 2
    55   22   23 1
    56   23   24 1
    57   23   25 1
    58   25   30 ar
    59   25   26 ar
    60   26   27 ar
    61   26   66 1
    62   27   28 ar
    63   27   67 1
    64   28   29 ar
    65   28   68 1
    66   29   30 ar
    67   29   69 1
    68   30   31 1
    69   32   33 1
    70   33   34 2
    71   33   35 1
    72   35   36 1
    73   35   70 1
    74   35   71 1
    75   36   37 1
    76   37   72 1
    77   37   73 1
    78   37   74 1
@<TRIPOS>MOLECULE
ZINC34866289
   53    54     0     0     0
SMALL
USER_CHARGES

@<TRIPOS>ATOM
      1 C1         -0.0187    1.5258    0.0104 C.3       1 <0>        -0.1544
      2 C2          0.0021   -0.0041    0.0020 C.3       1 <0>        -0.0602
      3 C3          0.7421   -0.5109    1.2415 C.3       1 <0>        -0.1554
      4 C4         -1.4333   -0.5336    0.0129 C.3       1 <0>        -0.1487
      5 C5          0.7182   -0.4975   -1.2568 C.3       1 <0>        -0.1395
      6 C6          2.1536    0.0321   -1.2676 C.3       1 <0>        -0.0175
      7 N1          2.8412   -0.4417   -2.4763 N.4       1 <0>        -0.3843
      8 C7          2.1965    0.1353   -3.6620 C.3       1 <0>        -0.0127
      9 C8          2.8571   -0.4182   -4.9265 C.3       1 <0>        -0.1412
     10 C9          4.3437   -0.0506   -4.9220 C.3       1 <0>        -0.1394
     11 H1          4.4511    1.0337   -4.9522 H         1 <0>         0.1175
     12 C10         4.9899   -0.5938   -3.6443 C.3       1 <0>         0.0742
     13 H2          6.0356   -0.2883   -3.6071 H         1 <0>         0.1276
     14 C11         4.2503   -0.0338   -2.4274 C.3       1 <0>        -0.0326
     15 F1          4.9107   -1.9905   -3.6381 F         1 <0>        -0.1879
     16 C12         5.0268   -0.6667   -6.1446 C.3       1 <0>         0.1220
     17 N2          6.4198   -0.2169   -6.2040 N.am      1 <0>        -0.7343
     18 C13         7.2209   -0.6353   -7.2039 C.2       1 <0>         0.5691
     19 O1          6.7876   -1.3857   -8.0563 O.2       1 <0>        -0.5113
     20 C14         8.6267   -0.1814   -7.2639 C.ar      1 <0>        -0.1162
     21 C15         9.1286    0.6756   -6.2834 C.ar      1 <0>        -0.0781
     22 C16        10.4425    1.0962   -6.3448 C.ar      1 <0>        -0.0314
     23 C17        11.2614    0.6693   -7.3763 C.ar      1 <0>        -0.0721
     24 C18        10.7690   -0.1805   -8.3521 C.ar      1 <0>        -0.0288
     25 C19         9.4587   -0.6128   -8.2980 C.ar      1 <0>        -0.0444
     26 Cl1        11.8031   -0.7095   -9.6423 Cl        1 <0>        -0.0331
     27 Cl2        11.0685    2.1627   -5.1265 Cl        1 <0>        -0.0416
     28 H3          1.0039    1.9031    0.0027 H         1 <0>         0.0539
     29 H4         -0.5459    1.8868   -0.8726 H         1 <0>         0.0619
     30 H5         -0.5289    1.8773    0.9072 H         1 <0>         0.0697
     31 H6          0.2319   -0.1594    2.1383 H         1 <0>         0.0697
     32 H7          0.7568   -1.6008    1.2356 H         1 <0>         0.0626
     33 H8          1.7647   -0.1336    1.2338 H         1 <0>         0.0542
     34 H9         -1.9605   -0.1726   -0.8702 H         1 <0>         0.0606
     35 H10        -1.4185   -1.6235    0.0069 H         1 <0>         0.0611
     36 H11        -1.9435   -0.1821    0.9097 H         1 <0>         0.0680
     37 H12         0.7330   -1.5874   -1.2628 H         1 <0>         0.0891
     38 H13         0.1910   -0.1364   -2.1398 H         1 <0>         0.0891
     39 H14         2.1388    1.1220   -1.2617 H         1 <0>         0.1345
     40 H15         2.6808   -0.3290   -0.3846 H         1 <0>         0.1350
     41 H16         1.1379   -0.1245   -3.6621 H         1 <0>         0.1402
     42 H17         2.3035    1.2198   -3.6417 H         1 <0>         0.1337
     43 H18         2.7504   -1.5028   -4.9479 H         1 <0>         0.1001
     44 H19         2.3782    0.0127   -5.8057 H         1 <0>         0.1255
     45 H20         4.3136    1.0544   -2.4334 H         1 <0>         0.1492
     46 H21         4.7080   -0.4184   -1.5159 H         1 <0>         0.1449
     47 H22         4.9988   -1.7535   -6.0672 H         1 <0>         0.0867
     48 H23         4.5049   -0.3533   -7.0488 H         1 <0>         0.0896
     49 H24         6.7655    0.3819   -5.5238 H         1 <0>         0.3985
     50 H25         8.4907    1.0096   -5.4785 H         1 <0>         0.1381
     51 H26        12.2883    1.0009   -7.4201 H         1 <0>         0.1549
     52 H27         9.0771   -1.2796   -9.0570 H         1 <0>         0.1570
     53 H28         2.7848   -1.4481   -2.5214 H         1 <0>         0.4271
@<TRIPOS>BOND
     1    1    2 1
     2    1   28 1
     3    1   29 1
     4    1   30 1
     5    2    3 1
     6    2    4 1
     7    2    5 1
     8    3   31 1
     9    3   32 1
    10    3   33 1
    11    4   34 1
    12    4   35 1
    13    4   36 1
    14    5    6 1
    15    5   37 1
    16    5   38 1
    17    6    7 1
    18    6   39 1
    19    6   40 1
    20    7   14 1
    21    7    8 1
    22    7   53 1
    23    8    9 1
    24    8   41 1
    25    8   42 1
    26    9   10 1
    27    9   43 1
    28    9   44 1
    29   10   11 1
    30   10   12 1
    31   10   16 1
    32   12   13 1
    33   12   14 1
    34   12   15 1
    35   14   45 1
    36   14   46 1
    37   16   17 1
    38   16   47 1
    39   16   48 1
    40   17   18 am
    41   17   49 1
    42   18   19 2
    43   18   20 1
    44   20   25 ar
    45   20   21 ar
    46   21   22 ar
    47   21   50 1
    48   22   23 ar
    49   22   27 1
    50   23   24 ar
    51   23   51 1
    52   24   25 ar
    53   24   26 1
    54   25   52 1
