@<TRIPOS>MOLECULE
ZINC00897234
   28    29     0     0     0
SMALL
USER_CHARGES

@<TRIPOS>ATOM
      1 C1         -0.0166    1.3759    0.0096 C.ar      1 <0>        -0.1949
      2 C2          1.1783    2.0936    0.0021 C.ar      1 <0>         0.3458
      3 C3          2.3808    1.4000   -0.0226 C.ar      1 <0>        -0.7434
      4 C4          2.3964    0.0207   -0.0201 C.ar      1 <0>         0.1333
      5 C5          1.2072   -0.6851   -0.0088 C.ar      1 <0>        -0.7302
      6 C6          0.0021   -0.0041    0.0020 C.ar      1 <0>         0.1337
      7 Cl1        -1.4913   -0.8891    0.0060 Cl        1 <0>        -0.0137
      8 S1          1.2260   -2.4470   -0.0082 S.o2      1 <0>         2.7016
      9 O1          0.3250   -2.8631   -1.0253 O.2       1 <0>        -0.9417
     10 O2          2.5919   -2.8386    0.0064 O.2       1 <0>        -0.9529
     11 N1          0.5759   -2.9431    1.4318 N.pl3     1 <0>        -1.2432
     12 S2          3.9028    2.2971   -0.0763 S.o2      1 <0>         2.6801
     13 O3          4.3733    2.2366   -1.4158 O.2       1 <0>        -0.9287
     14 O4          4.6796    1.8636    1.0318 O.2       1 <0>        -0.9302
     15 N2          3.4725    3.8817    0.2181 N.pl3     1 <0>        -1.1055
     16 C7          2.2211    4.3393   -0.4192 C.3       1 <0>         0.3697
     17 H1          2.0212    5.3718   -0.1326 H         1 <0>         0.1559
     18 N3          1.1259    3.4846    0.0324 N.pl3     1 <0>        -0.7331
     19 C8          2.3558    4.2457   -1.9404 C.3       1 <0>         0.0047
     20 Cl2         0.8266    4.8050   -2.7146 Cl        1 <0>        -0.1025
     21 Cl3         3.7224    5.2867   -2.4879 Cl        1 <0>        -0.0892
     22 H2         -0.9601    1.9014    0.0260 H         1 <0>         0.1584
     23 H3          3.3379   -0.5083   -0.0273 H         1 <0>         0.1669
     24 H4          0.0997   -3.7866    1.4840 H         1 <0>         0.4253
     25 H5          0.6713   -2.3902    2.2231 H         1 <0>         0.4183
     26 H6          4.0112    4.4668    0.7734 H         1 <0>         0.4414
     27 H7          0.3211    3.9077    0.3703 H         1 <0>         0.4286
     28 H8          2.5501    3.2117   -2.2250 H         1 <0>         0.1453
@<TRIPOS>BOND
     1    1    6 ar
     2    1    2 ar
     3    1   22 1
     4    2   18 1
     5    2    3 ar
     6    3    4 ar
     7    3   12 1
     8    4    5 ar
     9    4   23 1
    10    5    6 ar
    11    5    8 1
    12    6    7 1
    13    8    9 2
    14    8   10 2
    15    8   11 1
    16   11   24 1
    17   11   25 1
    18   12   13 2
    19   12   14 2
    20   12   15 1
    21   15   16 1
    22   15   26 1
    23   16   17 1
    24   16   18 1
    25   16   19 1
    26   18   27 1
    27   19   20 1
    28   19   21 1
    29   19   28 1
@<TRIPOS>MOLECULE
ZINC00897234
   27    28     0     0     0
SMALL
USER_CHARGES

@<TRIPOS>ATOM
      1 C1         -0.0166    1.3759    0.0096 C.ar      1 <0>        -0.2182
      2 C2          1.1783    2.0936    0.0021 C.ar      1 <0>         0.3666
      3 C3          2.3810    1.3999   -0.0038 C.ar      1 <0>        -0.7297
      4 C4          2.3964    0.0208   -0.0214 C.ar      1 <0>         0.1173
      5 C5          1.2071   -0.6851   -0.0176 C.ar      1 <0>        -0.7492
      6 C6          0.0021   -0.0041    0.0020 C.ar      1 <0>         0.1156
      7 Cl1        -1.4912   -0.8892    0.0171 Cl        1 <0>        -0.0510
      8 S1          1.2257   -2.4469   -0.0375 S.o2      1 <0>         2.7044
      9 O1          0.3240   -2.8510   -1.0587 O.2       1 <0>        -0.9572
     10 O2          2.5915   -2.8387   -0.0283 O.2       1 <0>        -0.9676
     11 N1          0.5765   -2.9596    1.3971 N.pl3     1 <0>        -1.2491
     12 S2          3.9039    2.2965    0.0305 S.o2      1 <0>         2.5613
     13 O3          4.6586    1.8762   -1.0977 O.2       1 <0>        -0.9938
     14 O4          4.4006    2.2204    1.3597 O.2       1 <0>        -1.0319
     15 N2          3.4681    3.8842   -0.2385 N.2       1 <0>        -1.0605
     16 C7          2.2292    4.3347    0.4274 C.3       1 <0>         0.3386
     17 H1          2.3449    4.2538    1.5082 H         1 <0>         0.0643
     18 N3          1.1255    3.4848   -0.0123 N.pl3     1 <0>        -0.7365
     19 C8          1.9433    5.7895    0.0494 C.3       1 <0>         0.0974
     20 Cl2         3.3189    6.8290    0.5766 Cl        1 <0>        -0.1226
     21 Cl3         1.7435    5.9179   -1.7379 Cl        1 <0>        -0.1352
     22 H2         -0.9601    1.9014    0.0260 H         1 <0>         0.1407
     23 H3          3.3378   -0.5082   -0.0387 H         1 <0>         0.1498
     24 H4          0.2752   -2.3110    2.0524 H         1 <0>         0.4155
     25 H5          0.4976   -3.9085    1.5821 H         1 <0>         0.4179
     26 H6          0.3146    3.9114   -0.3308 H         1 <0>         0.3923
     27 H7          1.0287    6.1198    0.5419 H         1 <0>         0.1210
@<TRIPOS>BOND
     1    1    6 ar
     2    1    2 ar
     3    1   22 1
     4    2   18 1
     5    2    3 ar
     6    3    4 ar
     7    3   12 1
     8    4    5 ar
     9    4   23 1
    10    5    6 ar
    11    5    8 1
    12    6    7 1
    13    8    9 2
    14    8   10 2
    15    8   11 1
    16   11   24 1
    17   11   25 1
    18   12   13 2
    19   12   14 2
    20   12   15 1
    21   15   16 1
    22   16   17 1
    23   16   18 1
    24   16   19 1
    25   18   26 1
    26   19   20 1
    27   19   21 1
    28   19   27 1
@<TRIPOS>MOLECULE
ZINC00897236
   28    29     0     0     0
SMALL
USER_CHARGES

@<TRIPOS>ATOM
      1 C1         -0.0880    1.4298    0.0212 C.ar      1 <0>        -0.1953
      2 C2          1.1239    2.1185    0.0097 C.ar      1 <0>         0.3454
      3 C3          2.3095    1.3960    0.0037 C.ar      1 <0>        -0.7433
      4 C4          2.2916    0.0168   -0.0104 C.ar      1 <0>         0.1334
      5 C5          1.0857   -0.6601   -0.0027 C.ar      1 <0>        -0.7301
      6 C6         -0.1025    0.0498    0.0172 C.ar      1 <0>         0.1339
      7 Cl1        -1.6167   -0.7991    0.0372 Cl        1 <0>        -0.0139
      8 S1          1.0618   -2.4219   -0.0180 S.o2      1 <0>         2.7020
      9 O1          0.1489   -2.8068   -1.0366 O.2       1 <0>        -0.9422
     10 O2          2.4179   -2.8465   -0.0101 O.2       1 <0>        -0.9529
     11 N1          0.4031   -2.9152    1.4190 N.pl3     1 <0>        -1.2432
     12 S2          3.8536    2.2557    0.0330 S.o2      1 <0>         2.6800
     13 O3          4.5960    1.8145   -1.0954 O.2       1 <0>        -0.9299
     14 O4          4.3507    2.1711    1.3615 O.2       1 <0>        -0.9283
     15 N2          3.4557    3.8528   -0.2394 N.pl3     1 <0>        -1.1055
     16 C7          2.2292    4.3347    0.4274 C.3       1 <0>         0.3692
     17 H1          2.0485    5.3742    0.1535 H         1 <0>         0.1558
     18 N3          1.1045    3.5105   -0.0082 N.pl3     1 <0>        -0.7334
     19 C8          2.3930    4.2248    1.9447 C.3       1 <0>         0.0063
     20 Cl2         3.8576    5.1418    2.4591 Cl        1 <0>        -0.0877
     21 Cl3         0.9376    4.9117    2.7575 Cl        1 <0>        -0.1033
     22 H2         -1.0184    1.9779    0.0378 H         1 <0>         0.1583
     23 H3          3.2200   -0.5347   -0.0279 H         1 <0>         0.1669
     24 H4         -0.0932   -3.7473    1.4648 H         1 <0>         0.4254
     25 H5          0.5135   -2.3719    2.2150 H         1 <0>         0.4185
     26 H6          3.9969    4.4295   -0.8011 H         1 <0>         0.4415
     27 H7          0.3036    3.9557   -0.3264 H         1 <0>         0.4288
     28 H8          2.5040    3.1769    2.2231 H         1 <0>         0.1438
@<TRIPOS>BOND
     1    1    6 ar
     2    1    2 ar
     3    1   22 1
     4    2   18 1
     5    2    3 ar
     6    3    4 ar
     7    3   12 1
     8    4    5 ar
     9    4   23 1
    10    5    6 ar
    11    5    8 1
    12    6    7 1
    13    8    9 2
    14    8   10 2
    15    8   11 1
    16   11   24 1
    17   11   25 1
    18   12   13 2
    19   12   14 2
    20   12   15 1
    21   15   16 1
    22   15   26 1
    23   16   17 1
    24   16   18 1
    25   16   19 1
    26   18   27 1
    27   19   20 1
    28   19   21 1
    29   19   28 1
@<TRIPOS>MOLECULE
ZINC00897236
   27    28     0     0     0
SMALL
USER_CHARGES

@<TRIPOS>ATOM
      1 C1         -0.0166    1.3759    0.0096 C.ar      1 <0>        -0.2165
      2 C2          1.1783    2.0936    0.0021 C.ar      1 <0>         0.3657
      3 C3          2.3808    1.4000   -0.0226 C.ar      1 <0>        -0.7331
      4 C4          2.3964    0.0207   -0.0201 C.ar      1 <0>         0.1186
      5 C5          1.2072   -0.6851   -0.0088 C.ar      1 <0>        -0.7489
      6 C6          0.0021   -0.0041    0.0020 C.ar      1 <0>         0.1160
      7 Cl1        -1.4913   -0.8891    0.0060 Cl        1 <0>        -0.0495
      8 S1          1.2260   -2.4470   -0.0082 S.o2      1 <0>         2.7044
      9 O1          0.3250   -2.8631   -1.0253 O.2       1 <0>        -0.9569
     10 O2          2.5919   -2.8386    0.0064 O.2       1 <0>        -0.9674
     11 N1          0.5759   -2.9431    1.4318 N.pl3     1 <0>        -1.2487
     12 S2          3.9028    2.2971   -0.0763 S.o2      1 <0>         2.5709
     13 O3          4.3733    2.2366   -1.4158 O.2       1 <0>        -1.0262
     14 O4          4.6796    1.8636    1.0318 O.2       1 <0>        -0.9934
     15 N2          3.4725    3.8817    0.2181 N.2       1 <0>        -1.0786
     16 C7          2.2211    4.3393   -0.4192 C.3       1 <0>         0.3464
     17 H1          2.3161    4.2700   -1.5028 H         1 <0>         0.0596
     18 N3          1.1259    3.4846    0.0324 N.pl3     1 <0>        -0.7380
     19 C8          1.9426    5.7898   -0.0201 C.3       1 <0>         0.0996
     20 Cl2         3.3080    6.8351   -0.5623 Cl        1 <0>        -0.1137
     21 Cl3         0.4145    6.3448   -0.7998 Cl        1 <0>        -0.1689
     22 H2         -0.9601    1.9014    0.0260 H         1 <0>         0.1419
     23 H3          3.3379   -0.5083   -0.0273 H         1 <0>         0.1509
     24 H4          0.2741   -2.2870    2.0793 H         1 <0>         0.4157
     25 H5          0.4969   -3.8898    1.6277 H         1 <0>         0.4181
     26 H6          0.3211    3.9077    0.3703 H         1 <0>         0.3938
     27 H7          1.8425    5.8558    1.0633 H         1 <0>         0.1384
@<TRIPOS>BOND
     1    1    6 ar
     2    1    2 ar
     3    1   22 1
     4    2   18 1
     5    2    3 ar
     6    3    4 ar
     7    3   12 1
     8    4    5 ar
     9    4   23 1
    10    5    6 ar
    11    5    8 1
    12    6    7 1
    13    8    9 2
    14    8   10 2
    15    8   11 1
    16   11   24 1
    17   11   25 1
    18   12   13 2
    19   12   14 2
    20   12   15 1
    21   15   16 1
    22   16   17 1
    23   16   18 1
    24   16   19 1
    25   18   26 1
    26   19   20 1
    27   19   21 1
    28   19   27 1
@<TRIPOS>MOLECULE
ZINC00020253
   33    35     0     0     0
SMALL
USER_CHARGES

@<TRIPOS>ATOM
      1 C1         -0.0166    1.3752    0.0096 C.ar      1 <0>        -0.1128
      2 C2          1.1683    2.0900    0.0021 C.ar      1 <0>        -0.0853
      3 C3          2.3827    1.4248   -0.0135 C.ar      1 <0>        -0.0801
      4 C4          2.4125    0.0494   -0.0211 C.ar      1 <0>        -0.0699
      5 C5          1.2226   -0.6819   -0.0132 C.ar      1 <0>        -0.1506
      6 C6          0.0021   -0.0041    0.0020 C.ar      1 <0>        -0.0457
      7 C7          1.5619   -2.1178   -0.0242 C.2       1 <0>         0.5711
      8 O1          0.7510   -3.0233   -0.0214 O.2       1 <0>        -0.5059
      9 N1          2.8961   -2.2814   -0.0383 N.am      1 <0>        -0.7333
     10 C8          3.5334   -0.9597   -0.0376 C.3       1 <0>         0.4302
     11 C9          4.3679   -0.7865   -1.2804 C.ar      1 <0>        -0.1501
     12 C10         4.0419   -1.4766   -2.4333 C.ar      1 <0>        -0.0234
     13 C11         4.8071   -1.3185   -3.5732 C.ar      1 <0>        -0.1256
     14 C12         5.8993   -0.4690   -3.5607 C.ar      1 <0>         0.0634
     15 C13         6.2246    0.2215   -2.4071 C.ar      1 <0>        -0.6749
     16 C14         5.4554    0.0665   -1.2690 C.ar      1 <0>         0.0181
     17 S1          7.6152    1.3034   -2.3902 S.o2      1 <0>         2.6988
     18 O2          7.5000    2.1308   -3.5397 O.2       1 <0>        -0.9422
     19 O3          7.7008    1.8343   -1.0749 O.2       1 <0>        -0.9520
     20 N2          8.9647    0.3697   -2.6124 N.pl3     1 <0>        -1.2428
     21 Cl1         6.8613   -0.2704   -4.9921 Cl        1 <0>        -0.0261
     22 O4          4.3479   -0.8079    1.1267 O.3       1 <0>        -0.5328
     23 H1         -0.9606    1.8997    0.0259 H         1 <0>         0.1398
     24 H2          1.1458    3.1698    0.0081 H         1 <0>         0.1405
     25 H3          3.3058    1.9854   -0.0200 H         1 <0>         0.1355
     26 H4         -0.9249   -0.5581    0.0082 H         1 <0>         0.1386
     27 H5          3.3608   -3.1327   -0.0474 H         1 <0>         0.4250
     28 H6          3.1894   -2.1396   -2.4430 H         1 <0>         0.1437
     29 H7          4.5528   -1.8582   -4.4735 H         1 <0>         0.1513
     30 H8          5.7069    0.6087   -0.3694 H         1 <0>         0.1653
     31 H9          9.7436    0.7408   -3.0557 H         1 <0>         0.4253
     32 H10         8.9763   -0.5484   -2.2994 H         1 <0>         0.4177
     33 H11         5.0869   -1.4298    1.1735 H         1 <0>         0.3890
@<TRIPOS>BOND
     1    1    6 ar
     2    1    2 ar
     3    1   23 1
     4    2    3 ar
     5    2   24 1
     6    3    4 ar
     7    3   25 1
     8    4   10 1
     9    4    5 ar
    10    5    6 ar
    11    5    7 1
    12    6   26 1
    13    7    8 2
    14    7    9 am
    15    9   10 1
    16    9   27 1
    17   10   11 1
    18   10   22 1
    19   11   16 ar
    20   11   12 ar
    21   12   13 ar
    22   12   28 1
    23   13   14 ar
    24   13   29 1
    25   14   15 ar
    26   14   21 1
    27   15   16 ar
    28   15   17 1
    29   16   30 1
    30   17   18 2
    31   17   19 2
    32   17   20 1
    33   20   31 1
    34   20   32 1
    35   22   33 1
@<TRIPOS>MOLECULE
ZINC00057255
   33    35     0     0     0
SMALL
USER_CHARGES

@<TRIPOS>ATOM
      1 C1         -0.0166    1.3752    0.0096 C.ar      1 <0>        -0.1124
      2 C2          1.1683    2.0900    0.0021 C.ar      1 <0>        -0.0872
      3 C3          2.3827    1.4248   -0.0135 C.ar      1 <0>        -0.0799
      4 C4          2.4125    0.0494   -0.0211 C.ar      1 <0>        -0.0709
      5 C5          1.2226   -0.6819   -0.0132 C.ar      1 <0>        -0.1485
      6 C6          0.0021   -0.0041    0.0020 C.ar      1 <0>        -0.0451
      7 C7          1.5619   -2.1178   -0.0242 C.2       1 <0>         0.5701
      8 O1          0.7510   -3.0233   -0.0214 O.2       1 <0>        -0.5012
      9 N1          2.8961   -2.2814   -0.0383 N.am      1 <0>        -0.7354
     10 C8          3.5334   -0.9597   -0.0376 C.3       1 <0>         0.4314
     11 C9          4.3923   -0.7996    1.1903 C.ar      1 <0>        -0.1506
     12 C10         5.4128    0.1332    1.2029 C.ar      1 <0>        -0.0205
     13 C11         6.2011    0.2801    2.3284 C.ar      1 <0>        -0.1261
     14 C12         5.9687   -0.5063    3.4430 C.ar      1 <0>         0.0632
     15 C13         4.9474   -1.4391    3.4299 C.ar      1 <0>        -0.6746
     16 C14         4.1561   -1.5815    2.3053 C.ar      1 <0>         0.0154
     17 S1          4.6507   -2.4410    4.8487 S.o2      1 <0>         2.6964
     18 O2          4.6097   -1.5625    5.9648 O.2       1 <0>        -0.9417
     19 O3          3.5710   -3.3036    4.5181 O.2       1 <0>        -0.9518
     20 N2          5.9812   -3.4053    5.0540 N.pl3     1 <0>        -1.2423
     21 Cl1         6.9590   -0.3227    4.8570 Cl        1 <0>        -0.0262
     22 O4          4.3247   -0.7954   -1.2161 O.3       1 <0>        -0.5339
     23 H1         -0.9606    1.8997    0.0259 H         1 <0>         0.1399
     24 H2          1.1458    3.1698    0.0081 H         1 <0>         0.1395
     25 H3          3.3058    1.9854   -0.0200 H         1 <0>         0.1335
     26 H4         -0.9249   -0.5581    0.0082 H         1 <0>         0.1396
     27 H5          3.3608   -3.1327   -0.0474 H         1 <0>         0.4257
     28 H6          5.5941    0.7469    0.3329 H         1 <0>         0.1533
     29 H7          6.9986    1.0083    2.3379 H         1 <0>         0.1528
     30 H8          3.3561   -2.3069    2.2964 H         1 <0>         0.1557
     31 H9          6.2370   -3.6960    5.9434 H         1 <0>         0.4254
     32 H10         6.5049   -3.6794    4.2849 H         1 <0>         0.4175
     33 H11         5.0625   -1.4167   -1.2841 H         1 <0>         0.3885
@<TRIPOS>BOND
     1    1    6 ar
     2    1    2 ar
     3    1   23 1
     4    2    3 ar
     5    2   24 1
     6    3    4 ar
     7    3   25 1
     8    4   10 1
     9    4    5 ar
    10    5    6 ar
    11    5    7 1
    12    6   26 1
    13    7    8 2
    14    7    9 am
    15    9   10 1
    16    9   27 1
    17   10   11 1
    18   10   22 1
    19   11   16 ar
    20   11   12 ar
    21   12   13 ar
    22   12   28 1
    23   13   14 ar
    24   13   29 1
    25   14   15 ar
    26   14   21 1
    27   15   16 ar
    28   15   17 1
    29   16   30 1
    30   17   18 2
    31   17   19 2
    32   17   20 1
    33   20   31 1
    34   20   32 1
    35   22   33 1
@<TRIPOS>MOLECULE
ZINC18274777
   20    20     0     0     0
SMALL
USER_CHARGES

@<TRIPOS>ATOM
      1 C1         -2.1938    1.4701    0.6085 C.3       1 <0>        -0.1738
      2 C2         -2.1691   -0.0367    0.6077 C.2       1 <0>         0.5100
      3 O1         -3.0611   -0.6582    1.1456 O.2       1 <0>        -0.5253
      4 N1         -1.1558   -0.6938    0.0094 N.am      1 <0>        -0.6760
      5 C3         -1.0811   -2.0905    0.0916 C.ar      1 <0>         0.1315
      6 C4          0.1554   -2.7160    0.1778 C.ar      1 <0>        -0.1278
      7 C5          0.2283   -4.0925    0.2593 C.ar      1 <0>        -0.1267
      8 C6         -0.9336   -4.8504    0.2546 C.ar      1 <0>         0.0907
      9 C7         -2.1693   -4.2261    0.1680 C.ar      1 <0>        -0.1267
     10 C8         -2.2439   -2.8493    0.0927 C.ar      1 <0>        -0.1043
     11 O2         -0.8611   -6.2059    0.3344 O.3       1 <0>        -0.4991
     12 H1         -3.0822    1.8186    1.1352 H         1 <0>         0.0977
     13 H2         -1.3026    1.8478    1.1098 H         1 <0>         0.0926
     14 H3         -2.2144    1.8337   -0.4188 H         1 <0>         0.0926
     15 H4         -0.4783   -0.1997   -0.4782 H         1 <0>         0.4131
     16 H5          1.0601   -2.1261    0.1808 H         1 <0>         0.1308
     17 H6          1.1901   -4.5792    0.3264 H         1 <0>         0.1337
     18 H7         -3.0735   -4.8168    0.1636 H         1 <0>         0.1330
     19 H8         -3.2062   -2.3631    0.0301 H         1 <0>         0.1433
     20 H9         -0.8763   -6.5480    1.2387 H         1 <0>         0.3908
@<TRIPOS>BOND
     1    1    2 1
     2    1   12 1
     3    1   13 1
     4    1   14 1
     5    2    3 2
     6    2    4 am
     7    4    5 1
     8    4   15 1
     9    5   10 ar
    10    5    6 ar
    11    6    7 ar
    12    6   16 1
    13    7    8 ar
    14    7   17 1
    15    8    9 ar
    16    8   11 1
    17    9   10 ar
    18    9   18 1
    19   10   19 1
    20   11   20 1
@<TRIPOS>MOLECULE
ZINC00899824
   47    48     0     0     0
SMALL
USER_CHARGES

@<TRIPOS>ATOM
      1 C1         -0.0173    1.4248    0.0099 C.3       1 <0>         0.0223
      2 O1          0.0021   -0.0041    0.0020 O.3       1 <0>        -0.3062
      3 C2          0.6062   -0.6075   -1.0564 C.ar      1 <0>         0.1006
      4 C3          1.1701    0.1578   -2.0573 C.ar      1 <0>        -0.1693
      5 C4          1.7915   -0.4674   -3.1460 C.ar      1 <0>        -0.0548
      6 C5          1.8369   -1.8658   -3.2124 C.ar      1 <0>        -0.1153
      7 C6          1.2717   -2.6208   -2.2092 C.ar      1 <0>        -0.1104
      8 C7          0.6608   -1.9995   -1.1274 C.ar      1 <0>         0.0921
      9 O2          0.1105   -2.7497   -0.1383 O.3       1 <0>        -0.4848
     10 C8          2.3926    0.3403   -4.2140 C.2       1 <0>        -0.0031
     11 C9          2.9934   -0.2669   -5.2666 C.2       1 <0>        -0.2426
     12 C10         3.5700    0.5078   -6.2910 C.2       1 <0>         0.3746
     13 C11         4.2380   -0.1673   -7.4611 C.3       1 <0>        -0.2163
     14 C12         4.7690    0.8780   -8.4080 C.2       1 <0>         0.3746
     15 O3          4.6195    2.0570   -8.1569 O.2       1 <0>        -0.4254
     16 C13         5.4382    0.4879   -9.5835 C.2       1 <0>        -0.2426
     17 C14         5.9159    1.4282  -10.4353 C.2       1 <0>        -0.0031
     18 C15         6.6137    1.0215  -11.6609 C.ar      1 <0>        -0.0549
     19 C16         6.7822   -0.3375  -11.9554 C.ar      1 <0>        -0.1153
     20 C17         7.4373   -0.7158  -13.1059 C.ar      1 <0>        -0.1104
     21 C18         7.9326    0.2469  -13.9763 C.ar      1 <0>         0.0920
     22 C19         7.7694    1.6023  -13.6901 C.ar      1 <0>         0.1006
     23 C20         7.1082    1.9913  -12.5425 C.ar      1 <0>        -0.1693
     24 O4          8.2569    2.5409  -14.5450 O.3       1 <0>        -0.3062
     25 C21         8.0541    3.9101  -14.1894 C.3       1 <0>         0.0223
     26 O5          8.5781   -0.1327  -15.1090 O.3       1 <0>        -0.4848
     27 O6          3.5292    1.7203   -6.2316 O.2       1 <0>        -0.4254
     28 H1          1.0053    1.8021    0.0021 H         1 <0>         0.0579
     29 H2         -0.5445    1.7859   -0.8732 H         1 <0>         0.0575
     30 H3         -0.5275    1.7763    0.9067 H         1 <0>         0.1046
     31 H4          1.1319    1.2357   -2.0014 H         1 <0>         0.1391
     32 H5          2.3148   -2.3516   -4.0503 H         1 <0>         0.1371
     33 H6          1.3073   -3.6990   -2.2614 H         1 <0>         0.1423
     34 H7         -0.8182   -2.9751   -0.2859 H         1 <0>         0.3908
     35 H8          2.3563    1.4184   -4.1613 H         1 <0>         0.1367
     36 H9          3.0298   -1.3450   -5.3193 H         1 <0>         0.1356
     37 H10         5.0615   -0.7848   -7.1027 H         1 <0>         0.1288
     38 H11         5.5711   -0.5604   -9.8068 H         1 <0>         0.1356
     39 H12         5.7830    2.4765  -10.2120 H         1 <0>         0.1368
     40 H13         6.3989   -1.0882  -11.2802 H         1 <0>         0.1371
     41 H14         7.5667   -1.7639  -13.3320 H         1 <0>         0.1423
     42 H15         6.9767    3.0405  -12.3226 H         1 <0>         0.1391
     43 H16         6.9855    4.1110  -14.1123 H         1 <0>         0.0575
     44 H17         8.5317    4.1110  -13.2305 H         1 <0>         0.0580
     45 H18         8.4902    4.5526  -14.9543 H         1 <0>         0.1045
     46 H19         7.9975   -0.2431  -15.8744 H         1 <0>         0.3910
     47 H20         3.5134   -0.7940   -7.9810 H         1 <0>         0.1286
@<TRIPOS>BOND
     1    1    2 1
     2    1   28 1
     3    1   29 1
     4    1   30 1
     5    2    3 1
     6    3    8 ar
     7    3    4 ar
     8    4    5 ar
     9    4   31 1
    10    5    6 ar
    11    5   10 1
    12    6    7 ar
    13    6   32 1
    14    7    8 ar
    15    7   33 1
    16    8    9 1
    17    9   34 1
    18   10   11 2
    19   10   35 1
    20   11   12 1
    21   11   36 1
    22   12   13 1
    23   12   27 2
    24   13   14 1
    25   13   37 1
    26   13   47 1
    27   14   15 2
    28   14   16 1
    29   16   17 2
    30   16   38 1
    31   17   18 1
    32   17   39 1
    33   18   23 ar
    34   18   19 ar
    35   19   20 ar
    36   19   40 1
    37   20   21 ar
    38   20   41 1
    39   21   22 ar
    40   21   26 1
    41   22   23 ar
    42   22   24 1
    43   23   42 1
    44   24   25 1
    45   25   43 1
    46   25   44 1
    47   25   45 1
    48   26   46 1
@<TRIPOS>MOLECULE
ZINC00481325
   30    31     0     0     0
SMALL
USER_CHARGES

@<TRIPOS>ATOM
      1 C1         -0.0167    1.3781    0.0096 C.ar      1 <0>        -0.1069
      2 C2          1.1709    2.0855    0.0021 C.ar      1 <0>        -0.1193
      3 C3          2.3773    1.4107   -0.0130 C.ar      1 <0>        -0.0989
      4 C4          2.3960    0.0285   -0.0201 C.ar      1 <0>        -0.0861
      5 C5          1.2084   -0.6789   -0.0117 C.ar      1 <0>        -0.0962
      6 C6          0.0021   -0.0041    0.0020 C.ar      1 <0>        -0.1180
      7 C7          3.7112   -0.7071   -0.0376 C.3       1 <0>        -0.0781
      8 S1          4.2568   -1.0108    1.6656 S.3       1 <0>        -0.0397
      9 C8          5.7857   -1.8662    1.4773 C.ar      1 <0>         0.0406
     10 C9          6.2977   -2.1471    0.2096 C.ar      1 <0>        -0.2129
     11 C10         7.4972   -2.8184    0.1057 C.ar      1 <0>         0.1756
     12 N1          8.1584   -3.1943    1.1849 N.ar      1 <0>        -0.5013
     13 C11         7.7078   -2.9476    2.4008 C.ar      1 <0>         0.2227
     14 C12         6.5190   -2.2754    2.5915 C.ar      1 <0>        -0.7282
     15 S2          5.9309   -1.9443    4.2191 S.o2      1 <0>         2.7009
     16 O1          4.5721   -2.3590    4.2521 O.2       1 <0>        -0.9409
     17 O2          6.9062   -2.4582    5.1157 O.2       1 <0>        -0.9556
     18 N2          5.9287   -0.2998    4.4138 N.pl3     1 <0>        -1.2410
     19 H1         -0.9591    1.9053    0.0259 H         1 <0>         0.1264
     20 H2          1.1563    3.1654    0.0076 H         1 <0>         0.1273
     21 H3          3.3051    1.9634   -0.0196 H         1 <0>         0.1255
     22 H4          1.2231   -1.7588   -0.0176 H         1 <0>         0.1269
     23 H5         -0.9258   -0.5567    0.0082 H         1 <0>         0.1279
     24 H6          3.5884   -1.6586   -0.5549 H         1 <0>         0.1053
     25 H7          4.4573   -0.1052   -0.5563 H         1 <0>         0.1038
     26 H8          5.7616   -1.8431   -0.6773 H         1 <0>         0.1456
     27 H9          7.9011   -3.0400   -0.8711 H         1 <0>         0.1697
     28 H10         8.2796   -3.2727    3.2574 H         1 <0>         0.1826
     29 H11         5.2806    0.1180    5.0022 H         1 <0>         0.4246
     30 H12         6.5757    0.2456    3.9395 H         1 <0>         0.4177
@<TRIPOS>BOND
     1    1    6 ar
     2    1    2 ar
     3    1   19 1
     4    2    3 ar
     5    2   20 1
     6    3    4 ar
     7    3   21 1
     8    4    5 ar
     9    4    7 1
    10    5    6 ar
    11    5   22 1
    12    6   23 1
    13    7    8 1
    14    7   24 1
    15    7   25 1
    16    8    9 1
    17    9   14 ar
    18    9   10 ar
    19   10   11 ar
    20   10   26 1
    21   11   12 ar
    22   11   27 1
    23   12   13 ar
    24   13   14 ar
    25   13   28 1
    26   14   15 1
    27   15   16 2
    28   15   17 2
    29   15   18 1
    30   18   29 1
    31   18   30 1
@<TRIPOS>MOLECULE
ZINC39054028
   20    20     0     0     0
SMALL
USER_CHARGES

@<TRIPOS>ATOM
      1 C1         -0.0168    1.3903    0.0097 C.ar      1 <0>        -0.2528
      2 C2          1.1794    2.0767    0.0020 C.ar      1 <0>         0.1854
      3 N1          2.3301    1.4306   -0.0125 N.ar      1 <0>        -0.5301
      4 C3          2.3899    0.1119   -0.0202 C.ar      1 <0>         0.2460
      5 C4          1.2395   -0.6479   -0.0133 C.ar      1 <0>        -0.8048
      6 C5          0.0021   -0.0041    0.0020 C.ar      1 <0>         0.3422
      7 N2         -1.1826   -0.7342    0.0099 N.pl3     1 <0>        -0.5754
      8 N3         -2.3847   -0.0855    0.0253 N.3       1 <0>        -0.5995
      9 S1          1.3309   -2.4075   -0.0242 S.o2      1 <0>         2.7084
     10 O1          0.4473   -2.8538   -1.0437 O.2       1 <0>        -0.9691
     11 O2          2.7118   -2.7425   -0.0125 O.2       1 <0>        -0.9561
     12 N4          0.7026   -2.9394    1.4128 N.pl3     1 <0>        -1.2528
     13 H1         -0.9550    1.9252    0.0260 H         1 <0>         0.1487
     14 H2          1.1744    3.1567    0.0074 H         1 <0>         0.1661
     15 H3          3.3523   -0.3781   -0.0323 H         1 <0>         0.1781
     16 H4         -1.1548   -1.7038    0.0044 H         1 <0>         0.4095
     17 H5         -2.4607    0.5534   -0.7520 H         1 <0>         0.3459
     18 H6         -3.1503   -0.7427    0.0294 H         1 <0>         0.3690
     19 H7          0.3744   -2.3005    2.0647 H         1 <0>         0.4178
     20 H8          0.6629   -3.8898    1.6026 H         1 <0>         0.4236
@<TRIPOS>BOND
     1    1    6 ar
     2    1    2 ar
     3    1   13 1
     4    2    3 ar
     5    2   14 1
     6    3    4 ar
     7    4    5 ar
     8    4   15 1
     9    5    6 ar
    10    5    9 1
    11    6    7 1
    12    7    8 1
    13    7   16 1
    14    8   17 1
    15    8   18 1
    16    9   10 2
    17    9   11 2
    18    9   12 1
    19   12   19 1
    20   12   20 1
@<TRIPOS>MOLECULE
ZINC02570895
   40    42     0     0     0
SMALL
USER_CHARGES

@<TRIPOS>ATOM
      1 C1          0.0405    1.5033    0.0105 C.3       1 <0>        -0.1224
      2 C2          0.0481   -0.0036    0.0022 C.ar      1 <0>        -0.0617
      3 C3         -0.4654   -0.6891   -1.0843 C.ar      1 <0>        -0.1180
      4 C4         -0.4609   -2.0687   -1.0981 C.ar      1 <0>        -0.0762
      5 C5          0.0630   -2.7726   -0.0133 C.ar      1 <0>        -0.0606
      6 C6          0.5793   -2.0754    1.0794 C.ar      1 <0>        -0.0985
      7 C7          0.5738   -0.6957    1.0787 C.ar      1 <0>        -0.1165
      8 C8          0.0704   -4.2518   -0.0214 C.2       1 <0>         0.1497
      9 C9          0.0778   -5.0559   -1.1264 C.2       1 <0>        -0.2047
     10 C10         0.0841   -6.3814   -0.6911 C.2       1 <0>        -0.0034
     11 N1          0.0806   -6.3920    0.6183 N.2       1 <0>        -0.2184
     12 N2          0.0772   -5.0674    1.0740 N.pl3     1 <0>        -0.3181
     13 C11         0.0780   -4.6538    2.4124 C.ar      1 <0>         0.1993
     14 C12        -0.7877   -3.6523    2.8316 C.ar      1 <0>        -0.1310
     15 C13        -0.7845   -3.2467    4.1518 C.ar      1 <0>        -0.0008
     16 C14         0.0799   -3.8365    5.0557 C.ar      1 <0>        -0.6729
     17 C15         0.9432   -4.8341    4.6414 C.ar      1 <0>         0.0013
     18 C16         0.9405   -5.2485    3.3238 C.ar      1 <0>        -0.1237
     19 S1          0.0817   -3.3155    6.7389 S.o2      1 <0>         2.7035
     20 O1          1.3615   -3.6412    7.2635 O.2       1 <0>        -0.9570
     21 O2         -0.4336   -1.9913    6.7547 O.2       1 <0>        -0.9571
     22 N3         -1.0144   -4.2595    7.5449 N.pl3     1 <0>        -1.2487
     23 C17         0.0927   -7.5984   -1.5799 C.3       1 <0>         0.5581
     24 F1          1.4144   -7.9678   -1.8518 F         1 <0>        -0.1637
     25 F2         -0.5625   -8.6523   -0.9339 F         1 <0>        -0.1639
     26 F3         -0.5656   -7.3049   -2.7789 F         1 <0>        -0.1610
     27 H1          0.9639    1.8738   -0.4347 H         1 <0>         0.0767
     28 H2         -0.8113    1.8655   -0.5652 H         1 <0>         0.0714
     29 H3         -0.0366    1.8607    1.0374 H         1 <0>         0.0715
     30 H4         -0.8709   -0.1431   -1.9232 H         1 <0>         0.1331
     31 H5         -0.8624   -2.6027   -1.9467 H         1 <0>         0.1336
     32 H6          0.9862   -2.6145    1.9221 H         1 <0>         0.1246
     33 H7          0.9772   -0.1548    1.9220 H         1 <0>         0.1315
     34 H8          0.0784   -4.7241   -2.1542 H         1 <0>         0.1732
     35 H9         -1.4626   -3.1908    2.1259 H         1 <0>         0.1459
     36 H10        -1.4576   -2.4679    4.4785 H         1 <0>         0.1580
     37 H11         1.6174   -5.2926    5.3496 H         1 <0>         0.1579
     38 H12         1.6117   -6.0309    3.0018 H         1 <0>         0.1479
     39 H13        -1.5085   -4.9443    7.0675 H         1 <0>         0.4179
     40 H14        -1.1624   -4.1277    8.4945 H         1 <0>         0.4235
@<TRIPOS>BOND
     1    1    2 1
     2    1   27 1
     3    1   28 1
     4    1   29 1
     5    2    7 ar
     6    2    3 ar
     7    3    4 ar
     8    3   30 1
     9    4    5 ar
    10    4   31 1
    11    5    6 ar
    12    5    8 1
    13    6    7 ar
    14    6   32 1
    15    7   33 1
    16    8   12 1
    17    8    9 2
    18    9   10 1
    19    9   34 1
    20   10   11 2
    21   10   23 1
    22   11   12 1
    23   12   13 1
    24   13   18 ar
    25   13   14 ar
    26   14   15 ar
    27   14   35 1
    28   15   16 ar
    29   15   36 1
    30   16   17 ar
    31   16   19 1
    32   17   18 ar
    33   17   37 1
    34   18   38 1
    35   19   20 2
    36   19   21 2
    37   19   22 1
    38   22   39 1
    39   22   40 1
    40   23   24 1
    41   23   25 1
    42   23   26 1
@<TRIPOS>MOLECULE
ZINC00392017
   22    22     0     0     0
SMALL
USER_CHARGES

@<TRIPOS>ATOM
      1 C1         -0.0173    1.4248    0.0099 C.3       1 <0>         0.0292
      2 O1          0.0021   -0.0041    0.0020 O.3       1 <0>        -0.3121
      3 C2         -1.1990   -0.6368    0.0101 C.ar      1 <0>         0.0856
      4 C3         -2.3729    0.1055    0.0195 C.ar      1 <0>        -0.1889
      5 C4         -3.5940   -0.5310    0.0272 C.ar      1 <0>        -0.0816
      6 C5         -3.6541   -1.9284    0.0257 C.ar      1 <0>        -0.1304
      7 C6         -2.4714   -2.6758    0.0162 C.ar      1 <0>        -0.1341
      8 C7         -1.2510   -2.0304    0.0031 C.ar      1 <0>         0.0762
      9 O2         -0.0994   -2.7537   -0.0118 O.3       1 <0>        -0.3154
     10 C8         -0.2273   -4.1769   -0.0182 C.3       1 <0>         0.0277
     11 C9         -4.9586   -2.6112    0.0344 C.2       1 <0>         0.5224
     12 O3         -5.9918   -1.9561    0.0431 O.co2     1 <0>        -0.6864
     13 O4         -5.0093   -3.8335    0.0330 O.co2     1 <0>        -0.6885
     14 H1          1.0053    1.8021    0.0021 H         1 <0>         0.0929
     15 H2         -0.5445    1.7859   -0.8732 H         1 <0>         0.0511
     16 H3         -0.5275    1.7763    0.9067 H         1 <0>         0.0511
     17 H4         -2.3279    1.1846    0.0211 H         1 <0>         0.1278
     18 H5         -4.5052    0.0487    0.0349 H         1 <0>         0.1317
     19 H6         -2.5131   -3.7550    0.0154 H         1 <0>         0.1405
     20 H7         -0.7800   -4.4881   -0.9046 H         1 <0>         0.0541
     21 H8          0.7637   -4.6307   -0.0301 H         1 <0>         0.0931
     22 H9         -0.7630   -4.4976    0.8752 H         1 <0>         0.0541
@<TRIPOS>BOND
     1    1    2 1
     2    1   14 1
     3    1   15 1
     4    1   16 1
     5    2    3 1
     6    3    8 ar
     7    3    4 ar
     8    4    5 ar
     9    4   17 1
    10    5    6 ar
    11    5   18 1
    12    6    7 ar
    13    6   11 1
    14    7    8 ar
    15    7   19 1
    16    8    9 1
    17    9   10 1
    18   10   20 1
    19   10   21 1
    20   10   22 1
    21   11   12 2
    22   11   13 1
@<TRIPOS>MOLECULE
ZINC01529253
   23    22     0     0     0
SMALL
USER_CHARGES

@<TRIPOS>ATOM
      1 C1         -0.0187    1.5258    0.0104 C.3       1 <0>        -0.1185
      2 C2          0.0021   -0.0041    0.0020 C.3       1 <0>        -0.1546
      3 C3         -1.4333   -0.5336    0.0129 C.3       1 <0>        -0.0098
      4 N1         -1.4134   -2.0025    0.0048 N.4       1 <0>        -0.6393
      5 C4          1.4167    2.0553   -0.0004 C.3       1 <0>        -0.1545
      6 C5          1.3960    3.5852    0.0080 C.3       1 <0>        -0.0098
      7 N2          2.7741    4.0937   -0.0024 N.4       1 <0>        -0.6393
      8 H1         -0.5459    1.8868   -0.8726 H         1 <0>         0.0875
      9 H2         -0.5289    1.8773    0.9072 H         1 <0>         0.0875
     10 H3          0.5123   -0.3556   -0.8948 H         1 <0>         0.0923
     11 H4          0.5293   -0.3651    0.8851 H         1 <0>         0.0923
     12 H5         -1.9435   -0.1821    0.9097 H         1 <0>         0.1360
     13 H6         -1.9605   -0.1726   -0.8702 H         1 <0>         0.1360
     14 H7         -0.9411   -2.3279   -0.8254 H         1 <0>         0.4373
     15 H8         -0.9254   -2.3367    0.8222 H         1 <0>         0.4372
     16 H9          1.9439    1.6943    0.8826 H         1 <0>         0.0923
     17 H10         1.9269    1.7038   -0.8972 H         1 <0>         0.0923
     18 H11         0.8688    3.9463   -0.8751 H         1 <0>         0.1360
     19 H12         0.8858    3.9367    0.9048 H         1 <0>         0.1360
     20 H13         3.2621    3.7594    0.8150 H         1 <0>         0.4372
     21 H14         3.2464    3.7683   -0.8326 H         1 <0>         0.4373
     22 H15        -2.3600   -2.3517    0.0120 H         1 <0>         0.4442
     23 H16         2.7604    5.1025    0.0031 H         1 <0>         0.4442
@<TRIPOS>BOND
     1    1    2 1
     2    1    5 1
     3    1    8 1
     4    1    9 1
     5    2    3 1
     6    2   10 1
     7    2   11 1
     8    3    4 1
     9    3   12 1
    10    3   13 1
    11    4   14 1
    12    4   15 1
    13    4   22 1
    14    5    6 1
    15    5   16 1
    16    5   17 1
    17    6    7 1
    18    6   18 1
    19    6   19 1
    20    7   20 1
    21    7   21 1
    22    7   23 1
@<TRIPOS>MOLECULE
ZINC19365690
   48    47     0     0     0
SMALL
USER_CHARGES
N'-[2-(2-dimethylaminoethyl-methyl-amino)ethyl]-N,N,N'-trimethyl-ethane-1,2-diamine
@<TRIPOS>ATOM
      1 C1          1.3463    2.0098   -0.0000 C.3       1 <0>        -0.0462
      2 N1         -0.0178    1.4648    0.0101 N.4       1 <0>        -0.4005
      3 C2         -0.8017    1.9868   -1.1173 C.3       1 <0>        -0.0528
      4 C3          0.0021   -0.0041    0.0020 C.3       1 <0>        -0.0093
      5 C4         -1.4090   -0.5347    0.2631 C.3       1 <0>         0.0273
      6 N2         -1.3891   -2.0035    0.2551 N.3       1 <0>        -0.5344
      7 C5         -1.0640   -2.5183   -1.0818 C.3       1 <0>         0.0047
      8 C6         -2.6660   -2.5500    0.7334 C.3       1 <0>         0.0553
      9 C7         -2.5268   -4.0584    0.9481 C.3       1 <0>         0.0552
     10 N3         -3.8037   -4.6049    1.4264 N.3       1 <0>        -0.5345
     11 C8         -4.1288   -4.0901    2.7633 C.3       1 <0>         0.0050
     12 C9         -3.7838   -6.0737    1.4184 C.3       1 <0>         0.0273
     13 C10        -5.1949   -6.6044    1.6795 C.3       1 <0>        -0.0093
     14 N4         -5.1749   -8.0732    1.6714 N.4       1 <0>        -0.4005
     15 C11        -4.3911   -8.5953    2.7988 C.3       1 <0>        -0.0524
     16 C12        -6.5390   -8.6183    1.6815 C.3       1 <0>        -0.0462
     17 H1          1.9098    1.6034    0.8528 H         1 <0>         0.1258
     18 H2          1.3037    3.1062    0.0777 H         1 <0>         0.1284
     19 H3          1.8468    1.7279   -0.9381 H         1 <0>         0.1199
     20 H4         -1.8165    1.5634   -1.0855 H         1 <0>         0.1215
     21 H5         -0.3162    1.7047   -2.0632 H         1 <0>         0.1202
     22 H6         -0.8594    3.0831   -1.0474 H         1 <0>         0.1290
     23 H7          0.3524   -0.3606   -0.9779 H         1 <0>         0.1276
     24 H8          0.6812   -0.3660    0.7881 H         1 <0>         0.1407
     25 H9         -1.7593   -0.1781    1.2429 H         1 <0>         0.0985
     26 H10        -2.0881   -0.1729   -0.5230 H         1 <0>         0.0605
     27 H11        -1.0559   -3.6180   -1.0592 H         1 <0>         0.0829
     28 H12        -0.0727   -2.1505   -1.3853 H         1 <0>         0.0746
     29 H13        -1.8199   -2.1719   -1.8019 H         1 <0>         0.0400
     30 H14        -2.9381   -2.0679    1.6840 H         1 <0>         0.0842
     31 H15        -3.4503   -2.3568   -0.0133 H         1 <0>         0.0555
     32 H16        -2.2547   -4.5405   -0.0025 H         1 <0>         0.0843
     33 H17        -1.7426   -4.2517    1.6948 H         1 <0>         0.0556
     34 H18        -5.0875   -4.5144    3.0964 H         1 <0>         0.0738
     35 H19        -4.2067   -2.9935    2.7250 H         1 <0>         0.0831
     36 H20        -3.3357   -4.3769    3.4695 H         1 <0>         0.0404
     37 H21        -3.4334   -6.4303    0.4386 H         1 <0>         0.0984
     38 H22        -3.1047   -6.4355    2.2045 H         1 <0>         0.0605
     39 H23        -5.5452   -6.2478    2.6594 H         1 <0>         0.1277
     40 H24        -5.8740   -6.2426    0.8934 H         1 <0>         0.1407
     41 H25        -4.3928   -9.6949    2.7685 H         1 <0>         0.1289
     42 H26        -4.8370   -8.2539    3.7446 H         1 <0>         0.1198
     43 H27        -3.3567   -8.2281    2.7274 H         1 <0>         0.1216
     44 H28        -6.4947   -9.7174    1.6752 H         1 <0>         0.1283
     45 H29        -7.0804   -8.2680    0.7904 H         1 <0>         0.1260
     46 H30        -7.0633   -8.2777    2.5866 H         1 <0>         0.1198
     47 H31        -0.5052    1.7912    0.9406 H         1 <0>         0.4466
     48 H32        -4.6873   -8.3994    0.7409 H         1 <0>         0.4467
@<TRIPOS>BOND
     1    1    2 1
     2    1   17 1
     3    1   18 1
     4    1   19 1
     5    2    3 1
     6    2    4 1
     7    2   47 1
     8    3   20 1
     9    3   21 1
    10    3   22 1
    11    4    5 1
    12    4   23 1
    13    4   24 1
    14    5    6 1
    15    5   25 1
    16    5   26 1
    17    6    7 1
    18    6    8 1
    19    7   27 1
    20    7   28 1
    21    7   29 1
    22    8    9 1
    23    8   30 1
    24    8   31 1
    25    9   10 1
    26    9   32 1
    27    9   33 1
    28   10   11 1
    29   10   12 1
    30   11   34 1
    31   11   35 1
    32   11   36 1
    33   12   13 1
    34   12   37 1
    35   12   38 1
    36   13   14 1
    37   13   39 1
    38   13   40 1
    39   14   15 1
    40   14   16 1
    41   14   48 1
    42   15   41 1
    43   15   42 1
    44   15   43 1
    45   16   44 1
    46   16   45 1
    47   16   46 1
@<TRIPOS>MOLECULE
ZINC01700217
   29    30     0     0     0
SMALL
USER_CHARGES

@<TRIPOS>ATOM
      1 C1         -0.0164    1.3568    0.0095 C.ar      1 <0>        -0.1044
      2 C2          1.1685    2.0902    0.0021 C.ar      1 <0>        -0.1154
      3 C3          2.3785    1.4660   -0.0127 C.ar      1 <0>        -0.1086
      4 C4          2.4369    0.0637   -0.0208 C.ar      1 <0>        -0.0883
      5 C5          1.2329   -0.6830   -0.0133 C.ar      1 <0>        -0.0154
      6 C6          0.0021   -0.0041    0.0020 C.ar      1 <0>        -0.1079
      7 C7          1.2897   -2.0870   -0.0204 C.ar      1 <0>        -0.1454
      8 C8          2.4960   -2.7188   -0.0343 C.ar      1 <0>        -0.0741
      9 C9          3.6853   -1.9966   -0.0413 C.ar      1 <0>        -0.2035
     10 C10         3.6728   -0.6178   -0.0357 C.ar      1 <0>         0.2107
     11 N1          4.8691    0.0961   -0.0437 N.pl3     1 <0>        -0.7455
     12 C11         6.1482   -0.6180   -0.0592 C.3       1 <0>         0.1008
     13 C12         7.2966    0.3928   -0.0653 C.3       1 <0>        -0.0201
     14 N2          8.5792   -0.3232   -0.0809 N.4       1 <0>        -0.6315
     15 H1         -0.9633    1.8759    0.0259 H         1 <0>         0.1285
     16 H2          1.1264    3.1693    0.0079 H         1 <0>         0.1259
     17 H3          3.2888    2.0471   -0.0187 H         1 <0>         0.1160
     18 H4         -0.9241   -0.5595    0.0082 H         1 <0>         0.1331
     19 H5          0.3773   -2.6647   -0.0144 H         1 <0>         0.1292
     20 H6          2.5301   -3.7982   -0.0396 H         1 <0>         0.1256
     21 H7          4.6289   -2.5219   -0.0517 H         1 <0>         0.1166
     22 H8          4.8552    1.0660   -0.0390 H         1 <0>         0.4055
     23 H9          6.2233   -1.2480    0.8272 H         1 <0>         0.0823
     24 H10         6.2065   -1.2396   -0.9527 H         1 <0>         0.0823
     25 H11         7.2214    1.0228   -0.9517 H         1 <0>         0.1409
     26 H12         7.2383    1.0144    0.8282 H         1 <0>         0.1409
     27 H13         8.6488   -0.9063    0.7396 H         1 <0>         0.4388
     28 H14         8.6331   -0.8986   -0.9080 H         1 <0>         0.4388
     29 H15         9.3366    0.3434   -0.0849 H         1 <0>         0.4445
@<TRIPOS>BOND
     1    1    6 ar
     2    1    2 ar
     3    1   15 1
     4    2    3 ar
     5    2   16 1
     6    3    4 ar
     7    3   17 1
     8    4   10 ar
     9    4    5 ar
    10    5    6 ar
    11    5    7 ar
    12    6   18 1
    13    7    8 ar
    14    7   19 1
    15    8    9 ar
    16    8   20 1
    17    9   10 ar
    18    9   21 1
    19   10   11 1
    20   11   12 1
    21   11   22 1
    22   12   13 1
    23   12   23 1
    24   12   24 1
    25   13   14 1
    26   13   25 1
    27   13   26 1
    28   14   27 1
    29   14   28 1
    30   14   29 1
@<TRIPOS>MOLECULE
ZINC39054006
   20    20     0     0     0
SMALL
USER_CHARGES

@<TRIPOS>ATOM
      1 C1         -0.0178    1.4608    0.0101 C.3       1 <0>         0.0476
      2 N1          0.0021   -0.0041    0.0020 N.pl3     1 <0>        -0.4749
      3 C2          0.0054   -0.6604   -1.1846 C.2       1 <0>         0.1201
      4 C3          0.0240   -2.0106   -1.2258 C.2       1 <0>        -0.2488
      5 C4          0.0401   -2.7390   -0.0130 C.2       1 <0>         0.4280
      6 O1          0.0575   -3.9614   -0.0198 O.2       1 <0>        -0.4945
      7 C5          0.0361   -2.0238    1.2077 C.2       1 <0>        -0.8513
      8 C6          0.0224   -0.6732    1.1812 C.2       1 <0>         0.2728
      9 S1          0.0557   -2.8848    2.7449 S.o2      1 <0>         2.7271
     10 O2          1.0132   -3.9266    2.6147 O.2       1 <0>        -0.9464
     11 O3          0.1386   -1.8967    3.7628 O.2       1 <0>        -0.9760
     12 N2         -1.4200   -3.6168    2.9149 N.pl3     1 <0>        -1.2428
     13 H1          1.0048    1.8381    0.0023 H         1 <0>         0.0882
     14 H2         -0.5450    1.8219   -0.8730 H         1 <0>         0.0981
     15 H3         -0.5280    1.8123    0.9069 H         1 <0>         0.0982
     16 H4         -0.0073   -0.0979   -2.1064 H         1 <0>         0.1721
     17 H5          0.0262   -2.5281   -2.1738 H         1 <0>         0.1580
     18 H6          0.0236   -0.1206    2.1092 H         1 <0>         0.1883
     19 H7         -1.4956   -4.4461    3.4124 H         1 <0>         0.4219
     20 H8         -2.2088   -3.2163    2.5171 H         1 <0>         0.4142
@<TRIPOS>BOND
     1    1    2 1
     2    1   13 1
     3    1   14 1
     4    1   15 1
     5    2    8 1
     6    2    3 1
     7    3    4 2
     8    3   16 1
     9    4    5 1
    10    4   17 1
    11    5    6 2
    12    5    7 1
    13    7    8 2
    14    7    9 1
    15    8   18 1
    16    9   10 2
    17    9   11 2
    18    9   12 1
    19   12   19 1
    20   12   20 1
@<TRIPOS>MOLECULE
ZINC01033551
   36    37     0     0     0
SMALL
USER_CHARGES

@<TRIPOS>ATOM
      1 C1          1.1464   -0.3594    1.3710 C.ar      1 <0>        -0.0464
      2 C2          2.3285    0.3335    1.1976 C.ar      1 <0>        -0.1225
      3 C3          2.3814    1.4031    0.3135 C.ar      1 <0>         0.1940
      4 C4          1.2447    1.7725   -0.3936 C.ar      1 <0>        -0.1461
      5 C5          0.0657    1.0755   -0.2157 C.ar      1 <0>        -0.0469
      6 C6          0.0163    0.0109    0.6654 C.ar      1 <0>        -0.1987
      7 C7         -1.2718   -0.7474    0.8570 C.3       1 <0>         0.5098
      8 F1         -2.0094   -0.1600    1.8905 F         1 <0>        -0.1762
      9 F2         -2.0160   -0.7093   -0.3270 F         1 <0>        -0.1769
     10 F3         -0.9859   -2.0769    1.1854 F         1 <0>        -0.1759
     11 N1          3.5774    2.1075    0.1359 N.am      1 <0>        -0.6791
     12 C8          4.7582    1.4641    0.2264 C.2       1 <0>         0.7054
     13 O1          4.7834    0.2568    0.3684 O.2       1 <0>        -0.5420
     14 N2          5.9111    2.1590    0.1595 N.am      1 <0>        -0.6815
     15 C9          7.1360    1.4824    0.1444 C.ar      1 <0>         0.2239
     16 C10         7.2373    0.2404   -0.4684 C.ar      1 <0>        -0.1437
     17 C11         8.4476   -0.4248   -0.4816 C.ar      1 <0>         0.0051
     18 C12         9.5576    0.1445    0.1149 C.ar      1 <0>        -0.6932
     19 C13         9.4600    1.3811    0.7259 C.ar      1 <0>         0.0052
     20 C14         8.2541    2.0542    0.7371 C.ar      1 <0>        -0.1674
     21 S1         11.0996   -0.7080    0.0969 S.o2      1 <0>         2.7029
     22 O2         11.8512   -0.2112    1.1958 O.2       1 <0>        -0.9632
     23 O3         10.7989   -2.0881   -0.0587 O.2       1 <0>        -0.9619
     24 N3         11.9014   -0.2408   -1.2747 N.pl3     1 <0>        -1.2502
     25 H1          1.1058   -1.1941    2.0551 H         1 <0>         0.1417
     26 H2          3.2107    0.0441    1.7493 H         1 <0>         0.1484
     27 H3          1.2826    2.6041   -1.0817 H         1 <0>         0.1399
     28 H4         -0.8187    1.3625   -0.7651 H         1 <0>         0.1426
     29 H5          3.5566    3.0588   -0.0524 H         1 <0>         0.4142
     30 H6          5.8918    3.1281    0.1219 H         1 <0>         0.4148
     31 H7          6.3705   -0.2051   -0.9339 H         1 <0>         0.1482
     32 H8          8.5270   -1.3908   -0.9581 H         1 <0>         0.1485
     33 H9         10.3288    1.8231    1.1909 H         1 <0>         0.1495
     34 H10         8.1796    3.0222    1.2103 H         1 <0>         0.1395
     35 H11        11.4925    0.3949   -1.8828 H         1 <0>         0.4165
     36 H12        12.7798   -0.6027   -1.4701 H         1 <0>         0.4215
@<TRIPOS>BOND
     1    1    6 ar
     2    1    2 ar
     3    1   25 1
     4    2    3 ar
     5    2   26 1
     6    3    4 ar
     7    3   11 1
     8    4    5 ar
     9    4   27 1
    10    5    6 ar
    11    5   28 1
    12    6    7 1
    13    7    8 1
    14    7    9 1
    15    7   10 1
    16   11   12 am
    17   11   29 1
    18   12   13 2
    19   12   14 am
    20   14   15 1
    21   14   30 1
    22   15   20 ar
    23   15   16 ar
    24   16   17 ar
    25   16   31 1
    26   17   18 ar
    27   17   32 1
    28   18   19 ar
    29   18   21 1
    30   19   20 ar
    31   19   33 1
    32   20   34 1
    33   21   22 2
    34   21   23 2
    35   21   24 1
    36   24   35 1
    37   24   36 1
@<TRIPOS>MOLECULE
ZINC05133329
   13    13     0     0     0
SMALL
USER_CHARGES

@<TRIPOS>ATOM
      1 C1         -0.0167    1.3784    0.0096 C.ar      1 <0>        -0.1301
      2 C2          1.1698    2.0883    0.0021 C.ar      1 <0>        -0.1041
      3 C3          2.3773    1.4175   -0.0134 C.ar      1 <0>        -0.1470
      4 C4          2.3989    0.0304   -0.0210 C.ar      1 <0>         0.1027
      5 C5          1.2070   -0.6796   -0.0130 C.ar      1 <0>        -0.1470
      6 C6          0.0021   -0.0041    0.0020 C.ar      1 <0>        -0.1041
      7 O1          3.5855   -0.6319   -0.0368 O.3       1 <0>        -0.5005
      8 H1         -0.9596    1.9047    0.0260 H         1 <0>         0.1260
      9 H2          1.1525    3.1682    0.0080 H         1 <0>         0.1276
     10 H3          3.3038    1.9724   -0.0200 H         1 <0>         0.1287
     11 H4          1.2211   -1.7595   -0.0193 H         1 <0>         0.1287
     12 H5         -0.9260   -0.5563    0.0082 H         1 <0>         0.1276
     13 H6          3.9380   -0.8283    0.8420 H         1 <0>         0.3916
@<TRIPOS>BOND
     1    1    6 ar
     2    1    2 ar
     3    1    8 1
     4    2    3 ar
     5    2    9 1
     6    3    4 ar
     7    3   10 1
     8    4    5 ar
     9    4    7 1
    10    5    6 ar
    11    5   11 1
    12    6   12 1
    13    7   13 1
@<TRIPOS>MOLECULE
ZINC00156386
   23    23     0     0     0
SMALL
USER_CHARGES

@<TRIPOS>ATOM
      1 C1         -0.0173    1.4248    0.0099 C.3       1 <0>         0.0265
      2 O1          0.0021   -0.0041    0.0020 O.3       1 <0>        -0.3122
      3 C2          0.6062   -0.6076   -1.0565 C.ar      1 <0>         0.1191
      4 C3          1.1704    0.1588   -2.0580 C.ar      1 <0>        -0.1919
      5 C4          1.7916   -0.4626   -3.1463 C.ar      1 <0>        -0.0639
      6 C5          1.8394   -1.8588   -3.2169 C.ar      1 <0>        -0.1919
      7 C6          1.2734   -2.6195   -2.2122 C.ar      1 <0>         0.1189
      8 C7          0.6605   -1.9976   -1.1269 C.ar      1 <0>         0.0290
      9 O2          0.1097   -2.7484   -0.1378 O.3       1 <0>        -0.4759
     10 O3          1.3195   -3.9771   -2.2801 O.3       1 <0>        -0.3122
     11 C8          1.9685   -4.5481   -3.4179 C.3       1 <0>         0.0266
     12 C9          2.3935    0.3512   -4.2157 C.2       1 <0>         0.5204
     13 O4          2.3506    1.5722   -4.1529 O.co2     1 <0>        -0.6816
     14 O5          2.9365   -0.1936   -5.1670 O.co2     1 <0>        -0.6816
     15 H1          1.0053    1.8021    0.0021 H         1 <0>         0.0571
     16 H2         -0.5445    1.7859   -0.8732 H         1 <0>         0.0566
     17 H3         -0.5275    1.7763    0.9067 H         1 <0>         0.0956
     18 H4          1.1316    1.2366   -2.0009 H         1 <0>         0.1402
     19 H5          2.3180   -2.3415   -4.0561 H         1 <0>         0.1401
     20 H6         -0.8189   -2.9738   -0.2858 H         1 <0>         0.3719
     21 H7          1.4589   -4.2265   -4.3262 H         1 <0>         0.0566
     22 H8          3.0069   -4.2179   -3.4476 H         1 <0>         0.0571
     23 H9          1.9348   -5.6353   -3.3479 H         1 <0>         0.0956
@<TRIPOS>BOND
     1    1    2 1
     2    1   15 1
     3    1   16 1
     4    1   17 1
     5    2    3 1
     6    3    8 ar
     7    3    4 ar
     8    4    5 ar
     9    4   18 1
    10    5    6 ar
    11    5   12 1
    12    6    7 ar
    13    6   19 1
    14    7    8 ar
    15    7   10 1
    16    8    9 1
    17    9   20 1
    18   10   11 1
    19   11   21 1
    20   11   22 1
    21   11   23 1
    22   12   13 2
    23   12   14 1
@<TRIPOS>MOLECULE
ZINC00143531
   33    34     0     0     0
SMALL
USER_CHARGES

@<TRIPOS>ATOM
      1 C1          0.9582   -0.4517   -1.2351 C.ar      1 <0>        -0.1433
      2 C2          2.1282    0.2604   -1.4124 C.ar      1 <0>         0.0014
      3 C3          2.3495    1.4200   -0.6922 C.ar      1 <0>        -0.6952
      4 C4          1.4007    1.8703    0.2074 C.ar      1 <0>         0.0067
      5 C5          0.2284    1.1630    0.3889 C.ar      1 <0>        -0.1681
      6 C6          0.0033   -0.0019   -0.3328 C.ar      1 <0>         0.2241
      7 N1         -1.1834   -0.7209   -0.1512 N.am      1 <0>        -0.6825
      8 C7         -1.1816   -2.0639   -0.2638 C.2       1 <0>         0.7047
      9 O1         -0.1341   -2.6587   -0.4295 O.2       1 <0>        -0.5444
     10 N2         -2.3408   -2.7478   -0.1927 N.am      1 <0>        -0.6780
     11 C8         -2.3293   -4.1476   -0.2005 C.ar      1 <0>         0.1639
     12 C9         -3.3676   -4.8483   -0.7998 C.ar      1 <0>        -0.1318
     13 C10        -3.3537   -6.2293   -0.8066 C.ar      1 <0>        -0.0886
     14 C11        -2.3064   -6.9148   -0.2164 C.ar      1 <0>        -0.0487
     15 C12        -1.2705   -6.2189    0.3814 C.ar      1 <0>        -0.0878
     16 C13        -1.2768   -4.8378    0.3859 C.ar      1 <0>        -0.1074
     17 Cl1        -2.2925   -8.6507   -0.2257 Cl        1 <0>        -0.0662
     18 S1          3.8437    2.3253   -0.9209 S.o2      1 <0>         2.7036
     19 O2          4.0492    3.0767    0.2676 O.2       1 <0>        -0.9630
     20 O3          4.8055    1.4035   -1.4152 O.2       1 <0>        -0.9597
     21 N3          3.5718    3.4210   -2.1324 N.pl3     1 <0>        -1.2484
     22 H1          0.7842   -1.3551   -1.8009 H         1 <0>         0.1479
     23 H2          2.8713   -0.0889   -2.1139 H         1 <0>         0.1476
     24 H3          1.5767    2.7760    0.7689 H         1 <0>         0.1484
     25 H4         -0.5122    1.5152    1.0916 H         1 <0>         0.1388
     26 H5         -2.0074   -0.2527    0.0557 H         1 <0>         0.4142
     27 H6         -3.1831   -2.2700   -0.1361 H         1 <0>         0.4122
     28 H7         -4.1856   -4.3138   -1.2599 H         1 <0>         0.1365
     29 H8         -4.1610   -6.7747   -1.2726 H         1 <0>         0.1398
     30 H9         -0.4543   -6.7562    0.8413 H         1 <0>         0.1390
     31 H10        -0.4658   -4.2951    0.8488 H         1 <0>         0.1456
     32 H11         4.0474    4.2664   -2.1376 H         1 <0>         0.4219
     33 H12         2.9369    3.2174   -2.8370 H         1 <0>         0.4170
@<TRIPOS>BOND
     1    1    6 ar
     2    1    2 ar
     3    1   22 1
     4    2    3 ar
     5    2   23 1
     6    3    4 ar
     7    3   18 1
     8    4    5 ar
     9    4   24 1
    10    5    6 ar
    11    5   25 1
    12    6    7 1
    13    7    8 am
    14    7   26 1
    15    8    9 2
    16    8   10 am
    17   10   11 1
    18   10   27 1
    19   11   16 ar
    20   11   12 ar
    21   12   13 ar
    22   12   28 1
    23   13   14 ar
    24   13   29 1
    25   14   15 ar
    26   14   17 1
    27   15   16 ar
    28   15   30 1
    29   16   31 1
    30   18   19 2
    31   18   20 2
    32   18   21 1
    33   21   32 1
    34   21   33 1
@<TRIPOS>MOLECULE
ZINC00058172
   20    20     0     0     0
SMALL
USER_CHARGES

@<TRIPOS>ATOM
      1 C1         -0.0169    1.3957    0.0097 C.ar      1 <0>        -0.1140
      2 C2          1.1668    2.1000    0.0022 C.ar      1 <0>        -0.1250
      3 C3          2.3804    1.4254   -0.0135 C.ar      1 <0>         0.0593
      4 C4          2.4079    0.0305   -0.0212 C.ar      1 <0>         0.0806
      5 C5          1.2269   -0.6836   -0.0138 C.ar      1 <0>        -0.1286
      6 C6          0.0021   -0.0041    0.0020 C.ar      1 <0>        -0.0222
      7 C7         -1.2582   -0.7578    0.0105 C.2       1 <0>        -0.1234
      8 C8         -2.4405   -0.0992    0.0258 C.2       1 <0>        -0.1542
      9 C9         -3.6536   -0.8247    0.0339 C.2       1 <0>         0.4982
     10 O1         -3.6348   -2.0498    0.0272 O.co2     1 <0>        -0.6929
     11 O2         -4.7239   -0.2284    0.0477 O.co2     1 <0>        -0.6968
     12 O3          3.5989   -0.6258   -0.0366 O.3       1 <0>        -0.4900
     13 O4          3.5440    2.1254   -0.0217 O.3       1 <0>        -0.4895
     14 H1         -0.9592    1.9231    0.0260 H         1 <0>         0.1353
     15 H2          1.1511    3.1799    0.0081 H         1 <0>         0.1310
     16 H3          1.2470   -1.7634   -0.0205 H         1 <0>         0.1354
     17 H4         -1.2417   -1.8376    0.0045 H         1 <0>         0.1311
     18 H5         -2.4570    0.9807    0.0317 H         1 <0>         0.1021
     19 H6          3.9522   -0.8203    0.8423 H         1 <0>         0.3831
     20 H7          3.8899    2.3237    0.8592 H         1 <0>         0.3804
@<TRIPOS>BOND
     1    1    6 ar
     2    1    2 ar
     3    1   14 1
     4    2    3 ar
     5    2   15 1
     6    3    4 ar
     7    3   13 1
     8    4    5 ar
     9    4   12 1
    10    5    6 ar
    11    5   16 1
    12    6    7 1
    13    7    8 2
    14    7   17 1
    15    8    9 1
    16    8   18 1
    17    9   10 2
    18    9   11 1
    19   12   19 1
    20   13   20 1
@<TRIPOS>MOLECULE
ZINC00493069
   31    33     0     0     0
SMALL
USER_CHARGES

@<TRIPOS>ATOM
      1 C1         -0.0167    1.3781    0.0096 C.ar      1 <0>        -0.1060
      2 C2          1.1709    2.0855    0.0021 C.ar      1 <0>        -0.1228
      3 C3          2.3773    1.4107   -0.0130 C.ar      1 <0>        -0.0937
      4 C4          2.3960    0.0285   -0.0201 C.ar      1 <0>        -0.1034
      5 C5          1.2084   -0.6789   -0.0117 C.ar      1 <0>        -0.0937
      6 C6          0.0021   -0.0041    0.0020 C.ar      1 <0>        -0.1228
      7 C7          3.7112   -0.7071   -0.0376 C.3       1 <0>         0.1002
      8 O1          4.1410   -0.9464    1.3041 O.3       1 <0>        -0.2980
      9 C8          5.3173   -1.6042    1.4664 C.ar      1 <0>         0.1911
     10 C9          6.0448   -2.0055    0.3474 C.ar      1 <0>        -0.2289
     11 C10         7.2287   -2.6681    0.4939 C.ar      1 <0>        -0.0093
     12 C11         7.7161   -2.9461    1.7761 C.ar      1 <0>        -0.2014
     13 C12         8.9837   -3.6549    1.9637 C.2       1 <0>         0.0110
     14 C13         9.4033   -3.8944    3.2334 C.2       1 <0>        -0.2572
     15 C14         8.6211   -3.4620    4.3239 C.2       1 <0>         0.5095
     16 O2          9.0089   -3.6832    5.4570 O.2       1 <0>        -0.4611
     17 O3          7.4602   -2.8124    4.1451 O.3       1 <0>        -0.2700
     18 C15         6.9862   -2.5430    2.9098 C.ar      1 <0>         0.1901
     19 C16         5.7874   -1.8661    2.7427 C.ar      1 <0>        -0.1768
     20 H1         -0.9591    1.9053    0.0259 H         1 <0>         0.1260
     21 H2          1.1563    3.1654    0.0076 H         1 <0>         0.1269
     22 H3          3.3051    1.9634   -0.0196 H         1 <0>         0.1251
     23 H4          1.2231   -1.7588   -0.0176 H         1 <0>         0.1251
     24 H5         -0.9258   -0.5567    0.0082 H         1 <0>         0.1269
     25 H6          3.5884   -1.6586   -0.5549 H         1 <0>         0.0779
     26 H7          4.4573   -0.1052   -0.5563 H         1 <0>         0.0779
     27 H8          5.6688   -1.7911   -0.6421 H         1 <0>         0.1417
     28 H9          7.7878   -2.9773   -0.3769 H         1 <0>         0.1444
     29 H10         9.5690   -3.9787    1.1157 H         1 <0>         0.1540
     30 H11        10.3335   -4.4151    3.4070 H         1 <0>         0.1646
     31 H12         5.2201   -1.5480    3.6049 H         1 <0>         0.1527
@<TRIPOS>BOND
     1    1    6 ar
     2    1    2 ar
     3    1   20 1
     4    2    3 ar
     5    2   21 1
     6    3    4 ar
     7    3   22 1
     8    4    5 ar
     9    4    7 1
    10    5    6 ar
    11    5   23 1
    12    6   24 1
    13    7    8 1
    14    7   25 1
    15    7   26 1
    16    8    9 1
    17    9   19 ar
    18    9   10 ar
    19   10   11 ar
    20   10   27 1
    21   11   12 ar
    22   11   28 1
    23   12   18 ar
    24   12   13 1
    25   13   14 2
    26   13   29 1
    27   14   15 1
    28   14   30 1
    29   15   16 2
    30   15   17 1
    31   17   18 1
    32   18   19 ar
    33   19   31 1
@<TRIPOS>MOLECULE
ZINC18177805
   36    37     0     0     0
SMALL
USER_CHARGES

@<TRIPOS>ATOM
      1 C1          1.0717   -0.4528   -0.7673 C.ar      1 <0>        -0.1442
      2 C2          2.2555    0.2585   -0.7800 C.ar      1 <0>         0.0040
      3 C3          2.3760    1.4168   -0.0344 C.ar      1 <0>        -0.6965
      4 C4          1.3125    1.8665    0.7265 C.ar      1 <0>         0.0048
      5 C5          0.1261    1.1596    0.7438 C.ar      1 <0>        -0.1718
      6 C6          0.0017   -0.0035   -0.0046 C.ar      1 <0>         0.2301
      7 N1         -1.1994   -0.7217    0.0101 N.am      1 <0>        -0.6891
      8 C7         -1.1827   -2.0649   -0.0990 C.2       1 <0>         0.7025
      9 O1         -0.1229   -2.6607   -0.1129 O.2       1 <0>        -0.5633
     10 N2         -2.3409   -2.7478   -0.1927 N.am      1 <0>        -0.7317
     11 C8         -2.3228   -4.2079   -0.3113 C.3       1 <0>         0.1554
     12 C9         -2.2143   -4.6162   -1.7950 C.3       1 <0>        -0.1360
     13 C10        -3.1061   -5.8776   -1.9080 C.3       1 <0>        -0.1256
     14 C11        -4.2948   -5.5405   -0.9740 C.3       1 <0>        -0.1250
     15 C12        -3.6457   -4.7955    0.2107 C.3       1 <0>        -0.1321
     16 S1          3.8880    2.3213   -0.0534 S.o2      1 <0>         2.7036
     17 O2          3.9281    3.0707    1.1533 O.2       1 <0>        -0.9646
     18 O3          4.9082    1.3995   -0.4118 O.2       1 <0>        -0.9633
     19 N3          3.7864    3.4190   -1.2891 N.pl3     1 <0>        -1.2506
     20 H1          0.9768   -1.3549   -1.3533 H         1 <0>         0.1473
     21 H2          3.0882   -0.0906   -1.3727 H         1 <0>         0.1469
     22 H3          1.4098    2.7714    1.3080 H         1 <0>         0.1478
     23 H4         -0.7039    1.5109    1.3388 H         1 <0>         0.1377
     24 H5         -2.0438   -0.2527    0.0988 H         1 <0>         0.4113
     25 H6         -3.1864   -2.2725   -0.1816 H         1 <0>         0.3983
     26 H7         -1.4843   -4.6176    0.2518 H         1 <0>         0.0953
     27 H8         -2.5935   -3.8220   -2.4380 H         1 <0>         0.0697
     28 H9         -1.1818   -4.8549   -2.0504 H         1 <0>         0.0730
     29 H10        -3.4483   -6.0181   -2.9333 H         1 <0>         0.0704
     30 H11        -2.5739   -6.7600   -1.5528 H         1 <0>         0.0713
     31 H12        -5.0101   -4.8955   -1.4844 H         1 <0>         0.0673
     32 H13        -4.7808   -6.4536   -0.6303 H         1 <0>         0.0704
     33 H14        -3.4491   -5.4911    1.0266 H         1 <0>         0.0780
     34 H15        -4.3011   -3.9944    0.5522 H         1 <0>         0.0713
     35 H16         2.9861    3.4614   -1.8356 H         1 <0>         0.4164
     36 H17         4.5272    4.0196   -1.4665 H         1 <0>         0.4209
@<TRIPOS>BOND
     1    1    6 ar
     2    1    2 ar
     3    1   20 1
     4    2    3 ar
     5    2   21 1
     6    3    4 ar
     7    3   16 1
     8    4    5 ar
     9    4   22 1
    10    5    6 ar
    11    5   23 1
    12    6    7 1
    13    7    8 am
    14    7   24 1
    15    8    9 2
    16    8   10 am
    17   10   11 1
    18   10   25 1
    19   11   15 1
    20   11   12 1
    21   11   26 1
    22   12   13 1
    23   12   27 1
    24   12   28 1
    25   13   14 1
    26   13   29 1
    27   13   30 1
    28   14   15 1
    29   14   31 1
    30   14   32 1
    31   15   33 1
    32   15   34 1
    33   16   17 2
    34   16   18 2
    35   16   19 1
    36   19   35 1
    37   19   36 1
@<TRIPOS>MOLECULE
ZINC01752601
   33    34     0     0     0
SMALL
USER_CHARGES

@<TRIPOS>ATOM
      1 C1          0.9576   -0.4525   -1.2348 C.ar      1 <0>        -0.0906
      2 C2          2.1284    0.2583   -1.4127 C.ar      1 <0>        -0.1316
      3 C3          2.3507    1.4196   -0.6921 C.ar      1 <0>         0.0864
      4 C4          1.4004    1.8705    0.2084 C.ar      1 <0>        -0.1319
      5 C5          0.2285    1.1623    0.3896 C.ar      1 <0>        -0.1144
      6 C6          0.0033   -0.0019   -0.3326 C.ar      1 <0>         0.1484
      7 N1         -1.1847   -0.7210   -0.1510 N.am      1 <0>        -0.6772
      8 C7         -1.1835   -2.0640   -0.2636 C.2       1 <0>         0.7053
      9 O1         -0.1362   -2.6592   -0.4292 O.2       1 <0>        -0.5468
     10 N2         -2.3430   -2.7473   -0.1927 N.am      1 <0>        -0.6827
     11 C8         -2.3322   -4.1466   -0.2005 C.ar      1 <0>         0.2252
     12 C9         -3.3707   -4.8471   -0.7997 C.ar      1 <0>        -0.1680
     13 C10        -3.3568   -6.2282   -0.8062 C.ar      1 <0>         0.0050
     14 C11        -2.3105   -6.9133   -0.2164 C.ar      1 <0>        -0.6937
     15 C12        -1.2748   -6.2187    0.3811 C.ar      1 <0>         0.0047
     16 C13        -1.2799   -4.8376    0.3859 C.ar      1 <0>        -0.1435
     17 S1         -2.2971   -8.6753   -0.2258 S.o2      1 <0>         2.7037
     18 O2         -1.4849   -9.0811    0.8673 O.2       1 <0>        -0.9630
     19 O3         -3.6487   -9.0909   -0.3661 O.2       1 <0>        -0.9641
     20 N3         -1.5100   -9.1516   -1.6027 N.pl3     1 <0>        -1.2503
     21 F1          3.4965    2.1135   -0.8676 F         1 <0>        -0.1376
     22 H1          0.7827   -1.3559   -1.8003 H         1 <0>         0.1460
     23 H2          2.8711   -0.0921   -2.1141 H         1 <0>         0.1411
     24 H3          1.5758    2.7764    0.7698 H         1 <0>         0.1421
     25 H4         -0.5122    1.5139    1.0926 H         1 <0>         0.1375
     26 H5         -2.0085   -0.2524    0.0558 H         1 <0>         0.4122
     27 H6         -3.1851   -2.2691   -0.1362 H         1 <0>         0.4146
     28 H7         -4.1886   -4.3126   -1.2599 H         1 <0>         0.1391
     29 H8         -4.1642   -6.7736   -1.2721 H         1 <0>         0.1492
     30 H9         -0.4592   -6.7567    0.8412 H         1 <0>         0.1480
     31 H10        -0.4688   -4.2956    0.8492 H         1 <0>         0.1484
     32 H11        -1.1626   -8.4866   -2.2175 H         1 <0>         0.4171
     33 H12        -1.3964  -10.0957   -1.7945 H         1 <0>         0.4214
@<TRIPOS>BOND
     1    1    6 ar
     2    1    2 ar
     3    1   22 1
     4    2    3 ar
     5    2   23 1
     6    3    4 ar
     7    3   21 1
     8    4    5 ar
     9    4   24 1
    10    5    6 ar
    11    5   25 1
    12    6    7 1
    13    7    8 am
    14    7   26 1
    15    8    9 2
    16    8   10 am
    17   10   11 1
    18   10   27 1
    19   11   16 ar
    20   11   12 ar
    21   12   13 ar
    22   12   28 1
    23   13   14 ar
    24   13   29 1
    25   14   15 ar
    26   14   17 1
    27   15   16 ar
    28   15   30 1
    29   16   31 1
    30   17   18 2
    31   17   19 2
    32   17   20 1
    33   20   32 1
    34   20   33 1
@<TRIPOS>MOLECULE
ZINC01741507
   37    38     0     0     0
SMALL
USER_CHARGES

@<TRIPOS>ATOM
      1 C1         -0.9115    1.1353    1.0392 C.3       1 <0>         0.0295
      2 O1         -0.5480   -0.1960    0.6681 O.3       1 <0>        -0.3239
      3 C2          0.5739   -0.7112    1.2382 C.ar      1 <0>         0.0956
      4 C3          1.3054    0.0457    2.1390 C.ar      1 <0>        -0.1860
      5 C4          2.4459   -0.4795    2.7177 C.ar      1 <0>        -0.0980
      6 C5          2.8603   -1.7597    2.3998 C.ar      1 <0>        -0.1312
      7 C6          2.1363   -2.5210    1.5018 C.ar      1 <0>        -0.1026
      8 C7          0.9874   -2.0032    0.9222 C.ar      1 <0>         0.1335
      9 N1          0.2478   -2.7758    0.0163 N.am      1 <0>        -0.6654
     10 C8          0.3883   -4.1162    0.0021 C.2       1 <0>         0.7054
     11 O2          1.0796   -4.6639    0.8392 O.2       1 <0>        -0.5478
     12 N2         -0.2374   -4.8494   -0.9398 N.am      1 <0>        -0.6836
     13 C9         -0.1837   -6.2468   -0.8889 C.ar      1 <0>         0.2276
     14 C10        -0.1517   -6.8976    0.3374 C.ar      1 <0>        -0.1437
     15 C11        -0.0986   -8.2769    0.3842 C.ar      1 <0>         0.0047
     16 C12        -0.0773   -9.0097   -0.7883 C.ar      1 <0>        -0.6947
     17 C13        -0.1090   -8.3646   -2.0109 C.ar      1 <0>         0.0051
     18 C14        -0.1679   -6.9858   -2.0645 C.ar      1 <0>        -0.1687
     19 S1         -0.0090  -10.7693   -0.7242 S.o2      1 <0>         2.7034
     20 O3          0.5515  -11.1991   -1.9572 O.2       1 <0>        -0.9641
     21 O4          0.5628  -11.1080    0.5318 O.2       1 <0>        -0.9628
     22 N3         -1.5707  -11.3192   -0.6969 N.pl3     1 <0>        -1.2505
     23 H1         -0.1064    1.8196    0.7717 H         1 <0>         0.0573
     24 H2         -1.8223    1.4229    0.5140 H         1 <0>         0.1015
     25 H3         -1.0831    1.1787    2.1147 H         1 <0>         0.0573
     26 H4          0.9849    1.0463    2.3889 H         1 <0>         0.1332
     27 H5          3.0149    0.1120    3.4197 H         1 <0>         0.1275
     28 H6          3.7520   -2.1657    2.8541 H         1 <0>         0.1297
     29 H7          2.4626   -3.5205    1.2547 H         1 <0>         0.1625
     30 H8         -0.3651   -2.3458   -0.6004 H         1 <0>         0.4143
     31 H9         -0.7251   -4.4084   -1.6531 H         1 <0>         0.4140
     32 H10        -0.1680   -6.3258    1.2534 H         1 <0>         0.1479
     33 H11        -0.0734   -8.7837    1.3376 H         1 <0>         0.1478
     34 H12        -0.0923   -8.9397   -2.9249 H         1 <0>         0.1486
     35 H13        -0.1976   -6.4827   -3.0197 H         1 <0>         0.1389
     36 H14        -2.3075  -10.6885   -0.7167 H         1 <0>         0.4165
     37 H15        -1.7488  -12.2721   -0.6612 H         1 <0>         0.4211
@<TRIPOS>BOND
     1    1    2 1
     2    1   23 1
     3    1   24 1
     4    1   25 1
     5    2    3 1
     6    3    8 ar
     7    3    4 ar
     8    4    5 ar
     9    4   26 1
    10    5    6 ar
    11    5   27 1
    12    6    7 ar
    13    6   28 1
    14    7    8 ar
    15    7   29 1
    16    8    9 1
    17    9   10 am
    18    9   30 1
    19   10   11 2
    20   10   12 am
    21   12   13 1
    22   12   31 1
    23   13   18 ar
    24   13   14 ar
    25   14   15 ar
    26   14   32 1
    27   15   16 ar
    28   15   33 1
    29   16   17 ar
    30   16   19 1
    31   17   18 ar
    32   17   34 1
    33   18   35 1
    34   19   20 2
    35   19   21 2
    36   19   22 1
    37   22   36 1
    38   22   37 1
@<TRIPOS>MOLECULE
ZINC03359263
   34    35     0     0     0
SMALL
USER_CHARGES

@<TRIPOS>ATOM
      1 C1         -0.0122    1.3487   -0.7287 C.ar      1 <0>        -0.1389
      2 C2          1.1532    1.8941   -1.2421 C.ar      1 <0>        -0.0618
      3 C3          2.3616    1.2488   -1.0704 C.ar      1 <0>        -0.1403
      4 C4          2.4159    0.0461   -0.3796 C.ar      1 <0>         0.2135
      5 C5          1.2378   -0.5090    0.1421 C.ar      1 <0>        -0.0678
      6 C6          0.0224    0.1553   -0.0400 C.ar      1 <0>        -0.0457
      7 C7          1.2808   -1.7495    0.8562 C.1       1 <0>         0.2479
      8 N1          1.3148   -2.7335    1.4227 N.1       1 <0>        -0.4098
      9 N2          3.6349   -0.6072   -0.2056 N.am      1 <0>        -0.6745
     10 C8          4.7893    0.0798   -0.3150 C.2       1 <0>         0.7085
     11 O1          4.7671    1.2868   -0.4594 O.2       1 <0>        -0.5377
     12 N3          5.9683   -0.5713   -0.2645 N.am      1 <0>        -0.6813
     13 C9          7.1671    0.1505   -0.2732 C.ar      1 <0>         0.2235
     14 C10         7.2341    1.3955    0.3383 C.ar      1 <0>        -0.1431
     15 C11         8.4188    2.1055    0.3280 C.ar      1 <0>         0.0051
     16 C12         9.5374    1.5778   -0.2905 C.ar      1 <0>        -0.6929
     17 C13         9.4739    0.3384   -0.9003 C.ar      1 <0>         0.0053
     18 C14         8.2938   -0.3791   -0.8885 C.ar      1 <0>        -0.1665
     19 S1         11.0467    2.4870   -0.3020 S.o2      1 <0>         2.7033
     20 O2         11.7946    2.0184   -1.4157 O.2       1 <0>        -0.9632
     21 O3         10.6980    3.8549   -0.1397 O.2       1 <0>        -0.9620
     22 N4         11.8919    2.0499    1.0534 N.pl3     1 <0>        -1.2503
     23 H1         -0.9518    1.8634   -0.8649 H         1 <0>         0.1371
     24 H2          1.1162    2.8297   -1.7803 H         1 <0>         0.1370
     25 H3          3.2656    1.6801   -1.4743 H         1 <0>         0.1644
     26 H4         -0.8888   -0.2655    0.3586 H         1 <0>         0.1385
     27 H5          3.6524   -1.5562   -0.0057 H         1 <0>         0.4117
     28 H6          5.9859   -1.5402   -0.2221 H         1 <0>         0.4151
     29 H7          6.3607    1.8084    0.8212 H         1 <0>         0.1488
     30 H8          8.4715    3.0739    0.8031 H         1 <0>         0.1488
     31 H9         10.3492   -0.0709   -1.3828 H         1 <0>         0.1496
     32 H10         8.2461   -1.3492   -1.3608 H         1 <0>         0.1396
     33 H11        11.5188    1.3996    1.6689 H         1 <0>         0.4166
     34 H12        12.7599    2.4443    1.2318 H         1 <0>         0.4215
@<TRIPOS>BOND
     1    1    6 ar
     2    1    2 ar
     3    1   23 1
     4    2    3 ar
     5    2   24 1
     6    3    4 ar
     7    3   25 1
     8    4    5 ar
     9    4    9 1
    10    5    6 ar
    11    5    7 1
    12    6   26 1
    13    7    8 3
    14    9   10 am
    15    9   27 1
    16   10   11 2
    17   10   12 am
    18   12   13 1
    19   12   28 1
    20   13   18 ar
    21   13   14 ar
    22   14   15 ar
    23   14   29 1
    24   15   16 ar
    25   15   30 1
    26   16   17 ar
    27   16   19 1
    28   17   18 ar
    29   17   31 1
    30   18   32 1
    31   19   20 2
    32   19   21 2
    33   19   22 1
    34   22   33 1
    35   22   34 1
@<TRIPOS>MOLECULE
ZINC51355960
   40    41     0     0     0
SMALL
USER_CHARGES

@<TRIPOS>ATOM
      1 C1         -1.3552    1.3626    0.2425 C.3       1 <0>        -0.1166
      2 C2         -0.9110   -0.0721    0.1182 C.ar      1 <0>        -0.0687
      3 C3         -1.0799   -0.7466   -1.0752 C.ar      1 <0>        -0.1358
      4 C4         -0.6712   -2.0669   -1.1898 C.ar      1 <0>         0.1214
      5 C5         -0.0921   -2.7110   -0.1059 C.ar      1 <0>        -0.1946
      6 C6          0.0777   -2.0378    1.0875 C.ar      1 <0>        -0.0744
      7 C7         -0.3269   -0.7144    1.2014 C.ar      1 <0>         0.1153
      8 N1         -0.1501   -0.0289    2.4109 N.am      1 <0>        -0.6722
      9 C8         -0.2342   -0.6932    3.5805 C.2       1 <0>         0.7045
     10 O1         -0.3805   -1.9003    3.5850 O.2       1 <0>        -0.5501
     11 N2         -0.1562   -0.0195    4.7453 N.am      1 <0>        -0.6845
     12 C9         -0.1354   -0.7181    5.9576 C.ar      1 <0>         0.2277
     13 C10        -0.7380   -0.1744    7.0844 C.ar      1 <0>        -0.1686
     14 C11        -0.7157   -0.8664    8.2794 C.ar      1 <0>         0.0050
     15 C12        -0.0938   -2.0992    8.3548 C.ar      1 <0>        -0.6947
     16 C13         0.5071   -2.6433    7.2345 C.ar      1 <0>         0.0044
     17 C14         0.4829   -1.9591    6.0350 C.ar      1 <0>        -0.1433
     18 S1         -0.0666   -2.9783    9.8816 S.o2      1 <0>         2.7039
     19 O2          1.0486   -3.8571    9.8243 O.2       1 <0>        -0.9635
     20 O3         -0.2217   -2.0104   10.9103 O.2       1 <0>        -0.9643
     21 N3         -1.4195   -3.9323    9.9214 N.pl3     1 <0>        -1.2505
     22 O4         -0.8385   -2.7306   -2.3647 O.3       1 <0>        -0.3172
     23 C15        -0.3948   -4.0882   -2.4119 C.3       1 <0>         0.0262
     24 H1         -0.5354    2.0226   -0.0411 H         1 <0>         0.0760
     25 H2         -2.2067    1.5376   -0.4150 H         1 <0>         0.0762
     26 H3         -1.6447    1.5653    1.2737 H         1 <0>         0.0646
     27 H4         -1.5306   -0.2457   -1.9192 H         1 <0>         0.1363
     28 H5          0.2256   -3.7393   -0.1957 H         1 <0>         0.1325
     29 H6          0.5281   -2.5394    1.9313 H         1 <0>         0.1471
     30 H7          0.0329    0.9237    2.4062 H         1 <0>         0.4092
     31 H8         -0.1145    0.9496    4.7432 H         1 <0>         0.4136
     32 H9         -1.2232    0.7887    7.0264 H         1 <0>         0.1388
     33 H10        -1.1842   -0.4441    9.1561 H         1 <0>         0.1488
     34 H11         0.9923   -3.6062    7.2966 H         1 <0>         0.1476
     35 H12         0.9485   -2.3867    5.1593 H         1 <0>         0.1472
     36 H13        -2.0418   -3.9228    9.1774 H         1 <0>         0.4172
     37 H14        -1.5898   -4.5007   10.6888 H         1 <0>         0.4212
     38 H15         0.6742   -4.1285   -2.2024 H         1 <0>         0.0564
     39 H16        -0.9335   -4.6727   -1.6660 H         1 <0>         0.0566
     40 H17        -0.5865   -4.4988   -3.4032 H         1 <0>         0.1015
@<TRIPOS>BOND
     1    1    2 1
     2    1   24 1
     3    1   25 1
     4    1   26 1
     5    2    7 ar
     6    2    3 ar
     7    3    4 ar
     8    3   27 1
     9    4    5 ar
    10    4   22 1
    11    5    6 ar
    12    5   28 1
    13    6    7 ar
    14    6   29 1
    15    7    8 1
    16    8    9 am
    17    8   30 1
    18    9   10 2
    19    9   11 am
    20   11   12 1
    21   11   31 1
    22   12   17 ar
    23   12   13 ar
    24   13   14 ar
    25   13   32 1
    26   14   15 ar
    27   14   33 1
    28   15   16 ar
    29   15   18 1
    30   16   17 ar
    31   16   34 1
    32   17   35 1
    33   18   19 2
    34   18   20 2
    35   18   21 1
    36   21   36 1
    37   21   37 1
    38   22   23 1
    39   23   38 1
    40   23   39 1
    41   23   40 1
@<TRIPOS>MOLECULE
ZINC10407901
   44    47     0     0     0
SMALL
USER_CHARGES

@<TRIPOS>ATOM
      1 C1          1.8026    2.6924   -2.0221 C.ar      1 <0>        -0.1122
      2 C2          1.0831    1.9829   -1.0772 C.ar      1 <0>        -0.1203
      3 C3          1.5685    0.7887   -0.5867 C.ar      1 <0>        -0.0962
      4 C4          2.7905    0.2920   -1.0448 C.ar      1 <0>        -0.0570
      5 C5          3.5070    1.0130   -1.9961 C.ar      1 <0>        -0.0900
      6 C6          3.0142    2.2063   -2.4804 C.ar      1 <0>        -0.1015
      7 C7          4.7693    0.2422   -2.2954 C.3       1 <0>        -0.0445
      8 C8          4.7189   -0.9929   -1.4295 C.ar      1 <0>        -0.0677
      9 C9          3.5357   -0.9426   -0.6956 C.ar      1 <0>        -0.0699
     10 C10         3.2354   -1.9754    0.1953 C.ar      1 <0>        -0.0735
     11 C11         4.1055   -3.0336    0.3438 C.ar      1 <0>        -0.1423
     12 C12         5.2841   -3.0774   -0.3908 C.ar      1 <0>         0.1658
     13 C13         5.5870   -2.0512   -1.2786 C.ar      1 <0>        -0.1012
     14 N1          6.1650   -4.1525   -0.2370 N.am      1 <0>        -0.6761
     15 C14         7.4934   -3.9573   -0.3542 C.2       1 <0>         0.7040
     16 O1          7.9321   -2.8327   -0.4998 O.2       1 <0>        -0.5443
     17 N2          8.3355   -5.0087   -0.3101 N.am      1 <0>        -0.6834
     18 C15         9.7188   -4.7981   -0.3227 C.ar      1 <0>         0.2266
     19 C16        10.2566   -3.6707    0.2840 C.ar      1 <0>        -0.1441
     20 C17        11.6224   -3.4660    0.2703 C.ar      1 <0>         0.0049
     21 C18        12.4542   -4.3823   -0.3468 C.ar      1 <0>        -0.6945
     22 C19        11.9218   -5.5058   -0.9522 C.ar      1 <0>         0.0052
     23 C20        10.5573   -5.7191   -0.9369 C.ar      1 <0>        -0.1688
     24 S1         14.1961   -4.1175   -0.3621 S.o2      1 <0>         2.7030
     25 O2         14.7069   -4.8394   -1.4744 O.2       1 <0>        -0.9638
     26 O3         14.3958   -2.7194   -0.2045 O.2       1 <0>        -0.9625
     27 N3         14.8131   -4.8396    0.9945 N.pl3     1 <0>        -1.2503
     28 H1          1.4159    3.6249   -2.4058 H         1 <0>         0.1277
     29 H2          0.1378    2.3658   -0.7219 H         1 <0>         0.1267
     30 H3          1.0040    0.2383    0.1514 H         1 <0>         0.1226
     31 H4          3.5741    2.7617   -3.2183 H         1 <0>         0.1257
     32 H5          4.7969   -0.0385   -3.3482 H         1 <0>         0.1018
     33 H6          5.6439    0.8418   -2.0431 H         1 <0>         0.1034
     34 H7          2.3206   -1.9445    0.7686 H         1 <0>         0.1293
     35 H8          3.8709   -3.8309    1.0335 H         1 <0>         0.1311
     36 H9          6.5026   -2.0844   -1.8504 H         1 <0>         0.1391
     37 H10         5.8200   -5.0387   -0.0459 H         1 <0>         0.4115
     38 H11         7.9826   -5.9113   -0.2696 H         1 <0>         0.4139
     39 H12         9.6075   -2.9545    0.7658 H         1 <0>         0.1482
     40 H13        12.0413   -2.5892    0.7416 H         1 <0>         0.1479
     41 H14        12.5740   -6.2194   -1.4336 H         1 <0>         0.1489
     42 H15        10.1425   -6.5992   -1.4057 H         1 <0>         0.1390
     43 H16        14.2213   -5.2966    1.6124 H         1 <0>         0.4165
     44 H17        15.7663   -4.8056    1.1711 H         1 <0>         0.4213
@<TRIPOS>BOND
     1    1    6 ar
     2    1    2 ar
     3    1   28 1
     4    2    3 ar
     5    2   29 1
     6    3    4 ar
     7    3   30 1
     8    4    9 1
     9    4    5 ar
    10    5    6 ar
    11    5    7 1
    12    6   31 1
    13    7    8 1
    14    7   32 1
    15    7   33 1
    16    8   13 ar
    17    8    9 ar
    18    9   10 ar
    19   10   11 ar
    20   10   34 1
    21   11   12 ar
    22   11   35 1
    23   12   13 ar
    24   12   14 1
    25   13   36 1
    26   14   15 am
    27   14   37 1
    28   15   16 2
    29   15   17 am
    30   17   18 1
    31   17   38 1
    32   18   23 ar
    33   18   19 ar
    34   19   20 ar
    35   19   39 1
    36   20   21 ar
    37   20   40 1
    38   21   22 ar
    39   21   24 1
    40   22   23 ar
    41   22   41 1
    42   23   42 1
    43   24   25 2
    44   24   26 2
    45   24   27 1
    46   27   43 1
    47   27   44 1
@<TRIPOS>MOLECULE
ZINC18172548
   39    40     0     0     0
SMALL
USER_CHARGES

@<TRIPOS>ATOM
      1 C1         -0.9835   -2.1820   -2.3483 C.3       1 <0>        -0.1152
      2 C2         -0.2022   -1.7692   -1.1275 C.ar      1 <0>        -0.0615
      3 C3          0.6690   -0.6975   -1.1949 C.ar      1 <0>        -0.1343
      4 C4          1.3878   -0.3155   -0.0770 C.ar      1 <0>        -0.0604
      5 C5          1.2374   -1.0039    1.1108 C.ar      1 <0>        -0.1260
      6 C6          0.3630   -2.0804    1.1819 C.ar      1 <0>         0.1650
      7 C7         -0.3613   -2.4582    0.0589 C.ar      1 <0>        -0.1517
      8 N1          0.2085   -2.7800    2.3839 N.am      1 <0>        -0.6778
      9 C8          0.3108   -2.1298    3.5600 C.2       1 <0>         0.7040
     10 O1          0.4434   -0.9213    3.5771 O.2       1 <0>        -0.5447
     11 N2          0.2663   -2.8192    4.7173 N.am      1 <0>        -0.6841
     12 C9          0.2634   -2.1365    5.9388 C.ar      1 <0>         0.2271
     13 C10        -0.3580   -0.8989    6.0427 C.ar      1 <0>        -0.1442
     14 C11        -0.3591   -0.2276    7.2497 C.ar      1 <0>         0.0049
     15 C12         0.2581   -0.7863    8.3538 C.ar      1 <0>        -0.6948
     16 C13         0.8777   -2.0184    8.2536 C.ar      1 <0>         0.0052
     17 C14         0.8770   -2.6976    7.0510 C.ar      1 <0>        -0.1692
     18 S1          0.2554    0.0740    9.8915 S.o2      1 <0>         2.7032
     19 O2          1.3692   -0.4100   10.6296 O.2       1 <0>        -0.9638
     20 O3          0.0843    1.4512    9.5862 O.2       1 <0>        -0.9626
     21 N3         -1.1005   -0.4002   10.7155 N.pl3     1 <0>        -1.2503
     22 C15         2.3365    0.8528   -0.1551 C.3       1 <0>        -0.1157
     23 H1         -1.9303   -1.6426   -2.3732 H         1 <0>         0.0726
     24 H2         -0.4083   -1.9480   -3.2441 H         1 <0>         0.0692
     25 H3         -1.1770   -3.2540   -2.3104 H         1 <0>         0.0669
     26 H4          0.7886   -0.1578   -2.1227 H         1 <0>         0.1243
     27 H5          1.7996   -0.7056    1.9834 H         1 <0>         0.1353
     28 H6         -1.0452   -3.2923    0.1121 H         1 <0>         0.1248
     29 H7          0.0277   -3.7329    2.3707 H         1 <0>         0.4098
     30 H8          0.2363   -3.7887    4.7034 H         1 <0>         0.4135
     31 H9         -0.8396   -0.4618    5.1805 H         1 <0>         0.1480
     32 H10        -0.8422    0.7349    7.3311 H         1 <0>         0.1478
     33 H11         1.3592   -2.4519    9.1177 H         1 <0>         0.1488
     34 H12         1.3573   -3.6619    6.9745 H         1 <0>         0.1389
     35 H13        -1.7092   -1.0428   10.3188 H         1 <0>         0.4165
     36 H14        -1.2860   -0.0353   11.5949 H         1 <0>         0.4212
     37 H15         1.8048    1.7701    0.0978 H         1 <0>         0.0738
     38 H16         3.1563    0.7026    0.5473 H         1 <0>         0.0671
     39 H17         2.7344    0.9307   -1.1668 H         1 <0>         0.0685
@<TRIPOS>BOND
     1    1    2 1
     2    1   23 1
     3    1   24 1
     4    1   25 1
     5    2    7 ar
     6    2    3 ar
     7    3    4 ar
     8    3   26 1
     9    4    5 ar
    10    4   22 1
    11    5    6 ar
    12    5   27 1
    13    6    7 ar
    14    6    8 1
    15    7   28 1
    16    8    9 am
    17    8   29 1
    18    9   10 2
    19    9   11 am
    20   11   12 1
    21   11   30 1
    22   12   17 ar
    23   12   13 ar
    24   13   14 ar
    25   13   31 1
    26   14   15 ar
    27   14   32 1
    28   15   16 ar
    29   15   18 1
    30   16   17 ar
    31   16   33 1
    32   17   34 1
    33   18   19 2
    34   18   20 2
    35   18   21 1
    36   21   35 1
    37   21   36 1
    38   22   37 1
    39   22   38 1
    40   22   39 1
@<TRIPOS>MOLECULE
ZINC12914717
   40    42     0     0     0
SMALL
USER_CHARGES

@<TRIPOS>ATOM
      1 C1          0.9623   -0.4508   -1.2222 C.ar      1 <0>        -0.1438
      2 C2          2.1333    0.2611   -1.3937 C.ar      1 <0>         0.0047
      3 C3          2.3523    1.4194   -0.6708 C.ar      1 <0>        -0.6947
      4 C4          1.4000    1.8690    0.2255 C.ar      1 <0>         0.0050
      5 C5          0.2267    1.1619    0.4013 C.ar      1 <0>        -0.1689
      6 C6          0.0040   -0.0019   -0.3229 C.ar      1 <0>         0.2269
      7 N1         -1.1835   -0.7209   -0.1468 N.am      1 <0>        -0.6840
      8 C7         -1.1812   -2.0640   -0.2593 C.2       1 <0>         0.7043
      9 O1         -0.1329   -2.6587   -0.4201 O.2       1 <0>        -0.5452
     10 N2         -2.3407   -2.7478   -0.1936 N.am      1 <0>        -0.6767
     11 C8         -2.3293   -4.1470   -0.2014 C.ar      1 <0>         0.1575
     12 C9         -1.2801   -4.8384    0.3902 C.ar      1 <0>        -0.1173
     13 C10        -1.2739   -6.2181    0.3796 C.ar      1 <0>        -0.0863
     14 C11        -2.3097   -6.9175   -0.2187 C.ar      1 <0>        -0.1087
     15 C12        -3.3557   -6.2319   -0.8087 C.ar      1 <0>        -0.0781
     16 C13        -3.3687   -4.8482   -0.7952 C.ar      1 <0>        -0.1316
     17 C14        -4.3506   -7.2155   -1.3869 C.3       1 <0>        -0.0820
     18 C15        -3.5899   -8.5556   -1.4737 C.3       1 <0>        -0.1213
     19 C16        -2.5312   -8.4084   -0.3604 C.3       1 <0>        -0.0828
     20 S1          3.8481    2.3241   -0.8917 S.o2      1 <0>         2.7034
     21 O2          4.0491    3.0734    0.2988 O.2       1 <0>        -0.9639
     22 O3          4.8113    1.4024   -1.3834 O.2       1 <0>        -0.9626
     23 N3          3.5821    3.4218   -2.1027 N.pl3     1 <0>        -1.2504
     24 H1          0.7901   -1.3531   -1.7901 H         1 <0>         0.1480
     25 H2          2.8790   -0.0874   -2.0929 H         1 <0>         0.1478
     26 H3          1.5741    2.7738    0.7889 H         1 <0>         0.1488
     27 H4         -0.5165    1.5133    1.1016 H         1 <0>         0.1389
     28 H5         -2.0084   -0.2527    0.0563 H         1 <0>         0.4136
     29 H6         -3.1832   -2.2699   -0.1409 H         1 <0>         0.4097
     30 H7         -0.4705   -4.2973    0.8573 H         1 <0>         0.1374
     31 H8         -0.4577   -6.7555    0.8395 H         1 <0>         0.1254
     32 H9         -4.1881   -4.3127   -1.2517 H         1 <0>         0.1237
     33 H10        -5.2133   -7.3123   -0.7278 H         1 <0>         0.0818
     34 H11        -4.6662   -6.8948   -2.3797 H         1 <0>         0.0758
     35 H12        -4.2560   -9.3933   -1.2667 H         1 <0>         0.0782
     36 H13        -3.1145   -8.6689   -2.4479 H         1 <0>         0.0733
     37 H14        -1.6044   -8.9024   -0.6521 H         1 <0>         0.0759
     38 H15        -2.9051   -8.8257    0.5746 H         1 <0>         0.0807
     39 H16         2.7159    3.4642   -2.5372 H         1 <0>         0.4165
     40 H17         4.2924    4.0225   -2.3774 H         1 <0>         0.4212
@<TRIPOS>BOND
     1    1    6 ar
     2    1    2 ar
     3    1   24 1
     4    2    3 ar
     5    2   25 1
     6    3    4 ar
     7    3   20 1
     8    4    5 ar
     9    4   26 1
    10    5    6 ar
    11    5   27 1
    12    6    7 1
    13    7    8 am
    14    7   28 1
    15    8    9 2
    16    8   10 am
    17   10   11 1
    18   10   29 1
    19   11   16 ar
    20   11   12 ar
    21   12   13 ar
    22   12   30 1
    23   13   14 ar
    24   13   31 1
    25   14   19 1
    26   14   15 ar
    27   15   16 ar
    28   15   17 1
    29   16   32 1
    30   17   18 1
    31   17   33 1
    32   17   34 1
    33   18   19 1
    34   18   35 1
    35   18   36 1
    36   19   37 1
    37   19   38 1
    38   20   21 2
    39   20   22 2
    40   20   23 1
    41   23   39 1
    42   23   40 1
@<TRIPOS>MOLECULE
ZINC00006787
   29    30     0     0     0
SMALL
USER_CHARGES

@<TRIPOS>ATOM
      1 C1         -0.0169    1.3936    0.0097 C.ar      1 <0>        -0.0880
      2 C2          1.1682    2.0965    0.0022 C.ar      1 <0>        -0.1444
      3 C3          2.3804    1.4185   -0.0131 C.ar      1 <0>         0.1088
      4 C4          2.4043    0.0297   -0.0212 C.ar      1 <0>        -0.1437
      5 C5          1.2244   -0.6820   -0.0142 C.ar      1 <0>        -0.0943
      6 C6          0.0021   -0.0041    0.0020 C.ar      1 <0>        -0.0701
      7 C7         -1.2624   -0.7604    0.0105 C.2       1 <0>        -0.0946
      8 C8         -1.2417   -2.1029    0.0031 C.2       1 <0>        -0.1125
      9 C9         -2.5067   -2.8595    0.0116 C.ar      1 <0>        -0.0208
     10 C10        -3.7282   -2.1821    0.0216 C.ar      1 <0>        -0.1505
     11 C11        -4.9138   -2.8974    0.0296 C.ar      1 <0>         0.1270
     12 C12        -4.8898   -4.2848    0.0277 C.ar      1 <0>        -0.1731
     13 C13        -3.6788   -4.9623    0.0183 C.ar      1 <0>         0.1263
     14 C14        -2.4878   -4.2561    0.0039 C.ar      1 <0>        -0.1438
     15 O1         -3.6617   -6.3213    0.0174 O.3       1 <0>        -0.4960
     16 O2         -6.1029   -2.2395    0.0398 O.3       1 <0>        -0.4960
     17 O3          3.5463    2.1158   -0.0204 O.3       1 <0>        -0.4996
     18 H1         -0.9588    1.9217    0.0260 H         1 <0>         0.1307
     19 H2          1.1546    3.1764    0.0077 H         1 <0>         0.1317
     20 H3          3.3492   -0.4932   -0.0334 H         1 <0>         0.1314
     21 H4          1.2440   -1.7618   -0.0209 H         1 <0>         0.1307
     22 H5         -2.2059   -0.2349    0.0227 H         1 <0>         0.1259
     23 H6         -0.2983   -2.6284   -0.0091 H         1 <0>         0.1276
     24 H7         -3.7479   -1.1023    0.0234 H         1 <0>         0.1351
     25 H8         -5.8166   -4.8392    0.0340 H         1 <0>         0.1362
     26 H9         -1.5459   -4.7843   -0.0083 H         1 <0>         0.1350
     27 H10        -3.6634   -6.7141   -0.8663 H         1 <0>         0.3942
     28 H11        -6.4539   -2.0477   -0.8406 H         1 <0>         0.3942
     29 H12         3.8923    2.3129    0.8608 H         1 <0>         0.3928
@<TRIPOS>BOND
     1    1    6 ar
     2    1    2 ar
     3    1   18 1
     4    2    3 ar
     5    2   19 1
     6    3    4 ar
     7    3   17 1
     8    4    5 ar
     9    4   20 1
    10    5    6 ar
    11    5   21 1
    12    6    7 1
    13    7    8 2
    14    7   22 1
    15    8    9 1
    16    8   23 1
    17    9   14 ar
    18    9   10 ar
    19   10   11 ar
    20   10   24 1
    21   11   12 ar
    22   11   16 1
    23   12   13 ar
    24   12   25 1
    25   13   14 ar
    26   13   15 1
    27   14   26 1
    28   15   27 1
    29   16   28 1
    30   17   29 1
@<TRIPOS>MOLECULE
ZINC13013704
   20    20     0     0     0
SMALL
USER_CHARGES
1-cyano-4-(sulfamoylamino)benzene
@<TRIPOS>ATOM
      1 C1          0.2145    1.4479   -0.0137 C.ar      1 <0>        -0.0587
      2 C2          0.1427    0.0735    0.0108 C.ar      1 <0>        -0.1019
      3 C3          1.3070   -0.6869   -0.0455 C.ar      1 <0>         0.1466
      4 C4          2.5474   -0.0610   -0.1268 C.ar      1 <0>        -0.1203
      5 C5          2.6265    1.3130   -0.1522 C.ar      1 <0>        -0.0617
      6 C6          1.4589    2.0799   -0.0958 C.ar      1 <0>        -0.0168
      7 C7          1.5374    3.5095   -0.1220 C.1       1 <0>         0.2472
      8 N1          1.5996    4.6436   -0.1427 N.1       1 <0>        -0.4035
      9 N2          1.2307   -2.0764   -0.0201 N.pl3     1 <0>        -1.0698
     10 S1          0.7370   -2.9034   -1.3672 S.o2      1 <0>         2.7967
     11 O1          0.7814   -4.2843   -1.0350 O.2       1 <0>        -0.9740
     12 O2         -0.4494   -2.2671   -1.8222 O.2       1 <0>        -0.9701
     13 N3          1.8829   -2.6611   -2.5379 N.pl3     1 <0>        -1.2588
     14 H1         -0.6896    2.0373    0.0259 H         1 <0>         0.1429
     15 H2         -0.8183   -0.4153    0.0742 H         1 <0>         0.1476
     16 H3          3.4490   -0.6540   -0.1697 H         1 <0>         0.1425
     17 H4          3.5894    1.7980   -0.2156 H         1 <0>         0.1420
     18 H5          1.4668   -2.5604    0.7867 H         1 <0>         0.4313
     19 H6          2.6952   -2.1743   -2.3280 H         1 <0>         0.4149
     20 H7          1.7418   -3.0059   -3.4334 H         1 <0>         0.4236
@<TRIPOS>BOND
     1    1    6 ar
     2    1    2 ar
     3    1   14 1
     4    2    3 ar
     5    2   15 1
     6    3    4 ar
     7    3    9 1
     8    4    5 ar
     9    4   16 1
    10    5    6 ar
    11    5   17 1
    12    6    7 1
    13    7    8 3
    14    9   10 1
    15    9   18 1
    16   10   11 2
    17   10   12 2
    18   10   13 1
    19   13   19 1
    20   13   20 1
@<TRIPOS>MOLECULE
ZINC00388251
   20    20     0     0     0
SMALL
USER_CHARGES
1,2-dimethoxybenzene
@<TRIPOS>ATOM
      1 C1         -1.1456    3.4806    0.0264 C.3       1 <0>         0.0258
      2 O1         -1.2028    2.0527    0.0189 O.3       1 <0>        -0.3075
      3 C2         -0.0168    1.3873    0.0097 C.ar      1 <0>         0.0976
      4 C3          1.1755    2.0934    0.0021 C.ar      1 <0>        -0.1734
      5 C4          2.3801    1.4154   -0.0135 C.ar      1 <0>        -0.1173
      6 C5          2.3989    0.0331   -0.0207 C.ar      1 <0>        -0.1173
      7 C6          1.2130   -0.6774   -0.0132 C.ar      1 <0>        -0.1734
      8 C7          0.0021   -0.0041    0.0020 C.ar      1 <0>         0.0976
      9 O2         -1.1654   -0.7015    0.0090 O.3       1 <0>        -0.3075
     10 C8         -1.0695   -2.1272    0.0004 C.3       1 <0>         0.0258
     11 H1         -0.6134    3.8182    0.9157 H         1 <0>         0.0551
     12 H2         -0.6218    3.8279   -0.8642 H         1 <0>         0.0551
     13 H3         -2.1578    3.8847    0.0334 H         1 <0>         0.1014
     14 H4          1.1636    3.1733    0.0076 H         1 <0>         0.1354
     15 H5          3.3087    1.9669   -0.0201 H         1 <0>         0.1278
     16 H6          3.3421   -0.4929   -0.0325 H         1 <0>         0.1278
     17 H7          1.2304   -1.7572   -0.0195 H         1 <0>         0.1354
     18 H8         -0.5243   -2.4600    0.8837 H         1 <0>         0.0551
     19 H9         -2.0704   -2.5588    0.0073 H         1 <0>         0.1014
     20 H10        -0.5406   -2.4504   -0.8962 H         1 <0>         0.0551
@<TRIPOS>BOND
     1    1    2 1
     2    1   11 1
     3    1   12 1
     4    1   13 1
     5    2    3 1
     6    3    8 ar
     7    3    4 ar
     8    4    5 ar
     9    4   14 1
    10    5    6 ar
    11    5   15 1
    12    6    7 ar
    13    6   16 1
    14    7    8 ar
    15    7   17 1
    16    8    9 1
    17    9   10 1
    18   10   18 1
    19   10   19 1
    20   10   20 1
@<TRIPOS>MOLECULE
ZINC00388747
   20    20     0     0     0
SMALL
USER_CHARGES

@<TRIPOS>ATOM
      1 C1         -0.0173    1.4248    0.0099 C.3       1 <0>         0.0266
      2 O1          0.0021   -0.0041    0.0020 O.3       1 <0>        -0.3185
      3 C2          0.6062   -0.6075   -1.0563 C.ar      1 <0>         0.0905
      4 C3          1.1728    0.1612   -2.0622 C.ar      1 <0>        -0.1681
      5 C4          1.7864   -0.4517   -3.1373 C.ar      1 <0>        -0.1120
      6 C5          1.8363   -1.8358   -3.2107 C.ar      1 <0>         0.0905
      7 C6          1.2705   -2.6045   -2.2044 C.ar      1 <0>        -0.1681
      8 C7          0.6606   -1.9916   -1.1272 C.ar      1 <0>        -0.1120
      9 O2          2.4396   -2.4392   -4.2695 O.3       1 <0>        -0.3185
     10 C8          2.4542   -3.8681   -4.2801 C.3       1 <0>         0.0266
     11 H1          1.0053    1.8021    0.0021 H         1 <0>         0.0553
     12 H2         -0.5445    1.7859   -0.8732 H         1 <0>         0.0554
     13 H3         -0.5275    1.7763    0.9067 H         1 <0>         0.1007
     14 H4          1.1340    1.2390   -2.0050 H         1 <0>         0.1355
     15 H5          2.2270    0.1469   -3.9209 H         1 <0>         0.1344
     16 H6          1.3090   -3.6823   -2.2617 H         1 <0>         0.1356
     17 H7          0.2233   -2.5901   -0.3417 H         1 <0>         0.1344
     18 H8          2.9642   -4.2196   -5.1770 H         1 <0>         0.1007
     19 H9          2.9791   -4.2327   -3.3971 H         1 <0>         0.0554
     20 H10         1.4303   -4.2420   -4.2743 H         1 <0>         0.0553
@<TRIPOS>BOND
     1    1    2 1
     2    1   11 1
     3    1   12 1
     4    1   13 1
     5    2    3 1
     6    3    8 ar
     7    3    4 ar
     8    4    5 ar
     9    4   14 1
    10    5    6 ar
    11    5   15 1
    12    6    7 ar
    13    6    9 1
    14    7    8 ar
    15    7   16 1
    16    8   17 1
    17    9   10 1
    18   10   18 1
    19   10   19 1
    20   10   20 1
@<TRIPOS>MOLECULE
ZINC00391982
   24    24     0     0     0
SMALL
USER_CHARGES

@<TRIPOS>ATOM
      1 C1         -0.0173    1.4248    0.0099 C.3       1 <0>         0.0270
      2 O1          0.0021   -0.0041    0.0020 O.3       1 <0>        -0.3163
      3 C2         -1.2010   -0.6378    0.0101 C.ar      1 <0>         0.1325
      4 C3         -2.3741    0.1021    0.0195 C.ar      1 <0>        -0.2065
      5 C4         -3.5982   -0.5399    0.0282 C.ar      1 <0>        -0.1323
      6 C5         -3.6558   -1.9240    0.0271 C.ar      1 <0>         0.0634
      7 C6         -2.4804   -2.6684    0.0171 C.ar      1 <0>         0.1400
      8 C7         -1.2543   -2.0234    0.0032 C.ar      1 <0>        -0.2076
      9 O2         -2.5350   -4.0272    0.0164 O.3       1 <0>        -0.3010
     10 C8         -1.2888   -4.7265    0.0059 C.3       1 <0>         0.0234
     11 O3         -4.8612   -2.5552    0.0361 O.3       1 <0>        -0.3069
     12 C9         -6.0266   -1.7282    0.0465 C.3       1 <0>         0.0264
     13 H1          1.0053    1.8021    0.0021 H         1 <0>         0.1015
     14 H2         -0.5445    1.7859   -0.8732 H         1 <0>         0.0564
     15 H3         -0.5275    1.7763    0.9067 H         1 <0>         0.0565
     16 H4         -2.3310    1.1812    0.0205 H         1 <0>         0.1335
     17 H5         -4.5105    0.0381    0.0363 H         1 <0>         0.1390
     18 H6         -0.3408   -2.5994   -0.0090 H         1 <0>         0.1445
     19 H7         -0.7275   -4.4554   -0.8883 H         1 <0>         0.0574
     20 H8         -0.7135   -4.4570    0.8916 H         1 <0>         0.0574
     21 H9         -1.4749   -5.8005    0.0064 H         1 <0>         0.1031
     22 H10        -6.0327   -1.0978   -0.8427 H         1 <0>         0.0537
     23 H11        -6.9176   -2.3560    0.0529 H         1 <0>         0.1009
     24 H12        -6.0183   -1.0999    0.9372 H         1 <0>         0.0537
@<TRIPOS>BOND
     1    1    2 1
     2    1   13 1
     3    1   14 1
     4    1   15 1
     5    2    3 1
     6    3    8 ar
     7    3    4 ar
     8    4    5 ar
     9    4   16 1
    10    5    6 ar
    11    5   17 1
    12    6    7 ar
    13    6   11 1
    14    7    8 ar
    15    7    9 1
    16    8   18 1
    17    9   10 1
    18   10   19 1
    19   10   20 1
    20   10   21 1
    21   11   12 1
    22   12   22 1
    23   12   23 1
    24   12   24 1
@<TRIPOS>MOLECULE
ZINC00896918
   22    22     0     0     0
SMALL
USER_CHARGES

@<TRIPOS>ATOM
      1 C1         -0.0167    1.3778    0.0096 C.ar      1 <0>         0.0974
      2 C2          1.1707    2.0862    0.0021 C.ar      1 <0>        -0.6868
      3 C3          2.3777    1.4131   -0.0135 C.ar      1 <0>         0.0588
      4 C4          2.3983    0.0299   -0.0210 C.ar      1 <0>        -0.0734
      5 C5          1.2094   -0.6794   -0.0130 C.ar      1 <0>         0.1016
      6 C6          0.0021   -0.0041    0.0020 C.ar      1 <0>        -0.6843
      7 S1         -1.5117   -0.9057    0.0122 S.o2      1 <0>         2.7000
      8 O1         -1.3921   -1.8888    1.0313 O.2       1 <0>        -0.9349
      9 O2         -2.5575    0.0562    0.0006 O.2       1 <0>        -0.9450
     10 N1         -1.6044   -1.7230   -1.4251 N.pl3     1 <0>        -1.2435
     11 Cl1         1.2335   -2.4152   -0.0231 Cl        1 <0>         0.0087
     12 Cl2         3.9142   -0.8161   -0.0412 Cl        1 <0>        -0.0140
     13 S2          1.1451    3.8480    0.0117 S.o2      1 <0>         2.7054
     14 O3          2.3791    4.2752   -0.5486 O.2       1 <0>        -0.9481
     15 O4         -0.1113    4.2388   -0.5251 O.2       1 <0>        -0.9447
     16 N2          1.1530    4.3291    1.5963 N.pl3     1 <0>        -1.2462
     17 H1         -0.9593    1.9047    0.0259 H         1 <0>         0.1825
     18 H2          3.3048    1.9671   -0.0201 H         1 <0>         0.1751
     19 H3         -0.8907   -1.6407   -2.0768 H         1 <0>         0.4176
     20 H4         -2.3725   -2.2840   -1.6154 H         1 <0>         0.4278
     21 H5          1.1694    3.6663    2.3043 H         1 <0>         0.4190
     22 H6          1.1413    5.2737    1.8164 H         1 <0>         0.4268
@<TRIPOS>BOND
     1    1    6 ar
     2    1    2 ar
     3    1   17 1
     4    2    3 ar
     5    2   13 1
     6    3    4 ar
     7    3   18 1
     8    4    5 ar
     9    4   12 1
    10    5    6 ar
    11    5   11 1
    12    6    7 1
    13    7    8 2
    14    7    9 2
    15    7   10 1
    16   10   19 1
    17   10   20 1
    18   13   14 2
    19   13   15 2
    20   13   16 1
    21   16   21 1
    22   16   22 1
@<TRIPOS>MOLECULE
ZINC28098746
   22    22     0     0     0
SMALL
USER_CHARGES

@<TRIPOS>ATOM
      1 C1         -0.0178    1.4608    0.0101 C.3       1 <0>         0.0841
      2 N1          0.0021   -0.0041    0.0020 N.pl3     1 <0>        -0.7413
      3 C2          0.6063   -0.6885   -1.0550 C.ar      1 <0>         0.2676
      4 C3          1.1938    0.0182   -2.0966 C.ar      1 <0>        -0.2183
      5 C4          1.7908   -0.6616   -3.1400 C.ar      1 <0>         0.0293
      6 C5          1.8036   -2.0444   -3.1489 C.ar      1 <0>        -0.7331
      7 C6          1.2196   -2.7511   -2.1136 C.ar      1 <0>         0.0284
      8 C7          0.6260   -2.0774   -1.0643 C.ar      1 <0>        -0.2164
      9 S1          2.5654   -2.9078   -4.4827 S.o2      1 <0>         2.7050
     10 O1          1.9653   -4.1951   -4.5286 O.2       1 <0>        -0.9695
     11 O2          2.5584   -2.0240   -5.5953 O.2       1 <0>        -0.9696
     12 N2          4.1529   -3.1400   -4.0726 N.pl3     1 <0>        -1.2522
     13 H1          1.0048    1.8381    0.0023 H         1 <0>         0.0589
     14 H2         -0.5450    1.8219   -0.8730 H         1 <0>         0.0591
     15 H3         -0.5280    1.8123    0.9069 H         1 <0>         0.0793
     16 H4         -0.4044   -0.4986    0.7308 H         1 <0>         0.4060
     17 H5          1.1835    1.0982   -2.0907 H         1 <0>         0.1323
     18 H6          2.2478   -0.1128   -3.9501 H         1 <0>         0.1417
     19 H7          1.2314   -3.8310   -2.1236 H         1 <0>         0.1421
     20 H8          0.1740   -2.6299   -0.2538 H         1 <0>         0.1315
     21 H9          4.4869   -2.8135   -3.2224 H         1 <0>         0.4159
     22 H10         4.7487   -3.6024   -4.6825 H         1 <0>         0.4194
@<TRIPOS>BOND
     1    1    2 1
     2    1   13 1
     3    1   14 1
     4    1   15 1
     5    2    3 1
     6    2   16 1
     7    3    8 ar
     8    3    4 ar
     9    4    5 ar
    10    4   17 1
    11    5    6 ar
    12    5   18 1
    13    6    7 ar
    14    6    9 1
    15    7    8 ar
    16    7   19 1
    17    8   20 1
    18    9   10 2
    19    9   11 2
    20    9   12 1
    21   12   21 1
    22   12   22 1
@<TRIPOS>MOLECULE
ZINC02506731
   21    21     0     0     0
SMALL
USER_CHARGES

@<TRIPOS>ATOM
      1 C1         -0.0166    1.3766    0.0096 C.ar      1 <0>        -0.0167
      2 C2          1.1707    2.0859    0.0021 C.ar      1 <0>        -0.1925
      3 C3          2.3799    1.4157   -0.0135 C.ar      1 <0>         0.0238
      4 C4          2.4059    0.0347   -0.0211 C.ar      1 <0>        -0.7469
      5 C5          1.2154   -0.6807   -0.0131 C.ar      1 <0>         0.3101
      6 C6          0.0021   -0.0041    0.0020 C.ar      1 <0>        -0.2007
      7 N1          1.2380   -2.0772   -0.0208 N.pl3     1 <0>        -0.5919
      8 N2          0.0663   -2.7793   -0.0129 N.3       1 <0>        -0.5996
      9 S1          3.9474   -0.8184   -0.0415 S.o2      1 <0>         2.7006
     10 O1          3.8584   -1.7934   -1.0714 O.2       1 <0>        -0.9719
     11 O2          4.9622    0.1761   -0.0196 O.2       1 <0>        -0.9615
     12 N3          4.0669   -1.6480    1.3867 N.pl3     1 <0>        -1.2535
     13 H1         -0.9594    1.9032    0.0259 H         1 <0>         0.1328
     14 H2          1.1532    3.1658    0.0080 H         1 <0>         0.1325
     15 H3          3.3052    1.9726   -0.0200 H         1 <0>         0.1458
     16 H4         -0.9254   -0.5574    0.0082 H         1 <0>         0.1375
     17 H5          2.0857   -2.5485   -0.0317 H         1 <0>         0.4056
     18 H6         -0.5220   -2.5097   -0.7871 H         1 <0>         0.3414
     19 H7          0.2402   -3.7732   -0.0199 H         1 <0>         0.3650
     20 H8          3.3512   -1.5955    2.0394 H         1 <0>         0.4182
     21 H9          4.8524   -2.1865    1.5706 H         1 <0>         0.4221
@<TRIPOS>BOND
     1    1    6 ar
     2    1    2 ar
     3    1   13 1
     4    2    3 ar
     5    2   14 1
     6    3    4 ar
     7    3   15 1
     8    4    5 ar
     9    4    9 1
    10    5    6 ar
    11    5    7 1
    12    6   16 1
    13    7    8 1
    14    7   17 1
    15    8   18 1
    16    8   19 1
    17    9   10 2
    18    9   11 2
    19    9   12 1
    20   12   20 1
    21   12   21 1
@<TRIPOS>MOLECULE
ZINC00056721
   26    27     0     0     0
SMALL
USER_CHARGES

@<TRIPOS>ATOM
      1 C1         -0.0187    1.5258    0.0104 C.3       1 <0>        -0.1547
      2 C2          0.0021   -0.0041    0.0020 C.3       1 <0>         0.0492
      3 O1          0.6932   -0.4774    1.1597 O.3       1 <0>        -0.3006
      4 C3          0.8020   -1.8247    1.3057 C.ar      1 <0>         0.1921
      5 C4          0.2604   -2.6828    0.3521 C.ar      1 <0>        -0.2018
      6 C5          0.3546   -4.0332    0.4731 C.ar      1 <0>         0.0140
      7 C6          1.0107   -4.6197    1.5806 C.ar      1 <0>        -0.0020
      8 C7          1.5510   -3.7250    2.5328 C.ar      1 <0>        -0.0796
      9 C8          1.4586   -2.3607    2.4030 C.ar      1 <0>        -0.1219
     10 S1          2.2658   -4.8318    3.7244 S.3       1 <0>         0.1249
     11 C9          1.8165   -6.3576    2.9091 C.2       1 <0>        -0.4422
     12 N1          1.1890   -5.9318    1.8469 N.2       1 <0>        -0.3736
     13 S2          2.1387   -8.0154    3.4117 S.o2      1 <0>         2.7381
     14 O2          3.5473   -8.1923    3.3489 O.2       1 <0>        -0.9371
     15 O3          1.3964   -8.2298    4.6043 O.2       1 <0>        -0.9317
     16 N2          1.4848   -9.0116    2.2617 N.pl3     1 <0>        -1.2315
     17 H1          1.0039    1.9031    0.0027 H         1 <0>         0.0693
     18 H2         -0.5459    1.8868   -0.8726 H         1 <0>         0.0837
     19 H3         -0.5289    1.8773    0.9072 H         1 <0>         0.0693
     20 H4         -1.0205   -0.3814    0.0098 H         1 <0>         0.0697
     21 H5          0.5123   -0.3556   -0.8948 H         1 <0>         0.0697
     22 H6         -0.2474   -2.2649   -0.5046 H         1 <0>         0.1477
     23 H7         -0.0778   -4.6673   -0.2867 H         1 <0>         0.1464
     24 H8          1.8895   -1.7116    3.1509 H         1 <0>         0.1511
     25 H9          1.8842   -9.8780    2.0868 H         1 <0>         0.4270
     26 H10         0.7024   -8.7286    1.7631 H         1 <0>         0.4245
@<TRIPOS>BOND
     1    1    2 1
     2    1   17 1
     3    1   18 1
     4    1   19 1
     5    2    3 1
     6    2   20 1
     7    2   21 1
     8    3    4 1
     9    4    9 ar
    10    4    5 ar
    11    5    6 ar
    12    5   22 1
    13    6    7 ar
    14    6   23 1
    15    7   12 1
    16    7    8 ar
    17    8    9 ar
    18    8   10 1
    19    9   24 1
    20   10   11 1
    21   11   12 2
    22   11   13 1
    23   13   14 2
    24   13   15 2
    25   13   16 1
    26   16   25 1
    27   16   26 1
@<TRIPOS>MOLECULE
ZINC13686369
   31    32     0     0     0
SMALL
USER_CHARGES

@<TRIPOS>ATOM
      1 C1         -0.0184    1.5028    0.0103 C.3       1 <0>        -0.1759
      2 C2          0.0021   -0.0041    0.0020 C.2       1 <0>         0.5126
      3 O1          1.0605   -0.5961   -0.0113 O.2       1 <0>        -0.5411
      4 N1         -1.1558   -0.6938    0.0094 N.am      1 <0>        -0.7268
      5 C3         -1.1360   -2.1586    0.0013 C.3       1 <0>         0.1451
      6 H1         -0.2832   -2.5360    0.5656 H         1 <0>         0.1062
      7 C4         -1.1198   -2.6992   -1.4443 C.3       1 <0>        -0.1040
      8 C5         -1.9499   -3.9643   -1.4035 C.ar      1 <0>        -0.0314
      9 C6         -2.0254   -5.0174   -2.2997 C.ar      1 <0>        -0.1257
     10 C7         -2.8672   -6.0834   -2.0502 C.ar      1 <0>        -0.0181
     11 C8         -3.6375   -6.1002   -0.9021 C.ar      1 <0>        -0.6771
     12 C9         -3.5635   -5.0509   -0.0073 C.ar      1 <0>         0.0002
     13 C10        -2.7199   -3.9810   -0.2558 C.ar      1 <0>        -0.1194
     14 C11        -2.4579   -2.7283    0.5582 C.3       1 <0>        -0.0871
     15 S1         -4.7128   -7.4587   -0.5814 S.o2      1 <0>         2.7040
     16 O2         -5.7285   -6.9763    0.2873 O.2       1 <0>        -0.9621
     17 O3         -5.0045   -8.0515   -1.8395 O.2       1 <0>        -0.9593
     18 N2         -3.8458   -8.5769    0.2790 N.pl3     1 <0>        -1.2478
     19 H2          1.0042    1.8801    0.0026 H         1 <0>         0.0944
     20 H3         -0.5455    1.8639   -0.8728 H         1 <0>         0.0896
     21 H4         -0.5286    1.8543    0.9071 H         1 <0>         0.0900
     22 H5         -2.0023   -0.2203    0.0200 H         1 <0>         0.4040
     23 H6         -1.5680   -1.9745   -2.1241 H         1 <0>         0.0941
     24 H7         -0.0990   -2.9263   -1.7518 H         1 <0>         0.0902
     25 H8         -1.4243   -5.0048   -3.1969 H         1 <0>         0.1347
     26 H9         -2.9241   -6.9029   -2.7512 H         1 <0>         0.1465
     27 H10        -4.1655   -5.0648    0.8893 H         1 <0>         0.1424
     28 H11        -2.3482   -2.9753    1.6142 H         1 <0>         0.0904
     29 H12        -3.2672   -2.0115    0.4188 H         1 <0>         0.0916
     30 H13        -4.2966   -9.1581    0.9113 H         1 <0>         0.4224
     31 H14        -2.8871   -8.6506    0.1507 H         1 <0>         0.4176
@<TRIPOS>BOND
     1    1    2 1
     2    1   19 1
     3    1   20 1
     4    1   21 1
     5    2    3 2
     6    2    4 am
     7    4    5 1
     8    4   22 1
     9    5    6 1
    10    5   14 1
    11    5    7 1
    12    7    8 1
    13    7   23 1
    14    7   24 1
    15    8   13 ar
    16    8    9 ar
    17    9   10 ar
    18    9   25 1
    19   10   11 ar
    20   10   26 1
    21   11   12 ar
    22   11   15 1
    23   12   13 ar
    24   12   27 1
    25   13   14 1
    26   14   28 1
    27   14   29 1
    28   15   16 2
    29   15   17 2
    30   15   18 1
    31   18   30 1
    32   18   31 1
@<TRIPOS>MOLECULE
ZINC13686373
   31    32     0     0     0
SMALL
USER_CHARGES

@<TRIPOS>ATOM
      1 C1         -0.0184    1.5028    0.0103 C.3       1 <0>        -0.1757
      2 C2          0.0021   -0.0041    0.0020 C.2       1 <0>         0.5121
      3 O1          1.0605   -0.5961   -0.0113 O.2       1 <0>        -0.5403
      4 N1         -1.1558   -0.6938    0.0094 N.am      1 <0>        -0.7267
      5 C3         -1.1360   -2.1586    0.0013 C.3       1 <0>         0.1446
      6 H1         -0.2942   -2.5298   -0.5832 H         1 <0>         0.1064
      7 C4         -1.0923   -2.7146    1.4405 C.3       1 <0>        -0.1037
      8 C5         -1.9231   -3.9793    1.4019 C.ar      1 <0>        -0.0314
      9 C6         -1.9816   -5.0421    2.2881 C.ar      1 <0>        -0.1257
     10 C7         -2.8281   -6.1054    2.0432 C.ar      1 <0>        -0.0181
     11 C8         -3.6201   -6.1099    0.9100 C.ar      1 <0>        -0.6770
     12 C9         -3.5632   -5.0511    0.0252 C.ar      1 <0>         0.0002
     13 C10        -2.7149   -3.9838    0.2690 C.ar      1 <0>        -0.1195
     14 C11        -2.4684   -2.7224   -0.5363 C.3       1 <0>        -0.0869
     15 S1         -4.7007   -7.4655    0.5947 S.o2      1 <0>         2.7035
     16 O2         -4.9314   -7.4834   -0.8073 O.2       1 <0>        -0.9616
     17 O3         -4.1663   -8.5818    1.2931 O.2       1 <0>        -0.9589
     18 N2         -6.1522   -7.1111    1.3088 N.pl3     1 <0>        -1.2479
     19 H2          1.0042    1.8801    0.0026 H         1 <0>         0.0944
     20 H3         -0.5455    1.8639   -0.8728 H         1 <0>         0.0899
     21 H4         -0.5286    1.8543    0.9071 H         1 <0>         0.0894
     22 H5         -2.0023   -0.2203    0.0200 H         1 <0>         0.4036
     23 H6         -0.0658   -2.9450    1.7259 H         1 <0>         0.0903
     24 H7         -1.5273   -1.9974    2.1364 H         1 <0>         0.0938
     25 H8         -1.3630   -5.0394    3.1733 H         1 <0>         0.1347
     26 H9         -2.8712   -6.9327    2.7360 H         1 <0>         0.1465
     27 H10        -4.1822   -5.0554   -0.8598 H         1 <0>         0.1425
     28 H11        -3.2747   -2.0073   -0.3738 H         1 <0>         0.0911
     29 H12        -2.3789   -2.9581   -1.5968 H         1 <0>         0.0908
     30 H13        -6.9759   -7.4562    0.9303 H         1 <0>         0.4224
     31 H14        -6.1786   -6.5584    2.1055 H         1 <0>         0.4172
@<TRIPOS>BOND
     1    1    2 1
     2    1   19 1
     3    1   20 1
     4    1   21 1
     5    2    3 2
     6    2    4 am
     7    4    5 1
     8    4   22 1
     9    5    6 1
    10    5   14 1
    11    5    7 1
    12    7    8 1
    13    7   23 1
    14    7   24 1
    15    8   13 ar
    16    8    9 ar
    17    9   10 ar
    18    9   25 1
    19   10   11 ar
    20   10   26 1
    21   11   12 ar
    22   11   15 1
    23   12   13 ar
    24   12   27 1
    25   13   14 1
    26   14   28 1
    27   14   29 1
    28   15   16 2
    29   15   17 2
    30   15   18 1
    31   18   30 1
    32   18   31 1
@<TRIPOS>MOLECULE
ZINC12503151
   23    23     0     0     0
SMALL
NO_CHARGES

@<TRIPOS>ATOM
      1 C1         -0.3789    1.0705    0.3515 C.3       1 <0>        -0.1347
      2 C2          0.5076   -0.1196    0.0888 C.2       1 <0>         0.4551
      3 O1          1.3641   -0.4298    0.8951 O.3       1 <0>        -0.3923
      4 N1          0.3540   -0.8288   -1.0216 N.2       1 <0>        -0.6178
      5 C3         -0.0468   -2.1007   -0.9514 C.2       1 <0>         0.3126
      6 N2         -0.4722   -2.7924    0.1303 N.pl3     1 <0>        -0.4005
      7 N3         -0.8397   -4.1105   -0.0380 N.pl3     1 <0>        -0.2827
      8 C4         -0.7560   -4.6173   -1.2349 C.2       1 <0>        -0.3295
      9 S1         -0.1544   -3.2357   -2.1872 S.3       1 <0>         0.3047
     10 S2         -1.1447   -6.2486   -1.7756 S.o2      1 <0>         2.5478
     11 O2         -0.0915   -6.6516   -2.6403 O.2       1 <0>        -0.9992
     12 O3         -1.5023   -6.9867   -0.6152 O.2       1 <0>        -1.0188
     13 N4         -2.5089   -6.1432   -2.7085 N.2       1 <0>        -1.2921
     14 C5         -0.5404   -2.1568    1.4485 C.3       1 <0>        -0.0096
     15 H1          0.0812    1.9657   -0.0669 H         1 <0>         0.1260
     16 H2         -1.3508    0.9096   -0.1151 H         1 <0>         0.1164
     17 H3         -0.5083    1.1970    1.4263 H         1 <0>         0.1126
     18 H4         -2.8882   -6.9430   -3.1051 H         1 <0>         0.3463
     19 H5         -0.8348   -1.1136    1.3340 H         1 <0>         0.0956
     20 H6         -1.2744   -2.6760    2.0647 H         1 <0>         0.1123
     21 H7          0.4374   -2.2079    1.9275 H         1 <0>         0.0918
     22 H8         -1.1502   -4.6433    0.7107 H         1 <0>         0.4270
     23 H9          1.8975   -1.1912    0.6290 H         1 <0>         0.4290
@<TRIPOS>BOND
     1    1    2 1
     2    1   15 1
     3    1   16 1
     4    1   17 1
     5    2    3 2
     6    2    4 1
     7    3   23 1
     8    4    5 2
     9    5    9 1
    10    5    6 1
    11    6    7 1
    12    6   14 1
    13    7    8 2
    14    7   22 1
    15    8    9 1
    16    8   10 1
    17   10   11 2
    18   10   12 2
    19   10   13 1
    20   13   18 1
    21   14   19 1
    22   14   20 1
    23   14   21 1
@<TRIPOS>MOLECULE
ZINC12503151
   23    23     0     0     0
SMALL
NO_CHARGES

@<TRIPOS>ATOM
      1 C1         -1.1346    0.9241    0.3407 C.3       1 <0>        -0.1307
      2 C2          0.0031   -0.0044    0.0020 C.2       1 <0>         0.4894
      3 O1          0.9224   -0.1509    0.7852 O.3       1 <0>        -0.3736
      4 N1          0.0020   -0.6621   -1.1500 N.2       1 <0>        -0.6464
      5 C3         -0.0802   -1.9949   -1.1578 C.2       1 <0>         0.3469
      6 N2          0.0027   -2.8388   -2.2117 N.pl3     1 <0>        -0.3538
      7 N3         -0.1119   -4.1925   -1.9774 N.pl3     1 <0>        -0.2782
      8 C4         -0.2944   -4.5840   -0.7486 C.2       1 <0>        -0.3302
      9 S1         -0.3048   -3.0391    0.1407 S.3       1 <0>         0.0989
     10 S2         -0.4768   -6.2215   -0.1244 S.o2      1 <0>         2.5579
     11 O2         -1.5476   -6.1834    0.8090 O.2       1 <0>        -1.0001
     12 O3         -0.4786   -7.0877   -1.2508 O.2       1 <0>        -1.0219
     13 N4          0.8919   -6.5715    0.7396 N.2       1 <0>        -1.2976
     14 C5          0.2086   -2.3268   -3.5688 C.3       1 <0>         0.0360
     15 H1         -0.9060    1.9262   -0.0224 H         1 <0>         0.1254
     16 H2         -2.0490    0.5661   -0.1324 H         1 <0>         0.1183
     17 H3         -1.2715    0.9518    1.4217 H         1 <0>         0.1209
     18 H4          0.9868   -7.4364    1.1685 H         1 <0>         0.3466
     19 H5          1.2771   -2.2630   -3.7748 H         1 <0>         0.0931
     20 H6         -0.2601   -3.0003   -4.2862 H         1 <0>         0.0994
     21 H7         -0.2378   -1.3362   -3.6550 H         1 <0>         0.1167
     22 H8         -0.0588   -4.8327   -2.7042 H         1 <0>         0.4514
     23 H9          1.5651   -0.8215    0.5163 H         1 <0>         0.4315
@<TRIPOS>BOND
     1    1    2 1
     2    1   15 1
     3    1   16 1
     4    1   17 1
     5    2    3 2
     6    2    4 1
     7    3   23 1
     8    4    5 2
     9    5    9 1
    10    5    6 1
    11    6    7 1
    12    6   14 1
    13    7    8 2
    14    7   22 1
    15    8    9 1
    16    8   10 1
    17   10   11 2
    18   10   12 2
    19   10   13 1
    20   13   18 1
    21   14   19 1
    22   14   20 1
    23   14   21 1
@<TRIPOS>MOLECULE
ZINC00057719
   24    25     0     0     0
SMALL
USER_CHARGES
7-ethoxychromen-2-one
@<TRIPOS>ATOM
      1 C1         -2.5802    4.0249    0.0361 C.3       1 <0>        -0.1550
      2 C2         -1.1559    3.4661    0.0264 C.3       1 <0>         0.0514
      3 O1         -1.2045    2.0380    0.0188 O.3       1 <0>        -0.3054
      4 C3         -0.0167    1.3809    0.0096 C.ar      1 <0>         0.1915
      5 C4          1.1738    2.1055    0.0022 C.ar      1 <0>        -0.2283
      6 C5          2.3758    1.4597   -0.0124 C.ar      1 <0>        -0.0099
      7 C6          2.4136    0.0606   -0.0207 C.ar      1 <0>        -0.2019
      8 C7          3.6889   -0.6590   -0.0367 C.2       1 <0>         0.0111
      9 C8          3.6594   -2.0171   -0.0437 C.2       1 <0>        -0.2573
     10 C9          2.4212   -2.6917   -0.0355 C.2       1 <0>         0.5094
     11 O2          2.4090   -3.9096   -0.0419 O.2       1 <0>        -0.4613
     12 O3          1.2557   -2.0261   -0.0204 O.3       1 <0>        -0.2701
     13 C10         1.2148   -0.6765   -0.0132 C.ar      1 <0>         0.1898
     14 C11         0.0021   -0.0041    0.0020 C.ar      1 <0>        -0.1781
     15 H1         -3.1019    3.6744    0.9267 H         1 <0>         0.0688
     16 H2         -2.5431    5.1142    0.0419 H         1 <0>         0.0826
     17 H3         -3.1103    3.6840   -0.8532 H         1 <0>         0.0689
     18 H4         -0.6258    3.8069    0.9157 H         1 <0>         0.0683
     19 H5         -0.6342    3.8166   -0.8642 H         1 <0>         0.0683
     20 H6          1.1448    3.1851    0.0083 H         1 <0>         0.1416
     21 H7          3.2952    2.0265   -0.0186 H         1 <0>         0.1442
     22 H8          4.6273   -0.1245   -0.0425 H         1 <0>         0.1540
     23 H9          4.5819   -2.5786   -0.0559 H         1 <0>         0.1647
     24 H10        -0.9248   -0.5585    0.0076 H         1 <0>         0.1528
@<TRIPOS>BOND
     1    1    2 1
     2    1   15 1
     3    1   16 1
     4    1   17 1
     5    2    3 1
     6    2   18 1
     7    2   19 1
     8    3    4 1
     9    4   14 ar
    10    4    5 ar
    11    5    6 ar
    12    5   20 1
    13    6    7 ar
    14    6   21 1
    15    7   13 ar
    16    7    8 1
    17    8    9 2
    18    8   22 1
    19    9   10 1
    20    9   23 1
    21   10   11 2
    22   10   12 1
    23   12   13 1
    24   13   14 ar
    25   14   24 1
@<TRIPOS>MOLECULE
ZINC03191876
   24    24     0     0     0
SMALL
USER_CHARGES

@<TRIPOS>ATOM
      1 C1         -0.0225    1.8097    0.0120 C.3       1 <0>        -0.6365
      2 S1          0.0021   -0.0041    0.0020 S.o2      1 <0>         2.5281
      3 O1          0.8352   -0.4880    1.0465 O.2       1 <0>        -1.0231
      4 O2         -1.3147   -0.5105   -0.1678 O.2       1 <0>        -1.0244
      5 N1          0.7947   -0.4113   -1.3938 N.2       1 <0>        -1.0861
      6 C2          0.9920   -1.7554   -1.7182 C.ar      1 <0>         0.3308
      7 C3          0.5189   -2.7519   -0.8740 C.ar      1 <0>        -0.2730
      8 C4          0.7153   -4.0800   -1.1980 C.ar      1 <0>         0.0278
      9 C5          1.3824   -4.4182   -2.3611 C.ar      1 <0>        -0.7725
     10 C6          1.8546   -3.4287   -3.2038 C.ar      1 <0>         0.0117
     11 C7          1.6566   -2.0987   -2.8887 C.ar      1 <0>        -0.1993
     12 S2          1.6317   -6.1139   -2.7701 S.o2      1 <0>         2.7039
     13 O3          2.7593   -6.1618   -3.6335 O.2       1 <0>        -0.9860
     14 O4          1.5758   -6.8386   -1.5490 O.2       1 <0>        -0.9860
     15 N2          0.3272   -6.5980   -3.6679 N.pl3     1 <0>        -1.2567
     16 H1          1.0001    2.1870    0.0043 H         1 <0>         0.1171
     17 H2         -0.5497    2.1708   -0.8711 H         1 <0>         0.1169
     18 H3         -0.5327    2.1613    0.9088 H         1 <0>         0.1046
     19 H4         -0.0016   -2.4885    0.0349 H         1 <0>         0.1105
     20 H5          0.3477   -4.8553   -0.5420 H         1 <0>         0.1209
     21 H6          2.3752   -3.6963   -4.1114 H         1 <0>         0.1237
     22 H7          2.0218   -1.3264   -3.5495 H         1 <0>         0.1209
     23 H8         -0.3842   -5.9695   -3.8677 H         1 <0>         0.4158
     24 H9          0.2743   -7.5100   -3.9940 H         1 <0>         0.4107
@<TRIPOS>BOND
     1    1    2 1
     2    1   16 1
     3    1   17 1
     4    1   18 1
     5    2    3 2
     6    2    4 2
     7    2    5 1
     8    5    6 1
     9    6   11 ar
    10    6    7 ar
    11    7    8 ar
    12    7   19 1
    13    8    9 ar
    14    8   20 1
    15    9   10 ar
    16    9   12 1
    17   10   11 ar
    18   10   21 1
    19   11   22 1
    20   12   13 2
    21   12   14 2
    22   12   15 1
    23   15   23 1
    24   15   24 1
@<TRIPOS>MOLECULE
ZINC09207368
   36    37     0     0     0
SMALL
USER_CHARGES

@<TRIPOS>ATOM
      1 C1          0.3103    1.4771    1.3290 C.ar      1 <0>        -0.1249
      2 C2          0.6818    0.3020    1.9561 C.ar      1 <0>        -0.0985
      3 C3          1.7789   -0.4058    1.5057 C.ar      1 <0>        -0.1027
      4 C4          2.5093    0.0639    0.4218 C.ar      1 <0>         0.1489
      5 C5          2.1335    1.2445   -0.2057 C.ar      1 <0>        -0.1359
      6 C6          1.0353    1.9475    0.2495 C.ar      1 <0>        -0.1020
      7 N1          3.6213   -0.6504   -0.0365 N.pl3     1 <0>        -0.6513
      8 C7          3.6448   -2.0150    0.0592 C.cat     1 <0>         0.5391
      9 N2          4.8391   -2.6733    0.1467 N.pl3     1 <0>        -0.6791
     10 C8          6.0943   -1.9179    0.1381 C.3       1 <0>         0.1251
     11 C9          7.2557   -2.8723    0.2450 C.ar      1 <0>        -0.0564
     12 C10         7.7429   -3.2314    1.4878 C.ar      1 <0>        -0.1171
     13 C11         8.8083   -4.1068    1.5859 C.ar      1 <0>        -0.0168
     14 C12         9.3860   -4.6234    0.4413 C.ar      1 <0>        -0.6641
     15 C13         8.8981   -4.2650   -0.8014 C.ar      1 <0>        -0.0169
     16 C14         7.8301   -3.3930   -0.8994 C.ar      1 <0>        -0.1182
     17 S1         10.7447   -5.7384    0.5664 S.o2      1 <0>         2.7011
     18 O1         11.4545   -5.6529   -0.6616 O.2       1 <0>        -0.9591
     19 O2         11.3614   -5.4879    1.8218 O.2       1 <0>        -0.9590
     20 N3         10.1167   -7.2687    0.6445 N.pl3     1 <0>        -1.2487
     21 S2          2.2226   -2.8709    0.0689 S.3       1 <0>        -0.5356
     22 H1         -0.5507    2.0264    1.6803 H         1 <0>         0.1256
     23 H2          0.1137   -0.0625    2.7991 H         1 <0>         0.1283
     24 H3          2.0688   -1.3233    1.9961 H         1 <0>         0.1311
     25 H4          2.6996    1.6125   -1.0486 H         1 <0>         0.1241
     26 H5          0.7426    2.8656   -0.2381 H         1 <0>         0.1281
     27 H6          4.3758   -0.1782   -0.4222 H         1 <0>         0.4064
     28 H7          6.1722   -1.3535   -0.7911 H         1 <0>         0.0875
     29 H8          6.1102   -1.2301    0.9835 H         1 <0>         0.0922
     30 H9          7.2916   -2.8277    2.3821 H         1 <0>         0.1390
     31 H10         9.1894   -4.3868    2.5569 H         1 <0>         0.1495
     32 H11         9.3497   -4.6684   -1.6957 H         1 <0>         0.1494
     33 H12         7.4465   -3.1158   -1.8703 H         1 <0>         0.1386
     34 H13         9.1561   -7.4007    0.6172 H         1 <0>         0.4173
     35 H14        10.7094   -8.0330    0.7175 H         1 <0>         0.4233
     36 H15         4.8557   -3.6408    0.2145 H         1 <0>         0.4317
@<TRIPOS>BOND
     1    1    6 ar
     2    1    2 ar
     3    1   22 1
     4    2    3 ar
     5    2   23 1
     6    3    4 ar
     7    3   24 1
     8    4    5 ar
     9    4    7 1
    10    5    6 ar
    11    5   25 1
    12    6   26 1
    13    7    8 1
    14    7   27 1
    15    8    9 2
    16    8   21 1
    17    9   10 1
    18    9   36 1
    19   10   11 1
    20   10   28 1
    21   10   29 1
    22   11   16 ar
    23   11   12 ar
    24   12   13 ar
    25   12   30 1
    26   13   14 ar
    27   13   31 1
    28   14   15 ar
    29   14   17 1
    30   15   16 ar
    31   15   32 1
    32   16   33 1
    33   17   18 2
    34   17   19 2
    35   17   20 1
    36   20   34 1
    37   20   35 1
@<TRIPOS>MOLECULE
ZINC28526472
   26    27     0     0     0
SMALL
USER_CHARGES

@<TRIPOS>ATOM
      1 C1         -0.0167    1.3782    0.0096 C.ar      1 <0>        -0.0136
      2 C2          1.1707    2.0857    0.0021 C.ar      1 <0>        -0.1152
      3 C3          2.3778    1.4105   -0.0131 C.ar      1 <0>        -0.0478
      4 C4          2.3961    0.0274   -0.0207 C.ar      1 <0>        -0.1154
      5 C5          1.2082   -0.6793   -0.0132 C.ar      1 <0>        -0.0136
      6 C6          0.0021   -0.0041    0.0020 C.ar      1 <0>        -0.6173
      7 S1         -1.5119   -0.9055    0.0117 S.o2      1 <0>         2.6390
      8 O1         -1.2185   -2.1862    0.5528 O.2       1 <0>        -0.9893
      9 O2         -2.4926   -0.0462    0.5765 O.2       1 <0>        -0.9887
     10 N1         -1.9477   -1.1475   -1.5675 N.2       1 <0>        -0.9957
     11 C7         -3.1127   -1.8377   -1.8674 C.2       1 <0>         0.4324
     12 N2         -4.0165   -2.3779   -1.0608 N.2       1 <0>        -0.4195
     13 N3         -5.0317   -2.9786   -1.5073 N.2       1 <0>        -0.1044
     14 C8         -5.2596   -3.1081   -2.7984 C.2       1 <0>        -0.6358
     15 S2         -3.8324   -2.2487   -3.4547 S.3       1 <0>         0.0072
     16 S3         -6.5926   -3.8957   -3.6395 S.o2      1 <0>         2.7656
     17 O3         -7.6503   -2.9488   -3.7007 O.2       1 <0>        -0.9610
     18 O4         -6.0403   -4.4971   -4.8025 O.2       1 <0>        -0.9586
     19 N4         -7.1196   -5.1321   -2.6721 N.pl3     1 <0>        -1.2403
     20 Br1         4.0026    2.3779   -0.0240 Br        1 <0>        -0.0483
     21 H1         -0.9592    1.9053    0.0260 H         1 <0>         0.1494
     22 H2          1.1559    3.1656    0.0077 H         1 <0>         0.1408
     23 H3          3.3384   -0.5003   -0.0329 H         1 <0>         0.1408
     24 H4          1.2224   -1.7592   -0.0191 H         1 <0>         0.1493
     25 H5         -8.0499   -5.4054   -2.6980 H         1 <0>         0.4189
     26 H6         -6.4979   -5.5830   -2.0795 H         1 <0>         0.4210
@<TRIPOS>BOND
     1    1    6 ar
     2    1    2 ar
     3    1   21 1
     4    2    3 ar
     5    2   22 1
     6    3    4 ar
     7    3   20 1
     8    4    5 ar
     9    4   23 1
    10    5    6 ar
    11    5   24 1
    12    6    7 1
    13    7    8 2
    14    7    9 2
    15    7   10 1
    16   10   11 1
    17   11   15 1
    18   11   12 2
    19   12   13 1
    20   13   14 2
    21   14   15 1
    22   14   16 1
    23   16   17 2
    24   16   18 2
    25   16   19 1
    26   19   25 1
    27   19   26 1
@<TRIPOS>MOLECULE
ZINC03813042
   19    19     0     0     0
SMALL
USER_CHARGES

@<TRIPOS>ATOM
      1 C1         -0.0184    1.5028    0.0103 C.3       1 <0>        -0.1669
      2 C2          0.0021   -0.0041    0.0020 C.2       1 <0>         0.5048
      3 O1          1.0605   -0.5961   -0.0113 O.2       1 <0>        -0.4597
      4 N1         -1.1558   -0.6938    0.0094 N.am      1 <0>        -0.6127
      5 C3         -1.1370   -2.0844    0.0017 C.2       1 <0>         0.2593
      6 N2         -0.1026   -2.9019   -0.0067 N.2       1 <0>        -0.3105
      7 N3         -0.2439   -4.1575   -0.0130 N.2       1 <0>        -0.1075
      8 C4         -1.4599   -4.6659   -0.0111 C.2       1 <0>        -0.5832
      9 S1         -2.4308   -3.1653    0.0083 S.3       1 <0>         0.2359
     10 S2         -1.9811   -6.3490   -0.0183 S.o2      1 <0>         2.7480
     11 O2         -1.9574   -6.7873    1.3333 O.2       1 <0>        -0.9356
     12 O3         -3.1545   -6.4075   -0.8177 O.2       1 <0>        -0.9350
     13 N4         -0.8199   -7.2178   -0.8179 N.pl3     1 <0>        -1.2313
     14 H1          1.0042    1.8801    0.0026 H         1 <0>         0.1076
     15 H2         -0.5455    1.8639   -0.8728 H         1 <0>         0.1002
     16 H3         -0.5286    1.8543    0.9071 H         1 <0>         0.1002
     17 H4         -2.0023   -0.2203    0.0200 H         1 <0>         0.4348
     18 H5         -0.6611   -8.1456   -0.5837 H         1 <0>         0.4284
     19 H6         -0.2986   -6.7988   -1.5204 H         1 <0>         0.4232
@<TRIPOS>BOND
     1    1    2 1
     2    1   14 1
     3    1   15 1
     4    1   16 1
     5    2    3 2
     6    2    4 am
     7    4    5 1
     8    4   17 1
     9    5    9 1
    10    5    6 2
    11    6    7 1
    12    7    8 2
    13    8    9 1
    14    8   10 1
    15   10   11 2
    16   10   12 2
    17   10   13 1
    18   13   18 1
    19   13   19 1
@<TRIPOS>MOLECULE
ZINC03813042
   18    18     0     0     0
SMALL
USER_CHARGES

@<TRIPOS>ATOM
      1 C1         -0.0184    1.5028    0.0103 C.3       1 <0>        -0.1624
      2 C2          0.0021   -0.0041    0.0020 C.2       1 <0>         0.5010
      3 O1          0.0203   -0.6161    1.0490 O.2       1 <0>        -0.4698
      4 N1          0.0001   -0.6716   -1.1688 N.am      1 <0>        -0.6150
      5 C3          0.0189   -2.0622   -1.1765 C.2       1 <0>         0.2229
      6 N2          0.0342   -2.8992   -0.1578 N.2       1 <0>        -0.3133
      7 N3          0.0506   -4.1518   -0.3231 N.2       1 <0>        -0.1306
      8 C4          0.0525   -4.6369   -1.5486 C.2       1 <0>        -0.4261
      9 S1          0.0209   -3.1183   -2.4906 S.3       1 <0>         0.1375
     10 S2          0.0731   -6.3097   -2.1017 S.o2      1 <0>         2.6009
     11 O2         -1.2748   -6.7592   -2.0864 O.2       1 <0>        -1.0365
     12 O3          0.8728   -6.3393   -3.2760 O.2       1 <0>        -1.0415
     13 N4          0.8799   -7.1939   -0.9573 N.2       1 <0>        -1.3126
     14 H1          1.0042    1.8801    0.0026 H         1 <0>         0.1013
     15 H2         -0.5455    1.8639   -0.8728 H         1 <0>         0.0851
     16 H3         -0.5286    1.8543    0.9071 H         1 <0>         0.1022
     17 H4         -0.0145   -0.1822   -2.0061 H         1 <0>         0.4269
     18 H5          0.9999   -8.1489   -1.0779 H         1 <0>         0.3298
@<TRIPOS>BOND
     1    1    2 1
     2    1   14 1
     3    1   15 1
     4    1   16 1
     5    2    3 2
     6    2    4 am
     7    4    5 1
     8    4   17 1
     9    5    9 1
    10    5    6 2
    11    6    7 1
    12    7    8 2
    13    8    9 1
    14    8   10 1
    15   10   11 2
    16   10   12 2
    17   10   13 1
    18   13   18 1
@<TRIPOS>MOLECULE
ZINC00119978
   35    37     0     0     0
SMALL
USER_CHARGES

@<TRIPOS>ATOM
      1 C1         -0.0167    1.3779    0.0096 C.ar      1 <0>        -0.0610
      2 C2          1.1696    2.0886    0.0021 C.ar      1 <0>        -0.1355
      3 C3          2.3802    1.4154   -0.0130 C.ar      1 <0>         0.0908
      4 C4          2.3990    0.0236   -0.0206 C.ar      1 <0>         0.0771
      5 C5          1.2071   -0.6822   -0.0130 C.ar      1 <0>        -0.1167
      6 C6          0.0021   -0.0041    0.0020 C.ar      1 <0>        -0.0830
      7 C7         -1.2936   -0.7736    0.0102 C.3       1 <0>         0.1458
      8 H1         -1.1201   -1.7884   -0.3479 H         1 <0>         0.0970
      9 C8         -1.8590   -0.8183    1.4356 C.3       1 <0>         0.0774
     10 H2         -1.1168   -1.2422    2.1121 H         1 <0>         0.0795
     11 C9         -3.1120   -1.6975    1.4281 C.3       1 <0>        -0.1008
     12 C10        -4.0118   -1.2895    0.2891 C.ar      1 <0>        -0.1920
     13 C11        -5.3448   -1.6839    0.3168 C.ar      1 <0>         0.1573
     14 C12        -6.1992   -1.3308   -0.7146 C.ar      1 <0>        -0.2027
     15 C13        -5.7231   -0.5806   -1.7796 C.ar      1 <0>         0.1581
     16 C14        -4.3960   -0.1855   -1.8071 C.ar      1 <0>        -0.1851
     17 C15        -3.5373   -0.5380   -0.7709 C.ar      1 <0>         0.1753
     18 O1         -2.2452   -0.1223   -0.8323 O.3       1 <0>        -0.2920
     19 O2         -6.5574   -0.2342   -2.7948 O.3       1 <0>        -0.4925
     20 O3         -5.8113   -2.4194    1.3600 O.3       1 <0>        -0.4918
     21 O4         -2.1991    0.5029    1.8606 O.3       1 <0>        -0.5471
     22 O5          3.5850   -0.6417   -0.0359 O.3       1 <0>        -0.4856
     23 O6          3.5476    2.1129   -0.0209 O.3       1 <0>        -0.4877
     24 H3         -0.9598    1.9038    0.0259 H         1 <0>         0.1392
     25 H4          1.1522    3.1684    0.0077 H         1 <0>         0.1364
     26 H5          1.2190   -1.7621   -0.0189 H         1 <0>         0.1353
     27 H6         -2.8221   -2.7410    1.3054 H         1 <0>         0.0902
     28 H7         -3.6445   -1.5781    2.3716 H         1 <0>         0.0880
     29 H8         -7.2339   -1.6393   -0.6898 H         1 <0>         0.1380
     30 H9         -4.0260    0.3985   -2.6368 H         1 <0>         0.1409
     31 H10        -7.0114    0.6089   -2.6604 H         1 <0>         0.3966
     32 H11        -6.1571   -1.8895    2.0913 H         1 <0>         0.3930
     33 H12        -2.5632    0.5468    2.7553 H         1 <0>         0.3808
     34 H13         3.9367   -0.8389    0.8430 H         1 <0>         0.3875
     35 H14         3.8938    2.3101    0.8602 H         1 <0>         0.3892
@<TRIPOS>BOND
     1    1    6 ar
     2    1    2 ar
     3    1   24 1
     4    2    3 ar
     5    2   25 1
     6    3    4 ar
     7    3   23 1
     8    4    5 ar
     9    4   22 1
    10    5    6 ar
    11    5   26 1
    12    6    7 1
    13    7    8 1
    14    7   18 1
    15    7    9 1
    16    9   10 1
    17    9   11 1
    18    9   21 1
    19   11   12 1
    20   11   27 1
    21   11   28 1
    22   12   17 ar
    23   12   13 ar
    24   13   14 ar
    25   13   20 1
    26   14   15 ar
    27   14   29 1
    28   15   16 ar
    29   15   19 1
    30   16   17 ar
    31   16   30 1
    32   17   18 1
    33   19   31 1
    34   20   32 1
    35   21   33 1
    36   22   34 1
    37   23   35 1
@<TRIPOS>MOLECULE
ZINC00119983
   35    37     0     0     0
SMALL
USER_CHARGES

@<TRIPOS>ATOM
      1 C1         -0.0167    1.3779    0.0096 C.ar      1 <0>        -0.0875
      2 C2          1.1696    2.0886    0.0021 C.ar      1 <0>        -0.1321
      3 C3          2.3802    1.4154   -0.0130 C.ar      1 <0>         0.0878
      4 C4          2.3990    0.0236   -0.0206 C.ar      1 <0>         0.0799
      5 C5          1.2071   -0.6822   -0.0130 C.ar      1 <0>        -0.0978
      6 C6          0.0021   -0.0041    0.0020 C.ar      1 <0>        -0.0724
      7 C7         -1.2936   -0.7736    0.0102 C.3       1 <0>         0.1449
      8 H1         -1.1302   -1.7631    0.4371 H         1 <0>         0.0922
      9 C8         -1.8224   -0.9103   -1.4233 C.3       1 <0>         0.0817
     10 H2         -2.0734    0.0744   -1.8178 H         1 <0>         0.0737
     11 C9         -3.0759   -1.7881   -1.3913 C.3       1 <0>        -0.1054
     12 C10        -4.0042   -1.3085   -0.3042 C.ar      1 <0>        -0.1944
     13 C11        -5.3364   -1.7051   -0.3406 C.ar      1 <0>         0.1607
     14 C12        -6.2168   -1.2864    0.6434 C.ar      1 <0>        -0.1995
     15 C13        -5.7673   -0.4690    1.6698 C.ar      1 <0>         0.1586
     16 C14        -4.4409   -0.0726    1.7062 C.ar      1 <0>        -0.1804
     17 C15        -3.5564   -0.4901    0.7171 C.ar      1 <0>         0.1616
     18 O1         -2.2659   -0.0703    0.7846 O.3       1 <0>        -0.2950
     19 O2         -6.6274   -0.0572    2.6380 O.3       1 <0>        -0.4915
     20 O3         -5.7767   -2.5064   -1.3460 O.3       1 <0>        -0.4913
     21 O4         -0.8272   -1.5201   -2.2478 O.3       1 <0>        -0.5487
     22 O5          3.5850   -0.6417   -0.0359 O.3       1 <0>        -0.4855
     23 O6          3.5476    2.1129   -0.0209 O.3       1 <0>        -0.4877
     24 H3         -0.9598    1.9038    0.0259 H         1 <0>         0.1338
     25 H4          1.1522    3.1684    0.0077 H         1 <0>         0.1365
     26 H5          1.2190   -1.7621   -0.0189 H         1 <0>         0.1360
     27 H6         -3.5841   -1.7300   -2.3539 H         1 <0>         0.0942
     28 H7         -2.7902   -2.8214   -1.1946 H         1 <0>         0.0882
     29 H8         -7.2509   -1.5961    0.6116 H         1 <0>         0.1400
     30 H9         -4.0917    0.5638    2.5059 H         1 <0>         0.1428
     31 H10        -6.6766   -0.6517    3.3991 H         1 <0>         0.3973
     32 H11        -5.7049   -3.4517   -1.1556 H         1 <0>         0.3955
     33 H12        -1.0970   -1.6366   -3.1690 H         1 <0>         0.3873
     34 H13         3.9367   -0.8389    0.8430 H         1 <0>         0.3877
     35 H14         3.8938    2.3101    0.8602 H         1 <0>         0.3889
@<TRIPOS>BOND
     1    1    6 ar
     2    1    2 ar
     3    1   24 1
     4    2    3 ar
     5    2   25 1
     6    3    4 ar
     7    3   23 1
     8    4    5 ar
     9    4   22 1
    10    5    6 ar
    11    5   26 1
    12    6    7 1
    13    7    8 1
    14    7   18 1
    15    7    9 1
    16    9   10 1
    17    9   11 1
    18    9   21 1
    19   11   12 1
    20   11   27 1
    21   11   28 1
    22   12   17 ar
    23   12   13 ar
    24   13   14 ar
    25   13   20 1
    26   14   15 ar
    27   14   29 1
    28   15   16 ar
    29   15   19 1
    30   16   17 ar
    31   16   30 1
    32   17   18 1
    33   19   31 1
    34   20   32 1
    35   21   33 1
    36   22   34 1
    37   23   35 1
@<TRIPOS>MOLECULE
ZINC00119985
   35    37     0     0     0
SMALL
USER_CHARGES

@<TRIPOS>ATOM
      1 C1         -0.0167    1.3779    0.0096 C.ar      1 <0>        -0.0867
      2 C2          1.1696    2.0886    0.0021 C.ar      1 <0>        -0.1323
      3 C3          2.3802    1.4154   -0.0130 C.ar      1 <0>         0.0885
      4 C4          2.3990    0.0236   -0.0206 C.ar      1 <0>         0.0807
      5 C5          1.2071   -0.6822   -0.0130 C.ar      1 <0>        -0.0990
      6 C6          0.0021   -0.0041    0.0020 C.ar      1 <0>        -0.0707
      7 C7         -1.2936   -0.7736    0.0102 C.3       1 <0>         0.1435
      8 H1         -1.1201   -1.7884   -0.3479 H         1 <0>         0.0926
      9 C8         -1.8590   -0.8183    1.4356 C.3       1 <0>         0.0823
     10 H2         -2.1191    0.1894    1.7595 H         1 <0>         0.0731
     11 C9         -3.1120   -1.6975    1.4281 C.3       1 <0>        -0.1021
     12 C10        -4.0118   -1.2895    0.2891 C.ar      1 <0>        -0.1942
     13 C11        -5.3448   -1.6839    0.3168 C.ar      1 <0>         0.1598
     14 C12        -6.1992   -1.3308   -0.7146 C.ar      1 <0>        -0.1989
     15 C13        -5.7231   -0.5806   -1.7796 C.ar      1 <0>         0.1590
     16 C14        -4.3960   -0.1855   -1.8071 C.ar      1 <0>        -0.1806
     17 C15        -3.5373   -0.5380   -0.7709 C.ar      1 <0>         0.1614
     18 O1         -2.2452   -0.1223   -0.8323 O.3       1 <0>        -0.2944
     19 O2         -6.5574   -0.2342   -2.7948 O.3       1 <0>        -0.4914
     20 O3         -5.8113   -2.4194    1.3600 O.3       1 <0>        -0.4904
     21 O4         -0.8856   -1.3731    2.3226 O.3       1 <0>        -0.5492
     22 O5          3.5850   -0.6417   -0.0359 O.3       1 <0>        -0.4860
     23 O6          3.5476    2.1129   -0.0209 O.3       1 <0>        -0.4876
     24 H3         -0.9598    1.9038    0.0259 H         1 <0>         0.1324
     25 H4          1.1522    3.1684    0.0077 H         1 <0>         0.1364
     26 H5          1.2190   -1.7621   -0.0189 H         1 <0>         0.1358
     27 H6         -2.8221   -2.7410    1.3054 H         1 <0>         0.0925
     28 H7         -3.6445   -1.5781    2.3716 H         1 <0>         0.0873
     29 H8         -7.2339   -1.6393   -0.6898 H         1 <0>         0.1400
     30 H9         -4.0260    0.3985   -2.6368 H         1 <0>         0.1432
     31 H10        -7.0114    0.6089   -2.6604 H         1 <0>         0.3973
     32 H11        -6.1571   -1.8895    2.0913 H         1 <0>         0.3941
     33 H12        -1.1790   -1.4304    3.2423 H         1 <0>         0.3861
     34 H13         3.9367   -0.8389    0.8430 H         1 <0>         0.3885
     35 H14         3.8938    2.3101    0.8602 H         1 <0>         0.3890
@<TRIPOS>BOND
     1    1    6 ar
     2    1    2 ar
     3    1   24 1
     4    2    3 ar
     5    2   25 1
     6    3    4 ar
     7    3   23 1
     8    4    5 ar
     9    4   22 1
    10    5    6 ar
    11    5   26 1
    12    6    7 1
    13    7    8 1
    14    7   18 1
    15    7    9 1
    16    9   10 1
    17    9   11 1
    18    9   21 1
    19   11   12 1
    20   11   27 1
    21   11   28 1
    22   12   17 ar
    23   12   13 ar
    24   13   14 ar
    25   13   20 1
    26   14   15 ar
    27   14   29 1
    28   15   16 ar
    29   15   19 1
    30   16   17 ar
    31   16   30 1
    32   17   18 1
    33   19   31 1
    34   20   32 1
    35   21   33 1
    36   22   34 1
    37   23   35 1
@<TRIPOS>MOLECULE
ZINC00119988
   35    37     0     0     0
SMALL
USER_CHARGES

@<TRIPOS>ATOM
      1 C1         -0.0167    1.3779    0.0096 C.ar      1 <0>        -0.0628
      2 C2          1.1696    2.0886    0.0021 C.ar      1 <0>        -0.1339
      3 C3          2.3802    1.4154   -0.0130 C.ar      1 <0>         0.0896
      4 C4          2.3990    0.0236   -0.0206 C.ar      1 <0>         0.0776
      5 C5          1.2071   -0.6822   -0.0130 C.ar      1 <0>        -0.1181
      6 C6          0.0021   -0.0041    0.0020 C.ar      1 <0>        -0.0813
      7 C7         -1.2936   -0.7736    0.0102 C.3       1 <0>         0.1464
      8 H1         -1.1302   -1.7631    0.4371 H         1 <0>         0.0966
      9 C8         -1.8224   -0.9103   -1.4233 C.3       1 <0>         0.0774
     10 H2         -1.0636   -1.3761   -2.0520 H         1 <0>         0.0797
     11 C9         -3.0759   -1.7881   -1.3913 C.3       1 <0>        -0.1047
     12 C10        -4.0042   -1.3085   -0.3042 C.ar      1 <0>        -0.1922
     13 C11        -5.3364   -1.7051   -0.3406 C.ar      1 <0>         0.1583
     14 C12        -6.2168   -1.2864    0.6434 C.ar      1 <0>        -0.2033
     15 C13        -5.7673   -0.4690    1.6698 C.ar      1 <0>         0.1577
     16 C14        -4.4409   -0.0726    1.7062 C.ar      1 <0>        -0.1847
     17 C15        -3.5564   -0.4901    0.7171 C.ar      1 <0>         0.1751
     18 O1         -2.2659   -0.0703    0.7846 O.3       1 <0>        -0.2923
     19 O2         -6.6274   -0.0572    2.6380 O.3       1 <0>        -0.4921
     20 O3         -5.7767   -2.5064   -1.3460 O.3       1 <0>        -0.4921
     21 O4         -2.1505    0.3807   -1.9409 O.3       1 <0>        -0.5467
     22 O5          3.5850   -0.6417   -0.0359 O.3       1 <0>        -0.4863
     23 O6          3.5476    2.1129   -0.0209 O.3       1 <0>        -0.4879
     24 H3         -0.9598    1.9038    0.0259 H         1 <0>         0.1388
     25 H4          1.1522    3.1684    0.0077 H         1 <0>         0.1366
     26 H5          1.2190   -1.7621   -0.0189 H         1 <0>         0.1349
     27 H6         -3.5841   -1.7300   -2.3539 H         1 <0>         0.0950
     28 H7         -2.7902   -2.8214   -1.1946 H         1 <0>         0.0859
     29 H8         -7.2509   -1.5961    0.6116 H         1 <0>         0.1380
     30 H9         -4.0917    0.5638    2.5059 H         1 <0>         0.1406
     31 H10        -6.6766   -0.6517    3.3991 H         1 <0>         0.3961
     32 H11        -5.7049   -3.4517   -1.1556 H         1 <0>         0.3938
     33 H12        -2.4917    0.3667   -2.8456 H         1 <0>         0.3831
     34 H13         3.9367   -0.8389    0.8430 H         1 <0>         0.3881
     35 H14         3.8938    2.3101    0.8602 H         1 <0>         0.3893
@<TRIPOS>BOND
     1    1    6 ar
     2    1    2 ar
     3    1   24 1
     4    2    3 ar
     5    2   25 1
     6    3    4 ar
     7    3   23 1
     8    4    5 ar
     9    4   22 1
    10    5    6 ar
    11    5   26 1
    12    6    7 1
    13    7    8 1
    14    7   18 1
    15    7    9 1
    16    9   10 1
    17    9   11 1
    18    9   21 1
    19   11   12 1
    20   11   27 1
    21   11   28 1
    22   12   17 ar
    23   12   13 ar
    24   13   14 ar
    25   13   20 1
    26   14   15 ar
    27   14   29 1
    28   15   16 ar
    29   15   19 1
    30   16   17 ar
    31   16   30 1
    32   17   18 1
    33   19   31 1
    34   20   32 1
    35   21   33 1
    36   22   34 1
    37   23   35 1
@<TRIPOS>MOLECULE
ZINC00119988
   35    37     0     0     0
SMALL
USER_CHARGES

@<TRIPOS>ATOM
      1 C1         -0.0167    1.3809    0.0096 C.ar      1 <0>        -0.2034
      2 C2          1.1766    2.0878    0.0020 C.ar      1 <0>         0.1587
      3 C3          2.3823    1.4068   -0.0152 C.ar      1 <0>        -0.1833
      4 C4          2.4025    0.0159   -0.0241 C.ar      1 <0>         0.1747
      5 C5          1.2122   -0.6887   -0.0130 C.ar      1 <0>        -0.1921
      6 C6          0.0021   -0.0041    0.0020 C.ar      1 <0>         0.1579
      7 O1         -1.1671   -0.6966    0.0088 O.3       1 <0>        -0.4928
      8 C7          1.1916   -2.1964   -0.0108 C.3       1 <0>        -0.1012
      9 C8          2.5519   -2.7315   -0.4648 C.3       1 <0>         0.0660
     10 H1          2.6125   -3.8007   -0.2614 H         1 <0>         0.0829
     11 C9          3.6454   -1.9935    0.3180 C.3       1 <0>         0.1091
     12 H2          3.4637   -2.0957    1.3879 H         1 <0>         0.0966
     13 O2          3.6065   -0.6132   -0.0469 O.3       1 <0>        -0.2931
     14 C10         5.0145   -2.5810   -0.0306 C.3       1 <0>        -0.0576
     15 H3          5.1878   -2.4642   -1.1004 H         1 <0>         0.1250
     16 C11         6.0934   -1.8145    0.7342 C.3       1 <0>        -0.1579
     17 C12         7.3999   -2.5792    0.6040 C.2       1 <0>         0.3268
     18 O3          8.4121   -2.0692    0.1868 O.2       1 <0>        -0.3922
     19 C13         7.3376   -4.0204    1.0348 C.2       1 <0>         0.3440
     20 O4          8.2788   -4.5790    1.5616 O.2       1 <0>        -0.3988
     21 C14         6.0607   -4.7093    0.7765 C.2       1 <0>        -0.2091
     22 C15         5.0182   -4.0387    0.3064 C.2       1 <0>        -0.0650
     23 O5          2.7189   -2.4973   -1.8645 O.3       1 <0>        -0.5485
     24 O6          1.1626    3.4467    0.0110 O.3       1 <0>        -0.4928
     25 H4         -0.9585    1.9092    0.0260 H         1 <0>         0.1381
     26 H5          3.3110    1.9580   -0.0220 H         1 <0>         0.1415
     27 H6         -1.5134   -0.8923   -0.8726 H         1 <0>         0.3943
     28 H7          0.9786   -2.5547    0.9963 H         1 <0>         0.0908
     29 H8          0.4173   -2.5494   -0.6920 H         1 <0>         0.0885
     30 H9          6.2071   -0.8171    0.3095 H         1 <0>         0.1147
     31 H10         5.8152   -1.7380    1.7853 H         1 <0>         0.1120
     32 H11         5.9735   -5.7677    0.9729 H         1 <0>         0.1507
     33 H12         4.1010   -4.5881    0.1539 H         1 <0>         0.1343
     34 H13         2.0487   -2.9221   -2.4171 H         1 <0>         0.3838
     35 H14         1.1675    3.8342    0.8969 H         1 <0>         0.3974
@<TRIPOS>BOND
     1    1    6 ar
     2    1    2 ar
     3    1   25 1
     4    2    3 ar
     5    2   24 1
     6    3    4 ar
     7    3   26 1
     8    4   13 1
     9    4    5 ar
    10    5    6 ar
    11    5    8 1
    12    6    7 1
    13    7   27 1
    14    8    9 1
    15    8   28 1
    16    8   29 1
    17    9   10 1
    18    9   11 1
    19    9   23 1
    20   11   12 1
    21   11   13 1
    22   11   14 1
    23   14   15 1
    24   14   22 1
    25   14   16 1
    26   16   17 1
    27   16   30 1
    28   16   31 1
    29   17   18 2
    30   17   19 1
    31   19   20 2
    32   19   21 1
    33   21   22 2
    34   21   32 1
    35   22   33 1
    36   23   34 1
    37   24   35 1
@<TRIPOS>MOLECULE
ZINC00119988
   35    37     0     0     0
SMALL
USER_CHARGES

@<TRIPOS>ATOM
      1 C1         -0.0115    1.3874    0.0191 C.ar      1 <0>        -0.2033
      2 C2          1.1827    2.0928    0.0180 C.ar      1 <0>         0.1585
      3 C3          2.3876    1.4102   -0.0001 C.ar      1 <0>        -0.1836
      4 C4          2.4060    0.0194   -0.0163 C.ar      1 <0>         0.1747
      5 C5          1.2147   -0.6837   -0.0116 C.ar      1 <0>        -0.1914
      6 C6          0.0055    0.0025    0.0043 C.ar      1 <0>         0.1581
      7 O1         -1.1647   -0.6886    0.0048 O.3       1 <0>        -0.4928
      8 C7          1.1921   -2.1913   -0.0174 C.3       1 <0>        -0.1014
      9 C8          2.5527   -2.7259   -0.4711 C.3       1 <0>         0.0670
     10 H1          2.6114   -3.7962   -0.2733 H         1 <0>         0.0832
     11 C9          3.6454   -1.9935    0.3180 C.3       1 <0>         0.1093
     12 H2          3.4611   -2.1011    1.3869 H         1 <0>         0.0965
     13 O2          3.6091   -0.6112   -0.0397 O.3       1 <0>        -0.2948
     14 C10         5.0145   -2.5810   -0.0306 C.3       1 <0>        -0.0588
     15 H3          5.1593   -2.5253   -1.1095 H         1 <0>         0.1255
     16 C11         5.0503   -4.0471    0.4005 C.3       1 <0>        -0.1613
     17 C12         6.4876   -4.5317    0.3122 C.2       1 <0>         0.3305
     18 O3          6.8066   -5.5054   -0.3275 O.2       1 <0>        -0.3919
     19 C13         7.4842   -3.7066    1.0817 C.2       1 <0>         0.3458
     20 O4          8.4561   -4.2003    1.6175 O.2       1 <0>        -0.4006
     21 C14         7.2047   -2.2609    1.1425 C.2       1 <0>        -0.2224
     22 C15         6.0768   -1.7729    0.6451 C.2       1 <0>        -0.0536
     23 O5          2.7232   -2.4845   -1.8692 O.3       1 <0>        -0.5492
     24 O6          1.1705    3.4515    0.0340 O.3       1 <0>        -0.4928
     25 H4         -0.9527    1.9168    0.0361 H         1 <0>         0.1381
     26 H5          3.3171    1.9602   -0.0019 H         1 <0>         0.1412
     27 H6         -1.5093   -0.8792   -0.8784 H         1 <0>         0.3945
     28 H7          0.9763   -2.5547    0.9873 H         1 <0>         0.0909
     29 H8          0.4189   -2.5398   -0.7022 H         1 <0>         0.0886
     30 H9          4.6940   -4.1377    1.4266 H         1 <0>         0.1150
     31 H10         4.4205   -4.6409   -0.2620 H         1 <0>         0.1107
     32 H11         7.9233   -1.5947    1.5966 H         1 <0>         0.1490
     33 H12         5.9137   -0.7089    0.7331 H         1 <0>         0.1393
     34 H13         2.0536   -2.9055   -2.4256 H         1 <0>         0.3843
     35 H14         1.1740    3.8344    0.9220 H         1 <0>         0.3974
@<TRIPOS>BOND
     1    1    6 ar
     2    1    2 ar
     3    1   25 1
     4    2    3 ar
     5    2   24 1
     6    3    4 ar
     7    3   26 1
     8    4   13 1
     9    4    5 ar
    10    5    6 ar
    11    5    8 1
    12    6    7 1
    13    7   27 1
    14    8    9 1
    15    8   28 1
    16    8   29 1
    17    9   10 1
    18    9   11 1
    19    9   23 1
    20   11   12 1
    21   11   13 1
    22   11   14 1
    23   14   15 1
    24   14   22 1
    25   14   16 1
    26   16   17 1
    27   16   30 1
    28   16   31 1
    29   17   18 2
    30   17   19 1
    31   19   20 2
    32   19   21 1
    33   21   22 2
    34   21   32 1
    35   22   33 1
    36   23   34 1
    37   24   35 1
@<TRIPOS>MOLECULE
ZINC00002101
   19    19     0     0     0
SMALL
USER_CHARGES

@<TRIPOS>ATOM
      1 C1         -0.0168    1.3849    0.0097 C.ar      1 <0>        -0.2192
      2 C2          1.1707    2.0901    0.0021 C.ar      1 <0>         0.0295
      3 C3          2.3774    1.4150   -0.0135 C.ar      1 <0>        -0.7336
      4 C4          2.3998    0.0323   -0.0211 C.ar      1 <0>         0.0295
      5 C5          1.2161   -0.6790   -0.0137 C.ar      1 <0>        -0.2192
      6 C6          0.0021   -0.0041    0.0020 C.ar      1 <0>         0.2713
      7 N1         -1.1970   -0.7204    0.0101 N.pl3     1 <0>        -0.8647
      8 S1          3.8900    2.3186   -0.0243 S.o2      1 <0>         2.7050
      9 O1          4.8717    1.4606   -0.5894 O.2       1 <0>        -0.9693
     10 O2          3.5945    3.5988   -0.5657 O.2       1 <0>        -0.9693
     11 N2          4.3264    2.5618    1.5546 N.pl3     1 <0>        -1.2522
     12 H1         -0.9589    1.9127    0.0260 H         1 <0>         0.1318
     13 H2          1.1567    3.1700    0.0080 H         1 <0>         0.1423
     14 H3          3.3440   -0.4918   -0.0333 H         1 <0>         0.1423
     15 H4          1.2342   -1.7588   -0.0200 H         1 <0>         0.1318
     16 H5         -2.0441   -0.2480    0.0210 H         1 <0>         0.4043
     17 H6         -1.1825   -1.6903    0.0047 H         1 <0>         0.4042
     18 H7          3.7678    2.2202    2.2703 H         1 <0>         0.4159
     19 H8          5.1405    3.0458    1.7638 H         1 <0>         0.4195
@<TRIPOS>BOND
     1    1    6 ar
     2    1    2 ar
     3    1   12 1
     4    2    3 ar
     5    2   13 1
     6    3    4 ar
     7    3    8 1
     8    4    5 ar
     9    4   14 1
    10    5    6 ar
    11    5   15 1
    12    6    7 1
    13    7   16 1
    14    7   17 1
    15    8    9 2
    16    8   10 2
    17    8   11 1
    18   11   18 1
    19   11   19 1
