@<TRIPOS>MOLECULE
ZINC00897234
   28    29     0     0     0
SMALL
USER_CHARGES

@<TRIPOS>ATOM
      1 C1         -0.0166    1.3759    0.0096 C.ar      1 <0>        -0.1949
      2 C2          1.1783    2.0936    0.0021 C.ar      1 <0>         0.3458
      3 C3          2.3808    1.4000   -0.0226 C.ar      1 <0>        -0.7434
      4 C4          2.3964    0.0207   -0.0201 C.ar      1 <0>         0.1333
      5 C5          1.2072   -0.6851   -0.0088 C.ar      1 <0>        -0.7302
      6 C6          0.0021   -0.0041    0.0020 C.ar      1 <0>         0.1337
      7 Cl1        -1.4913   -0.8891    0.0060 Cl        1 <0>        -0.0137
      8 S1          1.2260   -2.4470   -0.0082 S.o2      1 <0>         2.7016
      9 O1          0.3250   -2.8631   -1.0253 O.2       1 <0>        -0.9417
     10 O2          2.5919   -2.8386    0.0064 O.2       1 <0>        -0.9529
     11 N1          0.5759   -2.9431    1.4318 N.pl3     1 <0>        -1.2432
     12 S2          3.9028    2.2971   -0.0763 S.o2      1 <0>         2.6801
     13 O3          4.3733    2.2366   -1.4158 O.2       1 <0>        -0.9287
     14 O4          4.6796    1.8636    1.0318 O.2       1 <0>        -0.9302
     15 N2          3.4725    3.8817    0.2181 N.pl3     1 <0>        -1.1055
     16 C7          2.2211    4.3393   -0.4192 C.3       1 <0>         0.3697
     17 H1          2.0212    5.3718   -0.1326 H         1 <0>         0.1559
     18 N3          1.1259    3.4846    0.0324 N.pl3     1 <0>        -0.7331
     19 C8          2.3558    4.2457   -1.9404 C.3       1 <0>         0.0047
     20 Cl2         0.8266    4.8050   -2.7146 Cl        1 <0>        -0.1025
     21 Cl3         3.7224    5.2867   -2.4879 Cl        1 <0>        -0.0892
     22 H2         -0.9601    1.9014    0.0260 H         1 <0>         0.1584
     23 H3          3.3379   -0.5083   -0.0273 H         1 <0>         0.1669
     24 H4          0.0997   -3.7866    1.4840 H         1 <0>         0.4253
     25 H5          0.6713   -2.3902    2.2231 H         1 <0>         0.4183
     26 H6          4.0112    4.4668    0.7734 H         1 <0>         0.4414
     27 H7          0.3211    3.9077    0.3703 H         1 <0>         0.4286
     28 H8          2.5501    3.2117   -2.2250 H         1 <0>         0.1453
@<TRIPOS>BOND
     1    1    6 ar
     2    1    2 ar
     3    1   22 1
     4    2   18 1
     5    2    3 ar
     6    3    4 ar
     7    3   12 1
     8    4    5 ar
     9    4   23 1
    10    5    6 ar
    11    5    8 1
    12    6    7 1
    13    8    9 2
    14    8   10 2
    15    8   11 1
    16   11   24 1
    17   11   25 1
    18   12   13 2
    19   12   14 2
    20   12   15 1
    21   15   16 1
    22   15   26 1
    23   16   17 1
    24   16   18 1
    25   16   19 1
    26   18   27 1
    27   19   20 1
    28   19   21 1
    29   19   28 1
@<TRIPOS>MOLECULE
ZINC00897234
   27    28     0     0     0
SMALL
USER_CHARGES

@<TRIPOS>ATOM
      1 C1         -0.0166    1.3759    0.0096 C.ar      1 <0>        -0.2182
      2 C2          1.1783    2.0936    0.0021 C.ar      1 <0>         0.3666
      3 C3          2.3810    1.3999   -0.0038 C.ar      1 <0>        -0.7297
      4 C4          2.3964    0.0208   -0.0214 C.ar      1 <0>         0.1173
      5 C5          1.2071   -0.6851   -0.0176 C.ar      1 <0>        -0.7492
      6 C6          0.0021   -0.0041    0.0020 C.ar      1 <0>         0.1156
      7 Cl1        -1.4912   -0.8892    0.0171 Cl        1 <0>        -0.0510
      8 S1          1.2257   -2.4469   -0.0375 S.o2      1 <0>         2.7044
      9 O1          0.3240   -2.8510   -1.0587 O.2       1 <0>        -0.9572
     10 O2          2.5915   -2.8387   -0.0283 O.2       1 <0>        -0.9676
     11 N1          0.5765   -2.9596    1.3971 N.pl3     1 <0>        -1.2491
     12 S2          3.9039    2.2965    0.0305 S.o2      1 <0>         2.5613
     13 O3          4.6586    1.8762   -1.0977 O.2       1 <0>        -0.9938
     14 O4          4.4006    2.2204    1.3597 O.2       1 <0>        -1.0319
     15 N2          3.4681    3.8842   -0.2385 N.2       1 <0>        -1.0605
     16 C7          2.2292    4.3347    0.4274 C.3       1 <0>         0.3386
     17 H1          2.3449    4.2538    1.5082 H         1 <0>         0.0643
     18 N3          1.1255    3.4848   -0.0123 N.pl3     1 <0>        -0.7365
     19 C8          1.9433    5.7895    0.0494 C.3       1 <0>         0.0974
     20 Cl2         3.3189    6.8290    0.5766 Cl        1 <0>        -0.1226
     21 Cl3         1.7435    5.9179   -1.7379 Cl        1 <0>        -0.1352
     22 H2         -0.9601    1.9014    0.0260 H         1 <0>         0.1407
     23 H3          3.3378   -0.5082   -0.0387 H         1 <0>         0.1498
     24 H4          0.2752   -2.3110    2.0524 H         1 <0>         0.4155
     25 H5          0.4976   -3.9085    1.5821 H         1 <0>         0.4179
     26 H6          0.3146    3.9114   -0.3308 H         1 <0>         0.3923
     27 H7          1.0287    6.1198    0.5419 H         1 <0>         0.1210
@<TRIPOS>BOND
     1    1    6 ar
     2    1    2 ar
     3    1   22 1
     4    2   18 1
     5    2    3 ar
     6    3    4 ar
     7    3   12 1
     8    4    5 ar
     9    4   23 1
    10    5    6 ar
    11    5    8 1
    12    6    7 1
    13    8    9 2
    14    8   10 2
    15    8   11 1
    16   11   24 1
    17   11   25 1
    18   12   13 2
    19   12   14 2
    20   12   15 1
    21   15   16 1
    22   16   17 1
    23   16   18 1
    24   16   19 1
    25   18   26 1
    26   19   20 1
    27   19   21 1
    28   19   27 1
@<TRIPOS>MOLECULE
ZINC00897236
   28    29     0     0     0
SMALL
USER_CHARGES

@<TRIPOS>ATOM
      1 C1         -0.0880    1.4298    0.0212 C.ar      1 <0>        -0.1953
      2 C2          1.1239    2.1185    0.0097 C.ar      1 <0>         0.3454
      3 C3          2.3095    1.3960    0.0037 C.ar      1 <0>        -0.7433
      4 C4          2.2916    0.0168   -0.0104 C.ar      1 <0>         0.1334
      5 C5          1.0857   -0.6601   -0.0027 C.ar      1 <0>        -0.7301
      6 C6         -0.1025    0.0498    0.0172 C.ar      1 <0>         0.1339
      7 Cl1        -1.6167   -0.7991    0.0372 Cl        1 <0>        -0.0139
      8 S1          1.0618   -2.4219   -0.0180 S.o2      1 <0>         2.7020
      9 O1          0.1489   -2.8068   -1.0366 O.2       1 <0>        -0.9422
     10 O2          2.4179   -2.8465   -0.0101 O.2       1 <0>        -0.9529
     11 N1          0.4031   -2.9152    1.4190 N.pl3     1 <0>        -1.2432
     12 S2          3.8536    2.2557    0.0330 S.o2      1 <0>         2.6800
     13 O3          4.5960    1.8145   -1.0954 O.2       1 <0>        -0.9299
     14 O4          4.3507    2.1711    1.3615 O.2       1 <0>        -0.9283
     15 N2          3.4557    3.8528   -0.2394 N.pl3     1 <0>        -1.1055
     16 C7          2.2292    4.3347    0.4274 C.3       1 <0>         0.3692
     17 H1          2.0485    5.3742    0.1535 H         1 <0>         0.1558
     18 N3          1.1045    3.5105   -0.0082 N.pl3     1 <0>        -0.7334
     19 C8          2.3930    4.2248    1.9447 C.3       1 <0>         0.0063
     20 Cl2         3.8576    5.1418    2.4591 Cl        1 <0>        -0.0877
     21 Cl3         0.9376    4.9117    2.7575 Cl        1 <0>        -0.1033
     22 H2         -1.0184    1.9779    0.0378 H         1 <0>         0.1583
     23 H3          3.2200   -0.5347   -0.0279 H         1 <0>         0.1669
     24 H4         -0.0932   -3.7473    1.4648 H         1 <0>         0.4254
     25 H5          0.5135   -2.3719    2.2150 H         1 <0>         0.4185
     26 H6          3.9969    4.4295   -0.8011 H         1 <0>         0.4415
     27 H7          0.3036    3.9557   -0.3264 H         1 <0>         0.4288
     28 H8          2.5040    3.1769    2.2231 H         1 <0>         0.1438
@<TRIPOS>BOND
     1    1    6 ar
     2    1    2 ar
     3    1   22 1
     4    2   18 1
     5    2    3 ar
     6    3    4 ar
     7    3   12 1
     8    4    5 ar
     9    4   23 1
    10    5    6 ar
    11    5    8 1
    12    6    7 1
    13    8    9 2
    14    8   10 2
    15    8   11 1
    16   11   24 1
    17   11   25 1
    18   12   13 2
    19   12   14 2
    20   12   15 1
    21   15   16 1
    22   15   26 1
    23   16   17 1
    24   16   18 1
    25   16   19 1
    26   18   27 1
    27   19   20 1
    28   19   21 1
    29   19   28 1
@<TRIPOS>MOLECULE
ZINC00897236
   27    28     0     0     0
SMALL
USER_CHARGES

@<TRIPOS>ATOM
      1 C1         -0.0166    1.3759    0.0096 C.ar      1 <0>        -0.2165
      2 C2          1.1783    2.0936    0.0021 C.ar      1 <0>         0.3657
      3 C3          2.3808    1.4000   -0.0226 C.ar      1 <0>        -0.7331
      4 C4          2.3964    0.0207   -0.0201 C.ar      1 <0>         0.1186
      5 C5          1.2072   -0.6851   -0.0088 C.ar      1 <0>        -0.7489
      6 C6          0.0021   -0.0041    0.0020 C.ar      1 <0>         0.1160
      7 Cl1        -1.4913   -0.8891    0.0060 Cl        1 <0>        -0.0495
      8 S1          1.2260   -2.4470   -0.0082 S.o2      1 <0>         2.7044
      9 O1          0.3250   -2.8631   -1.0253 O.2       1 <0>        -0.9569
     10 O2          2.5919   -2.8386    0.0064 O.2       1 <0>        -0.9674
     11 N1          0.5759   -2.9431    1.4318 N.pl3     1 <0>        -1.2487
     12 S2          3.9028    2.2971   -0.0763 S.o2      1 <0>         2.5709
     13 O3          4.3733    2.2366   -1.4158 O.2       1 <0>        -1.0262
     14 O4          4.6796    1.8636    1.0318 O.2       1 <0>        -0.9934
     15 N2          3.4725    3.8817    0.2181 N.2       1 <0>        -1.0786
     16 C7          2.2211    4.3393   -0.4192 C.3       1 <0>         0.3464
     17 H1          2.3161    4.2700   -1.5028 H         1 <0>         0.0596
     18 N3          1.1259    3.4846    0.0324 N.pl3     1 <0>        -0.7380
     19 C8          1.9426    5.7898   -0.0201 C.3       1 <0>         0.0996
     20 Cl2         3.3080    6.8351   -0.5623 Cl        1 <0>        -0.1137
     21 Cl3         0.4145    6.3448   -0.7998 Cl        1 <0>        -0.1689
     22 H2         -0.9601    1.9014    0.0260 H         1 <0>         0.1419
     23 H3          3.3379   -0.5083   -0.0273 H         1 <0>         0.1509
     24 H4          0.2741   -2.2870    2.0793 H         1 <0>         0.4157
     25 H5          0.4969   -3.8898    1.6277 H         1 <0>         0.4181
     26 H6          0.3211    3.9077    0.3703 H         1 <0>         0.3938
     27 H7          1.8425    5.8558    1.0633 H         1 <0>         0.1384
@<TRIPOS>BOND
     1    1    6 ar
     2    1    2 ar
     3    1   22 1
     4    2   18 1
     5    2    3 ar
     6    3    4 ar
     7    3   12 1
     8    4    5 ar
     9    4   23 1
    10    5    6 ar
    11    5    8 1
    12    6    7 1
    13    8    9 2
    14    8   10 2
    15    8   11 1
    16   11   24 1
    17   11   25 1
    18   12   13 2
    19   12   14 2
    20   12   15 1
    21   15   16 1
    22   16   17 1
    23   16   18 1
    24   16   19 1
    25   18   26 1
    26   19   20 1
    27   19   21 1
    28   19   27 1
@<TRIPOS>MOLECULE
ZINC00020253
   33    35     0     0     0
SMALL
USER_CHARGES

@<TRIPOS>ATOM
      1 C1         -0.0166    1.3752    0.0096 C.ar      1 <0>        -0.1128
      2 C2          1.1683    2.0900    0.0021 C.ar      1 <0>        -0.0853
      3 C3          2.3827    1.4248   -0.0135 C.ar      1 <0>        -0.0801
      4 C4          2.4125    0.0494   -0.0211 C.ar      1 <0>        -0.0699
      5 C5          1.2226   -0.6819   -0.0132 C.ar      1 <0>        -0.1506
      6 C6          0.0021   -0.0041    0.0020 C.ar      1 <0>        -0.0457
      7 C7          1.5619   -2.1178   -0.0242 C.2       1 <0>         0.5711
      8 O1          0.7510   -3.0233   -0.0214 O.2       1 <0>        -0.5059
      9 N1          2.8961   -2.2814   -0.0383 N.am      1 <0>        -0.7333
     10 C8          3.5334   -0.9597   -0.0376 C.3       1 <0>         0.4302
     11 C9          4.3679   -0.7865   -1.2804 C.ar      1 <0>        -0.1501
     12 C10         4.0419   -1.4766   -2.4333 C.ar      1 <0>        -0.0234
     13 C11         4.8071   -1.3185   -3.5732 C.ar      1 <0>        -0.1256
     14 C12         5.8993   -0.4690   -3.5607 C.ar      1 <0>         0.0634
     15 C13         6.2246    0.2215   -2.4071 C.ar      1 <0>        -0.6749
     16 C14         5.4554    0.0665   -1.2690 C.ar      1 <0>         0.0181
     17 S1          7.6152    1.3034   -2.3902 S.o2      1 <0>         2.6988
     18 O2          7.5000    2.1308   -3.5397 O.2       1 <0>        -0.9422
     19 O3          7.7008    1.8343   -1.0749 O.2       1 <0>        -0.9520
     20 N2          8.9647    0.3697   -2.6124 N.pl3     1 <0>        -1.2428
     21 Cl1         6.8613   -0.2704   -4.9921 Cl        1 <0>        -0.0261
     22 O4          4.3479   -0.8079    1.1267 O.3       1 <0>        -0.5328
     23 H1         -0.9606    1.8997    0.0259 H         1 <0>         0.1398
     24 H2          1.1458    3.1698    0.0081 H         1 <0>         0.1405
     25 H3          3.3058    1.9854   -0.0200 H         1 <0>         0.1355
     26 H4         -0.9249   -0.5581    0.0082 H         1 <0>         0.1386
     27 H5          3.3608   -3.1327   -0.0474 H         1 <0>         0.4250
     28 H6          3.1894   -2.1396   -2.4430 H         1 <0>         0.1437
     29 H7          4.5528   -1.8582   -4.4735 H         1 <0>         0.1513
     30 H8          5.7069    0.6087   -0.3694 H         1 <0>         0.1653
     31 H9          9.7436    0.7408   -3.0557 H         1 <0>         0.4253
     32 H10         8.9763   -0.5484   -2.2994 H         1 <0>         0.4177
     33 H11         5.0869   -1.4298    1.1735 H         1 <0>         0.3890
@<TRIPOS>BOND
     1    1    6 ar
     2    1    2 ar
     3    1   23 1
     4    2    3 ar
     5    2   24 1
     6    3    4 ar
     7    3   25 1
     8    4   10 1
     9    4    5 ar
    10    5    6 ar
    11    5    7 1
    12    6   26 1
    13    7    8 2
    14    7    9 am
    15    9   10 1
    16    9   27 1
    17   10   11 1
    18   10   22 1
    19   11   16 ar
    20   11   12 ar
    21   12   13 ar
    22   12   28 1
    23   13   14 ar
    24   13   29 1
    25   14   15 ar
    26   14   21 1
    27   15   16 ar
    28   15   17 1
    29   16   30 1
    30   17   18 2
    31   17   19 2
    32   17   20 1
    33   20   31 1
    34   20   32 1
    35   22   33 1
@<TRIPOS>MOLECULE
ZINC00057255
   33    35     0     0     0
SMALL
USER_CHARGES

@<TRIPOS>ATOM
      1 C1         -0.0166    1.3752    0.0096 C.ar      1 <0>        -0.1124
      2 C2          1.1683    2.0900    0.0021 C.ar      1 <0>        -0.0872
      3 C3          2.3827    1.4248   -0.0135 C.ar      1 <0>        -0.0799
      4 C4          2.4125    0.0494   -0.0211 C.ar      1 <0>        -0.0709
      5 C5          1.2226   -0.6819   -0.0132 C.ar      1 <0>        -0.1485
      6 C6          0.0021   -0.0041    0.0020 C.ar      1 <0>        -0.0451
      7 C7          1.5619   -2.1178   -0.0242 C.2       1 <0>         0.5701
      8 O1          0.7510   -3.0233   -0.0214 O.2       1 <0>        -0.5012
      9 N1          2.8961   -2.2814   -0.0383 N.am      1 <0>        -0.7354
     10 C8          3.5334   -0.9597   -0.0376 C.3       1 <0>         0.4314
     11 C9          4.3923   -0.7996    1.1903 C.ar      1 <0>        -0.1506
     12 C10         5.4128    0.1332    1.2029 C.ar      1 <0>        -0.0205
     13 C11         6.2011    0.2801    2.3284 C.ar      1 <0>        -0.1261
     14 C12         5.9687   -0.5063    3.4430 C.ar      1 <0>         0.0632
     15 C13         4.9474   -1.4391    3.4299 C.ar      1 <0>        -0.6746
     16 C14         4.1561   -1.5815    2.3053 C.ar      1 <0>         0.0154
     17 S1          4.6507   -2.4410    4.8487 S.o2      1 <0>         2.6964
     18 O2          4.6097   -1.5625    5.9648 O.2       1 <0>        -0.9417
     19 O3          3.5710   -3.3036    4.5181 O.2       1 <0>        -0.9518
     20 N2          5.9812   -3.4053    5.0540 N.pl3     1 <0>        -1.2423
     21 Cl1         6.9590   -0.3227    4.8570 Cl        1 <0>        -0.0262
     22 O4          4.3247   -0.7954   -1.2161 O.3       1 <0>        -0.5339
     23 H1         -0.9606    1.8997    0.0259 H         1 <0>         0.1399
     24 H2          1.1458    3.1698    0.0081 H         1 <0>         0.1395
     25 H3          3.3058    1.9854   -0.0200 H         1 <0>         0.1335
     26 H4         -0.9249   -0.5581    0.0082 H         1 <0>         0.1396
     27 H5          3.3608   -3.1327   -0.0474 H         1 <0>         0.4257
     28 H6          5.5941    0.7469    0.3329 H         1 <0>         0.1533
     29 H7          6.9986    1.0083    2.3379 H         1 <0>         0.1528
     30 H8          3.3561   -2.3069    2.2964 H         1 <0>         0.1557
     31 H9          6.2370   -3.6960    5.9434 H         1 <0>         0.4254
     32 H10         6.5049   -3.6794    4.2849 H         1 <0>         0.4175
     33 H11         5.0625   -1.4167   -1.2841 H         1 <0>         0.3885
@<TRIPOS>BOND
     1    1    6 ar
     2    1    2 ar
     3    1   23 1
     4    2    3 ar
     5    2   24 1
     6    3    4 ar
     7    3   25 1
     8    4   10 1
     9    4    5 ar
    10    5    6 ar
    11    5    7 1
    12    6   26 1
    13    7    8 2
    14    7    9 am
    15    9   10 1
    16    9   27 1
    17   10   11 1
    18   10   22 1
    19   11   16 ar
    20   11   12 ar
    21   12   13 ar
    22   12   28 1
    23   13   14 ar
    24   13   29 1
    25   14   15 ar
    26   14   21 1
    27   15   16 ar
    28   15   17 1
    29   16   30 1
    30   17   18 2
    31   17   19 2
    32   17   20 1
    33   20   31 1
    34   20   32 1
    35   22   33 1
@<TRIPOS>MOLECULE
ZINC01529253
   23    22     0     0     0
SMALL
USER_CHARGES

@<TRIPOS>ATOM
      1 C1         -0.0187    1.5258    0.0104 C.3       1 <0>        -0.1185
      2 C2          0.0021   -0.0041    0.0020 C.3       1 <0>        -0.1546
      3 C3         -1.4333   -0.5336    0.0129 C.3       1 <0>        -0.0098
      4 N1         -1.4134   -2.0025    0.0048 N.4       1 <0>        -0.6393
      5 C4          1.4167    2.0553   -0.0004 C.3       1 <0>        -0.1545
      6 C5          1.3960    3.5852    0.0080 C.3       1 <0>        -0.0098
      7 N2          2.7741    4.0937   -0.0024 N.4       1 <0>        -0.6393
      8 H1         -0.5459    1.8868   -0.8726 H         1 <0>         0.0875
      9 H2         -0.5289    1.8773    0.9072 H         1 <0>         0.0875
     10 H3          0.5123   -0.3556   -0.8948 H         1 <0>         0.0923
     11 H4          0.5293   -0.3651    0.8851 H         1 <0>         0.0923
     12 H5         -1.9435   -0.1821    0.9097 H         1 <0>         0.1360
     13 H6         -1.9605   -0.1726   -0.8702 H         1 <0>         0.1360
     14 H7         -0.9411   -2.3279   -0.8254 H         1 <0>         0.4373
     15 H8         -0.9254   -2.3367    0.8222 H         1 <0>         0.4372
     16 H9          1.9439    1.6943    0.8826 H         1 <0>         0.0923
     17 H10         1.9269    1.7038   -0.8972 H         1 <0>         0.0923
     18 H11         0.8688    3.9463   -0.8751 H         1 <0>         0.1360
     19 H12         0.8858    3.9367    0.9048 H         1 <0>         0.1360
     20 H13         3.2621    3.7594    0.8150 H         1 <0>         0.4372
     21 H14         3.2464    3.7683   -0.8326 H         1 <0>         0.4373
     22 H15        -2.3600   -2.3517    0.0120 H         1 <0>         0.4442
     23 H16         2.7604    5.1025    0.0031 H         1 <0>         0.4442
@<TRIPOS>BOND
     1    1    2 1
     2    1    5 1
     3    1    8 1
     4    1    9 1
     5    2    3 1
     6    2   10 1
     7    2   11 1
     8    3    4 1
     9    3   12 1
    10    3   13 1
    11    4   14 1
    12    4   15 1
    13    4   22 1
    14    5    6 1
    15    5   16 1
    16    5   17 1
    17    6    7 1
    18    6   18 1
    19    6   19 1
    20    7   20 1
    21    7   21 1
    22    7   23 1
@<TRIPOS>MOLECULE
ZINC19365690
   48    47     0     0     0
SMALL
USER_CHARGES
N'-[2-(2-dimethylaminoethyl-methyl-amino)ethyl]-N,N,N'-trimethyl-ethane-1,2-diamine
@<TRIPOS>ATOM
      1 C1          1.3463    2.0098   -0.0000 C.3       1 <0>        -0.0462
      2 N1         -0.0178    1.4648    0.0101 N.4       1 <0>        -0.4005
      3 C2         -0.8017    1.9868   -1.1173 C.3       1 <0>        -0.0528
      4 C3          0.0021   -0.0041    0.0020 C.3       1 <0>        -0.0093
      5 C4         -1.4090   -0.5347    0.2631 C.3       1 <0>         0.0273
      6 N2         -1.3891   -2.0035    0.2551 N.3       1 <0>        -0.5344
      7 C5         -1.0640   -2.5183   -1.0818 C.3       1 <0>         0.0047
      8 C6         -2.6660   -2.5500    0.7334 C.3       1 <0>         0.0553
      9 C7         -2.5268   -4.0584    0.9481 C.3       1 <0>         0.0552
     10 N3         -3.8037   -4.6049    1.4264 N.3       1 <0>        -0.5345
     11 C8         -4.1288   -4.0901    2.7633 C.3       1 <0>         0.0050
     12 C9         -3.7838   -6.0737    1.4184 C.3       1 <0>         0.0273
     13 C10        -5.1949   -6.6044    1.6795 C.3       1 <0>        -0.0093
     14 N4         -5.1749   -8.0732    1.6714 N.4       1 <0>        -0.4005
     15 C11        -4.3911   -8.5953    2.7988 C.3       1 <0>        -0.0524
     16 C12        -6.5390   -8.6183    1.6815 C.3       1 <0>        -0.0462
     17 H1          1.9098    1.6034    0.8528 H         1 <0>         0.1258
     18 H2          1.3037    3.1062    0.0777 H         1 <0>         0.1284
     19 H3          1.8468    1.7279   -0.9381 H         1 <0>         0.1199
     20 H4         -1.8165    1.5634   -1.0855 H         1 <0>         0.1215
     21 H5         -0.3162    1.7047   -2.0632 H         1 <0>         0.1202
     22 H6         -0.8594    3.0831   -1.0474 H         1 <0>         0.1290
     23 H7          0.3524   -0.3606   -0.9779 H         1 <0>         0.1276
     24 H8          0.6812   -0.3660    0.7881 H         1 <0>         0.1407
     25 H9         -1.7593   -0.1781    1.2429 H         1 <0>         0.0985
     26 H10        -2.0881   -0.1729   -0.5230 H         1 <0>         0.0605
     27 H11        -1.0559   -3.6180   -1.0592 H         1 <0>         0.0829
     28 H12        -0.0727   -2.1505   -1.3853 H         1 <0>         0.0746
     29 H13        -1.8199   -2.1719   -1.8019 H         1 <0>         0.0400
     30 H14        -2.9381   -2.0679    1.6840 H         1 <0>         0.0842
     31 H15        -3.4503   -2.3568   -0.0133 H         1 <0>         0.0555
     32 H16        -2.2547   -4.5405   -0.0025 H         1 <0>         0.0843
     33 H17        -1.7426   -4.2517    1.6948 H         1 <0>         0.0556
     34 H18        -5.0875   -4.5144    3.0964 H         1 <0>         0.0738
     35 H19        -4.2067   -2.9935    2.7250 H         1 <0>         0.0831
     36 H20        -3.3357   -4.3769    3.4695 H         1 <0>         0.0404
     37 H21        -3.4334   -6.4303    0.4386 H         1 <0>         0.0984
     38 H22        -3.1047   -6.4355    2.2045 H         1 <0>         0.0605
     39 H23        -5.5452   -6.2478    2.6594 H         1 <0>         0.1277
     40 H24        -5.8740   -6.2426    0.8934 H         1 <0>         0.1407
     41 H25        -4.3928   -9.6949    2.7685 H         1 <0>         0.1289
     42 H26        -4.8370   -8.2539    3.7446 H         1 <0>         0.1198
     43 H27        -3.3567   -8.2281    2.7274 H         1 <0>         0.1216
     44 H28        -6.4947   -9.7174    1.6752 H         1 <0>         0.1283
     45 H29        -7.0804   -8.2680    0.7904 H         1 <0>         0.1260
     46 H30        -7.0633   -8.2777    2.5866 H         1 <0>         0.1198
     47 H31        -0.5052    1.7912    0.9406 H         1 <0>         0.4466
     48 H32        -4.6873   -8.3994    0.7409 H         1 <0>         0.4467
@<TRIPOS>BOND
     1    1    2 1
     2    1   17 1
     3    1   18 1
     4    1   19 1
     5    2    3 1
     6    2    4 1
     7    2   47 1
     8    3   20 1
     9    3   21 1
    10    3   22 1
    11    4    5 1
    12    4   23 1
    13    4   24 1
    14    5    6 1
    15    5   25 1
    16    5   26 1
    17    6    7 1
    18    6    8 1
    19    7   27 1
    20    7   28 1
    21    7   29 1
    22    8    9 1
    23    8   30 1
    24    8   31 1
    25    9   10 1
    26    9   32 1
    27    9   33 1
    28   10   11 1
    29   10   12 1
    30   11   34 1
    31   11   35 1
    32   11   36 1
    33   12   13 1
    34   12   37 1
    35   12   38 1
    36   13   14 1
    37   13   39 1
    38   13   40 1
    39   14   15 1
    40   14   16 1
    41   14   48 1
    42   15   41 1
    43   15   42 1
    44   15   43 1
    45   16   44 1
    46   16   45 1
    47   16   46 1
@<TRIPOS>MOLECULE
ZINC01700217
   29    30     0     0     0
SMALL
USER_CHARGES

@<TRIPOS>ATOM
      1 C1         -0.0164    1.3568    0.0095 C.ar      1 <0>        -0.1044
      2 C2          1.1685    2.0902    0.0021 C.ar      1 <0>        -0.1154
      3 C3          2.3785    1.4660   -0.0127 C.ar      1 <0>        -0.1086
      4 C4          2.4369    0.0637   -0.0208 C.ar      1 <0>        -0.0883
      5 C5          1.2329   -0.6830   -0.0133 C.ar      1 <0>        -0.0154
      6 C6          0.0021   -0.0041    0.0020 C.ar      1 <0>        -0.1079
      7 C7          1.2897   -2.0870   -0.0204 C.ar      1 <0>        -0.1454
      8 C8          2.4960   -2.7188   -0.0343 C.ar      1 <0>        -0.0741
      9 C9          3.6853   -1.9966   -0.0413 C.ar      1 <0>        -0.2035
     10 C10         3.6728   -0.6178   -0.0357 C.ar      1 <0>         0.2107
     11 N1          4.8691    0.0961   -0.0437 N.pl3     1 <0>        -0.7455
     12 C11         6.1482   -0.6180   -0.0592 C.3       1 <0>         0.1008
     13 C12         7.2966    0.3928   -0.0653 C.3       1 <0>        -0.0201
     14 N2          8.5792   -0.3232   -0.0809 N.4       1 <0>        -0.6315
     15 H1         -0.9633    1.8759    0.0259 H         1 <0>         0.1285
     16 H2          1.1264    3.1693    0.0079 H         1 <0>         0.1259
     17 H3          3.2888    2.0471   -0.0187 H         1 <0>         0.1160
     18 H4         -0.9241   -0.5595    0.0082 H         1 <0>         0.1331
     19 H5          0.3773   -2.6647   -0.0144 H         1 <0>         0.1292
     20 H6          2.5301   -3.7982   -0.0396 H         1 <0>         0.1256
     21 H7          4.6289   -2.5219   -0.0517 H         1 <0>         0.1166
     22 H8          4.8552    1.0660   -0.0390 H         1 <0>         0.4055
     23 H9          6.2233   -1.2480    0.8272 H         1 <0>         0.0823
     24 H10         6.2065   -1.2396   -0.9527 H         1 <0>         0.0823
     25 H11         7.2214    1.0228   -0.9517 H         1 <0>         0.1409
     26 H12         7.2383    1.0144    0.8282 H         1 <0>         0.1409
     27 H13         8.6488   -0.9063    0.7396 H         1 <0>         0.4388
     28 H14         8.6331   -0.8986   -0.9080 H         1 <0>         0.4388
     29 H15         9.3366    0.3434   -0.0849 H         1 <0>         0.4445
@<TRIPOS>BOND
     1    1    6 ar
     2    1    2 ar
     3    1   15 1
     4    2    3 ar
     5    2   16 1
     6    3    4 ar
     7    3   17 1
     8    4   10 ar
     9    4    5 ar
    10    5    6 ar
    11    5    7 ar
    12    6   18 1
    13    7    8 ar
    14    7   19 1
    15    8    9 ar
    16    8   20 1
    17    9   10 ar
    18    9   21 1
    19   10   11 1
    20   11   12 1
    21   11   22 1
    22   12   13 1
    23   12   23 1
    24   12   24 1
    25   13   14 1
    26   13   25 1
    27   13   26 1
    28   14   27 1
    29   14   28 1
    30   14   29 1
@<TRIPOS>MOLECULE
ZINC00493069
   31    33     0     0     0
SMALL
USER_CHARGES

@<TRIPOS>ATOM
      1 C1         -0.0167    1.3781    0.0096 C.ar      1 <0>        -0.1060
      2 C2          1.1709    2.0855    0.0021 C.ar      1 <0>        -0.1228
      3 C3          2.3773    1.4107   -0.0130 C.ar      1 <0>        -0.0937
      4 C4          2.3960    0.0285   -0.0201 C.ar      1 <0>        -0.1034
      5 C5          1.2084   -0.6789   -0.0117 C.ar      1 <0>        -0.0937
      6 C6          0.0021   -0.0041    0.0020 C.ar      1 <0>        -0.1228
      7 C7          3.7112   -0.7071   -0.0376 C.3       1 <0>         0.1002
      8 O1          4.1410   -0.9464    1.3041 O.3       1 <0>        -0.2980
      9 C8          5.3173   -1.6042    1.4664 C.ar      1 <0>         0.1911
     10 C9          6.0448   -2.0055    0.3474 C.ar      1 <0>        -0.2289
     11 C10         7.2287   -2.6681    0.4939 C.ar      1 <0>        -0.0093
     12 C11         7.7161   -2.9461    1.7761 C.ar      1 <0>        -0.2014
     13 C12         8.9837   -3.6549    1.9637 C.2       1 <0>         0.0110
     14 C13         9.4033   -3.8944    3.2334 C.2       1 <0>        -0.2572
     15 C14         8.6211   -3.4620    4.3239 C.2       1 <0>         0.5095
     16 O2          9.0089   -3.6832    5.4570 O.2       1 <0>        -0.4611
     17 O3          7.4602   -2.8124    4.1451 O.3       1 <0>        -0.2700
     18 C15         6.9862   -2.5430    2.9098 C.ar      1 <0>         0.1901
     19 C16         5.7874   -1.8661    2.7427 C.ar      1 <0>        -0.1768
     20 H1         -0.9591    1.9053    0.0259 H         1 <0>         0.1260
     21 H2          1.1563    3.1654    0.0076 H         1 <0>         0.1269
     22 H3          3.3051    1.9634   -0.0196 H         1 <0>         0.1251
     23 H4          1.2231   -1.7588   -0.0176 H         1 <0>         0.1251
     24 H5         -0.9258   -0.5567    0.0082 H         1 <0>         0.1269
     25 H6          3.5884   -1.6586   -0.5549 H         1 <0>         0.0779
     26 H7          4.4573   -0.1052   -0.5563 H         1 <0>         0.0779
     27 H8          5.6688   -1.7911   -0.6421 H         1 <0>         0.1417
     28 H9          7.7878   -2.9773   -0.3769 H         1 <0>         0.1444
     29 H10         9.5690   -3.9787    1.1157 H         1 <0>         0.1540
     30 H11        10.3335   -4.4151    3.4070 H         1 <0>         0.1646
     31 H12         5.2201   -1.5480    3.6049 H         1 <0>         0.1527
@<TRIPOS>BOND
     1    1    6 ar
     2    1    2 ar
     3    1   20 1
     4    2    3 ar
     5    2   21 1
     6    3    4 ar
     7    3   22 1
     8    4    5 ar
     9    4    7 1
    10    5    6 ar
    11    5   23 1
    12    6   24 1
    13    7    8 1
    14    7   25 1
    15    7   26 1
    16    8    9 1
    17    9   19 ar
    18    9   10 ar
    19   10   11 ar
    20   10   27 1
    21   11   12 ar
    22   11   28 1
    23   12   18 ar
    24   12   13 1
    25   13   14 2
    26   13   29 1
    27   14   15 1
    28   14   30 1
    29   15   16 2
    30   15   17 1
    31   17   18 1
    32   18   19 ar
    33   19   31 1
@<TRIPOS>MOLECULE
ZINC00896918
   22    22     0     0     0
SMALL
USER_CHARGES

@<TRIPOS>ATOM
      1 C1         -0.0167    1.3778    0.0096 C.ar      1 <0>         0.0974
      2 C2          1.1707    2.0862    0.0021 C.ar      1 <0>        -0.6868
      3 C3          2.3777    1.4131   -0.0135 C.ar      1 <0>         0.0588
      4 C4          2.3983    0.0299   -0.0210 C.ar      1 <0>        -0.0734
      5 C5          1.2094   -0.6794   -0.0130 C.ar      1 <0>         0.1016
      6 C6          0.0021   -0.0041    0.0020 C.ar      1 <0>        -0.6843
      7 S1         -1.5117   -0.9057    0.0122 S.o2      1 <0>         2.7000
      8 O1         -1.3921   -1.8888    1.0313 O.2       1 <0>        -0.9349
      9 O2         -2.5575    0.0562    0.0006 O.2       1 <0>        -0.9450
     10 N1         -1.6044   -1.7230   -1.4251 N.pl3     1 <0>        -1.2435
     11 Cl1         1.2335   -2.4152   -0.0231 Cl        1 <0>         0.0087
     12 Cl2         3.9142   -0.8161   -0.0412 Cl        1 <0>        -0.0140
     13 S2          1.1451    3.8480    0.0117 S.o2      1 <0>         2.7054
     14 O3          2.3791    4.2752   -0.5486 O.2       1 <0>        -0.9481
     15 O4         -0.1113    4.2388   -0.5251 O.2       1 <0>        -0.9447
     16 N2          1.1530    4.3291    1.5963 N.pl3     1 <0>        -1.2462
     17 H1         -0.9593    1.9047    0.0259 H         1 <0>         0.1825
     18 H2          3.3048    1.9671   -0.0201 H         1 <0>         0.1751
     19 H3         -0.8907   -1.6407   -2.0768 H         1 <0>         0.4176
     20 H4         -2.3725   -2.2840   -1.6154 H         1 <0>         0.4278
     21 H5          1.1694    3.6663    2.3043 H         1 <0>         0.4190
     22 H6          1.1413    5.2737    1.8164 H         1 <0>         0.4268
@<TRIPOS>BOND
     1    1    6 ar
     2    1    2 ar
     3    1   17 1
     4    2    3 ar
     5    2   13 1
     6    3    4 ar
     7    3   18 1
     8    4    5 ar
     9    4   12 1
    10    5    6 ar
    11    5   11 1
    12    6    7 1
    13    7    8 2
    14    7    9 2
    15    7   10 1
    16   10   19 1
    17   10   20 1
    18   13   14 2
    19   13   15 2
    20   13   16 1
    21   16   21 1
    22   16   22 1
@<TRIPOS>MOLECULE
ZINC00056721
   26    27     0     0     0
SMALL
USER_CHARGES

@<TRIPOS>ATOM
      1 C1         -0.0187    1.5258    0.0104 C.3       1 <0>        -0.1547
      2 C2          0.0021   -0.0041    0.0020 C.3       1 <0>         0.0492
      3 O1          0.6932   -0.4774    1.1597 O.3       1 <0>        -0.3006
      4 C3          0.8020   -1.8247    1.3057 C.ar      1 <0>         0.1921
      5 C4          0.2604   -2.6828    0.3521 C.ar      1 <0>        -0.2018
      6 C5          0.3546   -4.0332    0.4731 C.ar      1 <0>         0.0140
      7 C6          1.0107   -4.6197    1.5806 C.ar      1 <0>        -0.0020
      8 C7          1.5510   -3.7250    2.5328 C.ar      1 <0>        -0.0796
      9 C8          1.4586   -2.3607    2.4030 C.ar      1 <0>        -0.1219
     10 S1          2.2658   -4.8318    3.7244 S.3       1 <0>         0.1249
     11 C9          1.8165   -6.3576    2.9091 C.2       1 <0>        -0.4422
     12 N1          1.1890   -5.9318    1.8469 N.2       1 <0>        -0.3736
     13 S2          2.1387   -8.0154    3.4117 S.o2      1 <0>         2.7381
     14 O2          3.5473   -8.1923    3.3489 O.2       1 <0>        -0.9371
     15 O3          1.3964   -8.2298    4.6043 O.2       1 <0>        -0.9317
     16 N2          1.4848   -9.0116    2.2617 N.pl3     1 <0>        -1.2315
     17 H1          1.0039    1.9031    0.0027 H         1 <0>         0.0693
     18 H2         -0.5459    1.8868   -0.8726 H         1 <0>         0.0837
     19 H3         -0.5289    1.8773    0.9072 H         1 <0>         0.0693
     20 H4         -1.0205   -0.3814    0.0098 H         1 <0>         0.0697
     21 H5          0.5123   -0.3556   -0.8948 H         1 <0>         0.0697
     22 H6         -0.2474   -2.2649   -0.5046 H         1 <0>         0.1477
     23 H7         -0.0778   -4.6673   -0.2867 H         1 <0>         0.1464
     24 H8          1.8895   -1.7116    3.1509 H         1 <0>         0.1511
     25 H9          1.8842   -9.8780    2.0868 H         1 <0>         0.4270
     26 H10         0.7024   -8.7286    1.7631 H         1 <0>         0.4245
@<TRIPOS>BOND
     1    1    2 1
     2    1   17 1
     3    1   18 1
     4    1   19 1
     5    2    3 1
     6    2   20 1
     7    2   21 1
     8    3    4 1
     9    4    9 ar
    10    4    5 ar
    11    5    6 ar
    12    5   22 1
    13    6    7 ar
    14    6   23 1
    15    7   12 1
    16    7    8 ar
    17    8    9 ar
    18    8   10 1
    19    9   24 1
    20   10   11 1
    21   11   12 2
    22   11   13 1
    23   13   14 2
    24   13   15 2
    25   13   16 1
    26   16   25 1
    27   16   26 1
@<TRIPOS>MOLECULE
ZINC12503151
   23    23     0     0     0
SMALL
NO_CHARGES

@<TRIPOS>ATOM
      1 C1         -0.3789    1.0705    0.3515 C.3       1 <0>        -0.1347
      2 C2          0.5076   -0.1196    0.0888 C.2       1 <0>         0.4551
      3 O1          1.3641   -0.4298    0.8951 O.3       1 <0>        -0.3923
      4 N1          0.3540   -0.8288   -1.0216 N.2       1 <0>        -0.6178
      5 C3         -0.0468   -2.1007   -0.9514 C.2       1 <0>         0.3126
      6 N2         -0.4722   -2.7924    0.1303 N.pl3     1 <0>        -0.4005
      7 N3         -0.8397   -4.1105   -0.0380 N.pl3     1 <0>        -0.2827
      8 C4         -0.7560   -4.6173   -1.2349 C.2       1 <0>        -0.3295
      9 S1         -0.1544   -3.2357   -2.1872 S.3       1 <0>         0.3047
     10 S2         -1.1447   -6.2486   -1.7756 S.o2      1 <0>         2.5478
     11 O2         -0.0915   -6.6516   -2.6403 O.2       1 <0>        -0.9992
     12 O3         -1.5023   -6.9867   -0.6152 O.2       1 <0>        -1.0188
     13 N4         -2.5089   -6.1432   -2.7085 N.2       1 <0>        -1.2921
     14 C5         -0.5404   -2.1568    1.4485 C.3       1 <0>        -0.0096
     15 H1          0.0812    1.9657   -0.0669 H         1 <0>         0.1260
     16 H2         -1.3508    0.9096   -0.1151 H         1 <0>         0.1164
     17 H3         -0.5083    1.1970    1.4263 H         1 <0>         0.1126
     18 H4         -2.8882   -6.9430   -3.1051 H         1 <0>         0.3463
     19 H5         -0.8348   -1.1136    1.3340 H         1 <0>         0.0956
     20 H6         -1.2744   -2.6760    2.0647 H         1 <0>         0.1123
     21 H7          0.4374   -2.2079    1.9275 H         1 <0>         0.0918
     22 H8         -1.1502   -4.6433    0.7107 H         1 <0>         0.4270
     23 H9          1.8975   -1.1912    0.6290 H         1 <0>         0.4290
@<TRIPOS>BOND
     1    1    2 1
     2    1   15 1
     3    1   16 1
     4    1   17 1
     5    2    3 2
     6    2    4 1
     7    3   23 1
     8    4    5 2
     9    5    9 1
    10    5    6 1
    11    6    7 1
    12    6   14 1
    13    7    8 2
    14    7   22 1
    15    8    9 1
    16    8   10 1
    17   10   11 2
    18   10   12 2
    19   10   13 1
    20   13   18 1
    21   14   19 1
    22   14   20 1
    23   14   21 1
@<TRIPOS>MOLECULE
ZINC12503151
   23    23     0     0     0
SMALL
NO_CHARGES

@<TRIPOS>ATOM
      1 C1         -1.1346    0.9241    0.3407 C.3       1 <0>        -0.1307
      2 C2          0.0031   -0.0044    0.0020 C.2       1 <0>         0.4894
      3 O1          0.9224   -0.1509    0.7852 O.3       1 <0>        -0.3736
      4 N1          0.0020   -0.6621   -1.1500 N.2       1 <0>        -0.6464
      5 C3         -0.0802   -1.9949   -1.1578 C.2       1 <0>         0.3469
      6 N2          0.0027   -2.8388   -2.2117 N.pl3     1 <0>        -0.3538
      7 N3         -0.1119   -4.1925   -1.9774 N.pl3     1 <0>        -0.2782
      8 C4         -0.2944   -4.5840   -0.7486 C.2       1 <0>        -0.3302
      9 S1         -0.3048   -3.0391    0.1407 S.3       1 <0>         0.0989
     10 S2         -0.4768   -6.2215   -0.1244 S.o2      1 <0>         2.5579
     11 O2         -1.5476   -6.1834    0.8090 O.2       1 <0>        -1.0001
     12 O3         -0.4786   -7.0877   -1.2508 O.2       1 <0>        -1.0219
     13 N4          0.8919   -6.5715    0.7396 N.2       1 <0>        -1.2976
     14 C5          0.2086   -2.3268   -3.5688 C.3       1 <0>         0.0360
     15 H1         -0.9060    1.9262   -0.0224 H         1 <0>         0.1254
     16 H2         -2.0490    0.5661   -0.1324 H         1 <0>         0.1183
     17 H3         -1.2715    0.9518    1.4217 H         1 <0>         0.1209
     18 H4          0.9868   -7.4364    1.1685 H         1 <0>         0.3466
     19 H5          1.2771   -2.2630   -3.7748 H         1 <0>         0.0931
     20 H6         -0.2601   -3.0003   -4.2862 H         1 <0>         0.0994
     21 H7         -0.2378   -1.3362   -3.6550 H         1 <0>         0.1167
     22 H8         -0.0588   -4.8327   -2.7042 H         1 <0>         0.4514
     23 H9          1.5651   -0.8215    0.5163 H         1 <0>         0.4315
@<TRIPOS>BOND
     1    1    2 1
     2    1   15 1
     3    1   16 1
     4    1   17 1
     5    2    3 2
     6    2    4 1
     7    3   23 1
     8    4    5 2
     9    5    9 1
    10    5    6 1
    11    6    7 1
    12    6   14 1
    13    7    8 2
    14    7   22 1
    15    8    9 1
    16    8   10 1
    17   10   11 2
    18   10   12 2
    19   10   13 1
    20   13   18 1
    21   14   19 1
    22   14   20 1
    23   14   21 1
@<TRIPOS>MOLECULE
ZINC00057719
   24    25     0     0     0
SMALL
USER_CHARGES
7-ethoxychromen-2-one
@<TRIPOS>ATOM
      1 C1         -2.5802    4.0249    0.0361 C.3       1 <0>        -0.1550
      2 C2         -1.1559    3.4661    0.0264 C.3       1 <0>         0.0514
      3 O1         -1.2045    2.0380    0.0188 O.3       1 <0>        -0.3054
      4 C3         -0.0167    1.3809    0.0096 C.ar      1 <0>         0.1915
      5 C4          1.1738    2.1055    0.0022 C.ar      1 <0>        -0.2283
      6 C5          2.3758    1.4597   -0.0124 C.ar      1 <0>        -0.0099
      7 C6          2.4136    0.0606   -0.0207 C.ar      1 <0>        -0.2019
      8 C7          3.6889   -0.6590   -0.0367 C.2       1 <0>         0.0111
      9 C8          3.6594   -2.0171   -0.0437 C.2       1 <0>        -0.2573
     10 C9          2.4212   -2.6917   -0.0355 C.2       1 <0>         0.5094
     11 O2          2.4090   -3.9096   -0.0419 O.2       1 <0>        -0.4613
     12 O3          1.2557   -2.0261   -0.0204 O.3       1 <0>        -0.2701
     13 C10         1.2148   -0.6765   -0.0132 C.ar      1 <0>         0.1898
     14 C11         0.0021   -0.0041    0.0020 C.ar      1 <0>        -0.1781
     15 H1         -3.1019    3.6744    0.9267 H         1 <0>         0.0688
     16 H2         -2.5431    5.1142    0.0419 H         1 <0>         0.0826
     17 H3         -3.1103    3.6840   -0.8532 H         1 <0>         0.0689
     18 H4         -0.6258    3.8069    0.9157 H         1 <0>         0.0683
     19 H5         -0.6342    3.8166   -0.8642 H         1 <0>         0.0683
     20 H6          1.1448    3.1851    0.0083 H         1 <0>         0.1416
     21 H7          3.2952    2.0265   -0.0186 H         1 <0>         0.1442
     22 H8          4.6273   -0.1245   -0.0425 H         1 <0>         0.1540
     23 H9          4.5819   -2.5786   -0.0559 H         1 <0>         0.1647
     24 H10        -0.9248   -0.5585    0.0076 H         1 <0>         0.1528
@<TRIPOS>BOND
     1    1    2 1
     2    1   15 1
     3    1   16 1
     4    1   17 1
     5    2    3 1
     6    2   18 1
     7    2   19 1
     8    3    4 1
     9    4   14 ar
    10    4    5 ar
    11    5    6 ar
    12    5   20 1
    13    6    7 ar
    14    6   21 1
    15    7   13 ar
    16    7    8 1
    17    8    9 2
    18    8   22 1
    19    9   10 1
    20    9   23 1
    21   10   11 2
    22   10   12 1
    23   12   13 1
    24   13   14 ar
    25   14   24 1
@<TRIPOS>MOLECULE
ZINC03813042
   19    19     0     0     0
SMALL
USER_CHARGES

@<TRIPOS>ATOM
      1 C1         -0.0184    1.5028    0.0103 C.3       1 <0>        -0.1669
      2 C2          0.0021   -0.0041    0.0020 C.2       1 <0>         0.5048
      3 O1          1.0605   -0.5961   -0.0113 O.2       1 <0>        -0.4597
      4 N1         -1.1558   -0.6938    0.0094 N.am      1 <0>        -0.6127
      5 C3         -1.1370   -2.0844    0.0017 C.2       1 <0>         0.2593
      6 N2         -0.1026   -2.9019   -0.0067 N.2       1 <0>        -0.3105
      7 N3         -0.2439   -4.1575   -0.0130 N.2       1 <0>        -0.1075
      8 C4         -1.4599   -4.6659   -0.0111 C.2       1 <0>        -0.5832
      9 S1         -2.4308   -3.1653    0.0083 S.3       1 <0>         0.2359
     10 S2         -1.9811   -6.3490   -0.0183 S.o2      1 <0>         2.7480
     11 O2         -1.9574   -6.7873    1.3333 O.2       1 <0>        -0.9356
     12 O3         -3.1545   -6.4075   -0.8177 O.2       1 <0>        -0.9350
     13 N4         -0.8199   -7.2178   -0.8179 N.pl3     1 <0>        -1.2313
     14 H1          1.0042    1.8801    0.0026 H         1 <0>         0.1076
     15 H2         -0.5455    1.8639   -0.8728 H         1 <0>         0.1002
     16 H3         -0.5286    1.8543    0.9071 H         1 <0>         0.1002
     17 H4         -2.0023   -0.2203    0.0200 H         1 <0>         0.4348
     18 H5         -0.6611   -8.1456   -0.5837 H         1 <0>         0.4284
     19 H6         -0.2986   -6.7988   -1.5204 H         1 <0>         0.4232
@<TRIPOS>BOND
     1    1    2 1
     2    1   14 1
     3    1   15 1
     4    1   16 1
     5    2    3 2
     6    2    4 am
     7    4    5 1
     8    4   17 1
     9    5    9 1
    10    5    6 2
    11    6    7 1
    12    7    8 2
    13    8    9 1
    14    8   10 1
    15   10   11 2
    16   10   12 2
    17   10   13 1
    18   13   18 1
    19   13   19 1
@<TRIPOS>MOLECULE
ZINC03813042
   18    18     0     0     0
SMALL
USER_CHARGES

@<TRIPOS>ATOM
      1 C1         -0.0184    1.5028    0.0103 C.3       1 <0>        -0.1624
      2 C2          0.0021   -0.0041    0.0020 C.2       1 <0>         0.5010
      3 O1          0.0203   -0.6161    1.0490 O.2       1 <0>        -0.4698
      4 N1          0.0001   -0.6716   -1.1688 N.am      1 <0>        -0.6150
      5 C3          0.0189   -2.0622   -1.1765 C.2       1 <0>         0.2229
      6 N2          0.0342   -2.8992   -0.1578 N.2       1 <0>        -0.3133
      7 N3          0.0506   -4.1518   -0.3231 N.2       1 <0>        -0.1306
      8 C4          0.0525   -4.6369   -1.5486 C.2       1 <0>        -0.4261
      9 S1          0.0209   -3.1183   -2.4906 S.3       1 <0>         0.1375
     10 S2          0.0731   -6.3097   -2.1017 S.o2      1 <0>         2.6009
     11 O2         -1.2748   -6.7592   -2.0864 O.2       1 <0>        -1.0365
     12 O3          0.8728   -6.3393   -3.2760 O.2       1 <0>        -1.0415
     13 N4          0.8799   -7.1939   -0.9573 N.2       1 <0>        -1.3126
     14 H1          1.0042    1.8801    0.0026 H         1 <0>         0.1013
     15 H2         -0.5455    1.8639   -0.8728 H         1 <0>         0.0851
     16 H3         -0.5286    1.8543    0.9071 H         1 <0>         0.1022
     17 H4         -0.0145   -0.1822   -2.0061 H         1 <0>         0.4269
     18 H5          0.9999   -8.1489   -1.0779 H         1 <0>         0.3298
@<TRIPOS>BOND
     1    1    2 1
     2    1   14 1
     3    1   15 1
     4    1   16 1
     5    2    3 2
     6    2    4 am
     7    4    5 1
     8    4   17 1
     9    5    9 1
    10    5    6 2
    11    6    7 1
    12    7    8 2
    13    8    9 1
    14    8   10 1
    15   10   11 2
    16   10   12 2
    17   10   13 1
    18   13   18 1
@<TRIPOS>MOLECULE
ZINC00002101
   19    19     0     0     0
SMALL
USER_CHARGES

@<TRIPOS>ATOM
      1 C1         -0.0168    1.3849    0.0097 C.ar      1 <0>        -0.2192
      2 C2          1.1707    2.0901    0.0021 C.ar      1 <0>         0.0295
      3 C3          2.3774    1.4150   -0.0135 C.ar      1 <0>        -0.7336
      4 C4          2.3998    0.0323   -0.0211 C.ar      1 <0>         0.0295
      5 C5          1.2161   -0.6790   -0.0137 C.ar      1 <0>        -0.2192
      6 C6          0.0021   -0.0041    0.0020 C.ar      1 <0>         0.2713
      7 N1         -1.1970   -0.7204    0.0101 N.pl3     1 <0>        -0.8647
      8 S1          3.8900    2.3186   -0.0243 S.o2      1 <0>         2.7050
      9 O1          4.8717    1.4606   -0.5894 O.2       1 <0>        -0.9693
     10 O2          3.5945    3.5988   -0.5657 O.2       1 <0>        -0.9693
     11 N2          4.3264    2.5618    1.5546 N.pl3     1 <0>        -1.2522
     12 H1         -0.9589    1.9127    0.0260 H         1 <0>         0.1318
     13 H2          1.1567    3.1700    0.0080 H         1 <0>         0.1423
     14 H3          3.3440   -0.4918   -0.0333 H         1 <0>         0.1423
     15 H4          1.2342   -1.7588   -0.0200 H         1 <0>         0.1318
     16 H5         -2.0441   -0.2480    0.0210 H         1 <0>         0.4043
     17 H6         -1.1825   -1.6903    0.0047 H         1 <0>         0.4042
     18 H7          3.7678    2.2202    2.2703 H         1 <0>         0.4159
     19 H8          5.1405    3.0458    1.7638 H         1 <0>         0.4195
@<TRIPOS>BOND
     1    1    6 ar
     2    1    2 ar
     3    1   12 1
     4    2    3 ar
     5    2   13 1
     6    3    4 ar
     7    3    8 1
     8    4    5 ar
     9    4   14 1
    10    5    6 ar
    11    5   15 1
    12    6    7 1
    13    7   16 1
    14    7   17 1
    15    8    9 2
    16    8   10 2
    17    8   11 1
    18   11   18 1
    19   11   19 1
@<TRIPOS>MOLECULE
ZINC01530621
   36    37     0     0     0
SMALL
USER_CHARGES

@<TRIPOS>ATOM
      1 C1         -0.1492    1.5288   -2.3323 C.3       1 <0>        -0.1908
      2 C2         -0.1164   -0.0009   -2.3383 C.3       1 <0>        -0.0181
      3 N1          0.6897   -0.4778   -1.2066 N.4       1 <0>        -0.5107
      4 C3          0.6171   -1.9434   -1.1370 C.3       1 <0>         0.0811
      5 H1         -0.4294   -2.2430   -1.0818 H         1 <0>         0.1707
      6 C4          1.2315   -2.5278   -2.3982 C.3       1 <0>        -0.1422
      7 C5          1.0962   -4.0576   -2.4201 C.3       1 <0>        -0.5404
      8 H2          1.3613   -4.4411   -3.4054 H         1 <0>         0.1747
      9 S1          2.2539   -4.7069   -1.1650 S.o2      1 <0>         2.5047
     10 O1          3.5991   -4.5241   -1.5850 O.2       1 <0>        -0.8957
     11 O2          1.8041   -5.9618   -0.6729 O.2       1 <0>        -0.8922
     12 C6          2.0269   -3.5802    0.1606 C.2       1 <0>        -0.7063
     13 C7          1.3317   -2.4135    0.1206 C.2       1 <0>        -0.0916
     14 C8          1.3152   -1.6792    1.3120 C.2       1 <0>        -0.0530
     15 C9          1.9529   -2.1428    2.4103 C.2       1 <0>        -0.7342
     16 S2          2.6320   -3.6831    1.8188 S.3       1 <0>         0.4502
     17 S3          2.0784   -1.4167    4.0108 S.o2      1 <0>         2.7294
     18 O3          3.2503   -1.9529    4.6093 O.2       1 <0>        -0.9323
     19 O4          1.8813   -0.0198    3.8397 O.2       1 <0>        -0.9386
     20 N2          0.7966   -1.9699    4.9014 N.pl3     1 <0>        -1.2425
     21 C10        -0.3376   -4.4611   -2.0706 C.3       1 <0>        -0.1547
     22 H3         -0.5902    1.8790   -1.3990 H         1 <0>         0.0836
     23 H4          0.8664    1.9144   -2.4215 H         1 <0>         0.0841
     24 H5         -0.7473    1.8826   -3.1720 H         1 <0>         0.1120
     25 H6         -1.1320   -0.3865   -2.2491 H         1 <0>         0.1372
     26 H7          0.3246   -0.3511   -3.2716 H         1 <0>         0.1380
     27 H8          1.6496   -0.1943   -1.3342 H         1 <0>         0.4338
     28 H9          0.7251   -2.1113   -3.2689 H         1 <0>         0.1303
     29 H10         2.2877   -2.2615   -2.4382 H         1 <0>         0.1132
     30 H11         0.7901   -0.7364    1.3541 H         1 <0>         0.1546
     31 H12         0.1572   -2.5812    4.5032 H         1 <0>         0.4194
     32 H13         0.6850   -1.6827    5.8211 H         1 <0>         0.4322
     33 H14        -1.0243   -4.0299   -2.7990 H         1 <0>         0.0942
     34 H15        -0.4240   -5.5475   -2.0887 H         1 <0>         0.0985
     35 H16        -0.5861   -4.0934   -1.0750 H         1 <0>         0.0698
     36 H17         0.3332   -0.0823   -0.3495 H         1 <0>         0.4317
@<TRIPOS>BOND
     1    1    2 1
     2    1   22 1
     3    1   23 1
     4    1   24 1
     5    2    3 1
     6    2   25 1
     7    2   26 1
     8    3    4 1
     9    3   27 1
    10    3   36 1
    11    4    5 1
    12    4   13 1
    13    4    6 1
    14    6    7 1
    15    6   28 1
    16    6   29 1
    17    7    8 1
    18    7    9 1
    19    7   21 1
    20    9   10 2
    21    9   11 2
    22    9   12 1
    23   12   16 1
    24   12   13 2
    25   13   14 1
    26   14   15 2
    27   14   30 1
    28   15   16 1
    29   15   17 1
    30   17   18 2
    31   17   19 2
    32   17   20 1
    33   20   31 1
    34   20   32 1
    35   21   33 1
    36   21   34 1
    37   21   35 1
@<TRIPOS>MOLECULE
ZINC01530621
   35    36     0     0     0
SMALL
USER_CHARGES

@<TRIPOS>ATOM
      1 C1         -0.1492    1.5288   -2.3323 C.3       1 <0>        -0.1899
      2 C2         -0.1164   -0.0009   -2.3383 C.3       1 <0>        -0.0168
      3 N1          0.6897   -0.4778   -1.2066 N.4       1 <0>        -0.5101
      4 C3          0.6171   -1.9434   -1.1370 C.3       1 <0>         0.0836
      5 H1         -0.4294   -2.2430   -1.0818 H         1 <0>         0.1646
      6 C4          1.2315   -2.5278   -2.3982 C.3       1 <0>        -0.1369
      7 C5          1.0962   -4.0576   -2.4201 C.3       1 <0>        -0.5464
      8 H2          1.3613   -4.4411   -3.4054 H         1 <0>         0.1665
      9 S1          2.2539   -4.7069   -1.1650 S.o2      1 <0>         2.5192
     10 O1          3.5991   -4.5241   -1.5850 O.2       1 <0>        -0.9107
     11 O2          1.8041   -5.9618   -0.6729 O.2       1 <0>        -0.9035
     12 C6          2.0269   -3.5802    0.1606 C.2       1 <0>        -0.7471
     13 C7          1.3317   -2.4135    0.1206 C.2       1 <0>        -0.0802
     14 C8          1.3152   -1.6792    1.3120 C.2       1 <0>        -0.1090
     15 C9          1.9529   -2.1428    2.4103 C.2       1 <0>        -0.5881
     16 S2          2.6320   -3.6831    1.8188 S.3       1 <0>         0.3963
     17 S3          2.0784   -1.4167    4.0108 S.o2      1 <0>         2.5827
     18 O3          3.2503   -1.9529    4.6093 O.2       1 <0>        -1.0359
     19 O4          1.8813   -0.0198    3.8397 O.2       1 <0>        -1.0427
     20 N2          0.7966   -1.9699    4.9014 N.2       1 <0>        -1.3223
     21 C10        -0.3376   -4.4611   -2.0706 C.3       1 <0>        -0.1530
     22 H3         -0.5902    1.8790   -1.3990 H         1 <0>         0.0843
     23 H4          0.8664    1.9144   -2.4215 H         1 <0>         0.0823
     24 H5         -0.7473    1.8826   -3.1720 H         1 <0>         0.1074
     25 H6         -1.1320   -0.3865   -2.2491 H         1 <0>         0.1347
     26 H7          0.3246   -0.3511   -3.2716 H         1 <0>         0.1340
     27 H8          1.6496   -0.1943   -1.3342 H         1 <0>         0.4317
     28 H9          0.7251   -2.1113   -3.2689 H         1 <0>         0.1221
     29 H10         2.2877   -2.2615   -2.4382 H         1 <0>         0.1096
     30 H11         0.7901   -0.7364    1.3541 H         1 <0>         0.1443
     31 H12         0.6850   -1.6827    5.8211 H         1 <0>         0.3366
     32 H13        -1.0243   -4.0299   -2.7990 H         1 <0>         0.0883
     33 H14        -0.4240   -5.5475   -2.0887 H         1 <0>         0.0947
     34 H15        -0.5861   -4.0934   -1.0750 H         1 <0>         0.0739
     35 H16         0.3332   -0.0823   -0.3495 H         1 <0>         0.4358
@<TRIPOS>BOND
     1    1    2 1
     2    1   22 1
     3    1   23 1
     4    1   24 1
     5    2    3 1
     6    2   25 1
     7    2   26 1
     8    3    4 1
     9    3   27 1
    10    3   35 1
    11    4    5 1
    12    4   13 1
    13    4    6 1
    14    6    7 1
    15    6   28 1
    16    6   29 1
    17    7    8 1
    18    7    9 1
    19    7   21 1
    20    9   10 2
    21    9   11 2
    22    9   12 1
    23   12   16 1
    24   12   13 2
    25   13   14 1
    26   14   15 2
    27   14   30 1
    28   15   16 1
    29   15   17 1
    30   17   18 2
    31   17   19 2
    32   17   20 1
    33   20   31 1
    34   21   32 1
    35   21   33 1
    36   21   34 1
@<TRIPOS>MOLECULE
ZINC03953037
   45    46     0     0     0
SMALL
USER_CHARGES

@<TRIPOS>ATOM
      1 C1         -0.1443    1.5287   -2.3361 C.3       1 <0>        -0.1906
      2 C2         -0.1122   -0.0010   -2.3413 C.3       1 <0>        -0.0185
      3 N1          0.6897   -0.4778   -1.2066 N.4       1 <0>        -0.5081
      4 C3          0.6170   -1.9434   -1.1372 C.3       1 <0>         0.0658
      5 H1         -0.4299   -2.2419   -1.0821 H         1 <0>         0.1708
      6 C4          1.2290   -2.5266   -2.4008 C.3       1 <0>         0.0853
      7 N2          1.2178   -4.0017   -2.3725 N.pl3     1 <0>        -0.9751
      8 S1          2.1913   -4.6964   -1.1964 S.o2      1 <0>         2.6993
      9 O1          3.5356   -4.5934   -1.6450 O.2       1 <0>        -0.9052
     10 O2          1.5909   -5.9295   -0.8245 O.2       1 <0>        -0.9104
     11 C5          2.0056   -3.5925    0.1555 C.2       1 <0>        -0.7299
     12 C6          1.3290   -2.4121    0.1220 C.2       1 <0>        -0.0847
     13 C7          1.3364   -1.6821    1.3141 C.2       1 <0>        -0.0518
     14 C8          1.9728   -2.1632    2.4071 C.2       1 <0>        -0.7315
     15 S2          2.6159   -3.7161    1.8064 S.3       1 <0>         0.4568
     16 S3          2.1242   -1.4453    4.0091 S.o2      1 <0>         2.7294
     17 O3          3.2891   -2.0074    4.5975 O.2       1 <0>        -0.9316
     18 O4          1.9545   -0.0442    3.8439 O.2       1 <0>        -0.9372
     19 N3          0.8376   -1.9754    4.9067 N.pl3     1 <0>        -1.2424
     20 C9          0.4155   -4.8004   -3.3024 C.3       1 <0>         0.1263
     21 C10         1.1924   -4.9992   -4.6054 C.3       1 <0>        -0.1475
     22 C11         0.3545   -5.8334   -5.5765 C.3       1 <0>         0.0598
     23 O5          1.0801   -6.0191   -6.7935 O.3       1 <0>        -0.3912
     24 C12         0.3826   -6.7895   -7.7743 C.3       1 <0>         0.0300
     25 H2         -0.5884    1.8796   -1.4045 H         1 <0>         0.0836
     26 H3          0.8718    1.9137   -2.4219 H         1 <0>         0.0846
     27 H4         -0.7393    1.8825   -3.1781 H         1 <0>         0.1124
     28 H5         -1.1283   -0.3860   -2.2555 H         1 <0>         0.1382
     29 H6          0.3319   -0.3519   -3.2729 H         1 <0>         0.1384
     30 H7          1.6500   -0.1942   -1.3306 H         1 <0>         0.4345
     31 H8          0.6601   -2.1822   -3.2644 H         1 <0>         0.1336
     32 H9          2.2582   -2.1795   -2.4917 H         1 <0>         0.1084
     33 H10         0.8317   -0.7286    1.3630 H         1 <0>         0.1566
     34 H11         0.1832   -2.5721    4.5111 H         1 <0>         0.4194
     35 H12         0.7383   -1.6891    5.8282 H         1 <0>         0.4325
     36 H13         0.2008   -5.7712   -2.8556 H         1 <0>         0.1064
     37 H14        -0.5201   -4.2823   -3.5126 H         1 <0>         0.0967
     38 H15         1.4071   -4.0284   -5.0521 H         1 <0>         0.0821
     39 H16         2.1280   -5.5174   -4.3951 H         1 <0>         0.0798
     40 H17         0.1398   -6.8042   -5.1298 H         1 <0>         0.0563
     41 H18        -0.5811   -5.3152   -5.7868 H         1 <0>         0.0538
     42 H19         0.1684   -7.7802   -7.3732 H         1 <0>         0.0459
     43 H20        -0.5525   -6.2912   -8.0301 H         1 <0>         0.0441
     44 H21         0.9998   -6.8849   -8.6676 H         1 <0>         0.0916
     45 H22         0.3300   -0.0823   -0.3509 H         1 <0>         0.4332
@<TRIPOS>BOND
     1    1    2 1
     2    1   25 1
     3    1   26 1
     4    1   27 1
     5    2    3 1
     6    2   28 1
     7    2   29 1
     8    3    4 1
     9    3   30 1
    10    3   45 1
    11    4    5 1
    12    4   12 1
    13    4    6 1
    14    6    7 1
    15    6   31 1
    16    6   32 1
    17    7    8 1
    18    7   20 1
    19    8    9 2
    20    8   10 2
    21    8   11 1
    22   11   15 1
    23   11   12 2
    24   12   13 1
    25   13   14 2
    26   13   33 1
    27   14   15 1
    28   14   16 1
    29   16   17 2
    30   16   18 2
    31   16   19 1
    32   19   34 1
    33   19   35 1
    34   20   21 1
    35   20   36 1
    36   20   37 1
    37   21   22 1
    38   21   38 1
    39   21   39 1
    40   22   23 1
    41   22   40 1
    42   22   41 1
    43   23   24 1
    44   24   42 1
    45   24   43 1
    46   24   44 1
@<TRIPOS>MOLECULE
ZINC03953037
   44    45     0     0     0
SMALL
USER_CHARGES

@<TRIPOS>ATOM
      1 C1          2.0763    1.5400    1.0749 C.3       1 <0>        -0.1898
      2 C2          2.0886    0.0101    1.0747 C.3       1 <0>        -0.0171
      3 N1          0.7126   -0.4907    1.1921 N.4       1 <0>        -0.5075
      4 C3          0.7116   -1.9542    1.0652 C.3       1 <0>         0.0682
      5 H1          1.1917   -2.2265    0.1253 H         1 <0>         0.1647
      6 C4          1.5092   -2.5482    2.2152 C.3       1 <0>         0.0909
      7 N2          1.5133   -4.0226    2.1618 N.pl3     1 <0>        -0.9789
      8 S1          0.0190   -4.7457    2.4028 S.o2      1 <0>         2.7115
      9 O1         -0.2658   -4.6749    3.7932 O.2       1 <0>        -0.9213
     10 O2          0.0162   -5.9646    1.6724 O.2       1 <0>        -0.9224
     11 C5         -1.0762   -3.6422    1.5883 C.2       1 <0>        -0.7709
     12 C6         -0.7274   -2.4451    1.0428 C.2       1 <0>        -0.0734
     13 C7         -1.7749   -1.7197    0.4678 C.2       1 <0>        -0.1075
     14 C8         -3.0320   -2.2204    0.4627 C.2       1 <0>        -0.5845
     15 S2         -2.8090   -3.7869    1.2888 S.3       1 <0>         0.4019
     16 S3         -4.5062   -1.5121   -0.1927 S.o2      1 <0>         2.5818
     17 O3         -5.5893   -2.1053    0.5104 O.2       1 <0>        -1.0351
     18 O4         -4.3002   -0.1066   -0.2291 O.2       1 <0>        -1.0413
     19 N3         -4.6325   -2.0129   -1.7661 N.2       1 <0>        -1.3217
     20 C9          2.7319   -4.7977    1.9161 C.3       1 <0>         0.1279
     21 C10         3.4753   -5.0114    3.2362 C.3       1 <0>        -0.1467
     22 C11         4.7480   -5.8209    2.9796 C.3       1 <0>         0.0605
     23 O5          5.4423   -6.0204    4.2126 O.3       1 <0>        -0.3916
     24 C12         6.6522   -6.7697    4.0836 C.3       1 <0>         0.0305
     25 H2          1.6368    1.8998    2.0052 H         1 <0>         0.0828
     26 H3          3.0973    1.9116    0.9877 H         1 <0>         0.1079
     27 H4          1.4859    1.8987    0.2317 H         1 <0>         0.0843
     28 H5          2.5280   -0.3497    0.1444 H         1 <0>         0.1356
     29 H6          2.6789   -0.3486    1.9179 H         1 <0>         0.1344
     30 H7          0.3357   -0.2309    2.0913 H         1 <0>         0.4324
     31 H8          2.5361   -2.1866    2.1612 H         1 <0>         0.1259
     32 H9          1.0682   -2.2267    3.1587 H         1 <0>         0.1045
     33 H10        -1.5798   -0.7540    0.0254 H         1 <0>         0.1463
     34 H11        -5.3853   -1.7274   -2.3070 H         1 <0>         0.3370
     35 H12         2.4675   -5.7644    1.4875 H         1 <0>         0.1042
     36 H13         3.3735   -4.2555    1.2215 H         1 <0>         0.0930
     37 H14         3.7397   -4.0447    3.6649 H         1 <0>         0.0806
     38 H15         2.8337   -5.5536    3.9308 H         1 <0>         0.0792
     39 H16         4.4835   -6.7875    2.5510 H         1 <0>         0.0562
     40 H17         5.3896   -5.2787    2.2850 H         1 <0>         0.0533
     41 H18         6.4273   -7.7561    3.6779 H         1 <0>         0.0449
     42 H19         7.3333   -6.2472    3.4119 H         1 <0>         0.0428
     43 H20         7.1190   -6.8774    5.0627 H         1 <0>         0.0893
     44 H21         0.1450   -0.0893    0.4608 H         1 <0>         0.4372
@<TRIPOS>BOND
     1    1    2 1
     2    1   25 1
     3    1   26 1
     4    1   27 1
     5    2    3 1
     6    2   28 1
     7    2   29 1
     8    3    4 1
     9    3   30 1
    10    3   44 1
    11    4    5 1
    12    4   12 1
    13    4    6 1
    14    6    7 1
    15    6   31 1
    16    6   32 1
    17    7    8 1
    18    7   20 1
    19    8    9 2
    20    8   10 2
    21    8   11 1
    22   11   15 1
    23   11   12 2
    24   12   13 1
    25   13   14 2
    26   13   33 1
    27   14   15 1
    28   14   16 1
    29   16   17 2
    30   16   18 2
    31   16   19 1
    32   19   34 1
    33   20   21 1
    34   20   35 1
    35   20   36 1
    36   21   22 1
    37   21   37 1
    38   21   38 1
    39   22   23 1
    40   22   39 1
    41   22   40 1
    42   23   24 1
    43   24   41 1
    44   24   42 1
    45   24   43 1
@<TRIPOS>MOLECULE
ZINC01530804
   42    44     0     0     0
SMALL
USER_CHARGES

@<TRIPOS>ATOM
      1 C1         -0.1414    1.1782    1.1025 C.3       1 <0>        -0.1657
      2 C2         -0.0047   -0.3406    0.9788 C.3       1 <0>         0.2393
      3 O1          0.4336   -0.6809   -0.3520 O.3       1 <0>        -0.3486
      4 C3          1.8586   -0.8253   -0.2194 C.3       1 <0>         0.0180
      5 H1          2.3279    0.1582   -0.1959 H         1 <0>         0.0955
      6 C4          2.4671   -1.6561   -1.3282 C.3       1 <0>         0.0615
      7 O2          1.9135   -2.9701   -1.3154 O.3       1 <0>        -0.3068
      8 C5          2.1315   -3.6952   -0.1268 C.3       1 <0>         0.2582
      9 C6          1.5886   -2.9749    1.1170 C.3       1 <0>         0.0223
     10 H2          0.5124   -3.1112    1.2238 H         1 <0>         0.1391
     11 C7          1.9968   -1.5000    1.1552 C.3       1 <0>         0.0492
     12 H3          2.9929   -1.3657    1.5768 H         1 <0>         0.1317
     13 O3          0.9684   -0.8158    1.9209 O.3       1 <0>        -0.3662
     14 O4          2.3254   -3.6306    2.1835 O.3       1 <0>        -0.3622
     15 C8          3.5307   -4.1478    1.6005 C.3       1 <0>         0.2431
     16 O5          3.5253   -3.8561    0.1888 O.3       1 <0>        -0.3666
     17 C9          4.7443   -3.4871    2.2574 C.3       1 <0>        -0.1505
     18 C10         3.5958   -5.6617    1.8124 C.3       1 <0>        -0.1864
     19 C11         1.4685   -5.0698   -0.2356 C.3       1 <0>         0.0825
     20 O6          2.1389   -5.8445   -1.2317 O.3       1 <0>        -0.7265
     21 S1          1.5597   -7.2386   -1.4254 S.o2      1 <0>         2.6826
     22 O7          2.4548   -7.9350   -2.2815 O.2       1 <0>        -1.0652
     23 O8          1.2135   -7.7177   -0.1332 O.2       1 <0>        -1.0999
     24 N1          0.1411   -7.0674   -2.2625 N.2       1 <0>        -1.3687
     25 C12        -1.3558   -1.0027    1.2569 C.3       1 <0>        -0.1582
     26 H4          0.8207    1.6475    0.8968 H         1 <0>         0.0616
     27 H5         -0.8808    1.5361    0.3860 H         1 <0>         0.0773
     28 H6         -0.4614    1.4331    2.1128 H         1 <0>         0.0749
     29 H7          2.2585   -1.1852   -2.2889 H         1 <0>         0.1202
     30 H8          3.5458   -1.7168   -1.1842 H         1 <0>         0.0862
     31 H9          4.7535   -3.7210    3.3219 H         1 <0>         0.0808
     32 H10         5.6571   -3.8626    1.7950 H         1 <0>         0.0792
     33 H11         4.6869   -2.4069    2.1231 H         1 <0>         0.0625
     34 H12         2.5933   -6.0827    1.7363 H         1 <0>         0.0832
     35 H13         4.2360   -6.1079    1.0514 H         1 <0>         0.0832
     36 H14         4.0046   -5.8730    2.8005 H         1 <0>         0.0768
     37 H15         1.5314   -5.5806    0.7253 H         1 <0>         0.1099
     38 H16         0.4218   -4.9473   -0.5141 H         1 <0>         0.1013
     39 H17        -0.3863   -7.8495   -2.4881 H         1 <0>         0.3260
     40 H18        -2.0938   -0.6361    0.5434 H         1 <0>         0.0779
     41 H19        -1.2583   -2.0836    1.1559 H         1 <0>         0.0696
     42 H20        -1.6777   -0.7600    2.2696 H         1 <0>         0.0781
@<TRIPOS>BOND
     1    1    2 1
     2    1   26 1
     3    1   27 1
     4    1   28 1
     5    2   13 1
     6    2    3 1
     7    2   25 1
     8    3    4 1
     9    4    5 1
    10    4   11 1
    11    4    6 1
    12    6    7 1
    13    6   29 1
    14    6   30 1
    15    7    8 1
    16    8   16 1
    17    8    9 1
    18    8   19 1
    19    9   10 1
    20    9   11 1
    21    9   14 1
    22   11   12 1
    23   11   13 1
    24   14   15 1
    25   15   16 1
    26   15   17 1
    27   15   18 1
    28   17   31 1
    29   17   32 1
    30   17   33 1
    31   18   34 1
    32   18   35 1
    33   18   36 1
    34   19   20 1
    35   19   37 1
    36   19   38 1
    37   20   21 1
    38   21   22 2
    39   21   23 2
    40   21   24 1
    41   24   39 1
    42   25   40 1
    43   25   41 1
    44   25   42 1
@<TRIPOS>MOLECULE
ZINC01530804
   43    45     0     0     0
SMALL
USER_CHARGES

@<TRIPOS>ATOM
      1 C1         -0.1414    1.1782    1.1025 C.3       1 <0>        -0.1689
      2 C2         -0.0047   -0.3406    0.9788 C.3       1 <0>         0.2400
      3 O1          0.4336   -0.6809   -0.3520 O.3       1 <0>        -0.3516
      4 C3          1.8586   -0.8253   -0.2194 C.3       1 <0>         0.0156
      5 H1          2.3279    0.1582   -0.1959 H         1 <0>         0.1022
      6 C4          2.4671   -1.6561   -1.3282 C.3       1 <0>         0.0660
      7 O2          1.9135   -2.9701   -1.3154 O.3       1 <0>        -0.3195
      8 C5          2.1315   -3.6952   -0.1268 C.3       1 <0>         0.2579
      9 C6          1.5886   -2.9749    1.1170 C.3       1 <0>         0.0224
     10 H2          0.5124   -3.1112    1.2238 H         1 <0>         0.1406
     11 C7          1.9968   -1.5000    1.1552 C.3       1 <0>         0.0483
     12 H3          2.9929   -1.3657    1.5768 H         1 <0>         0.1355
     13 O3          0.9684   -0.8158    1.9209 O.3       1 <0>        -0.3615
     14 O4          2.3254   -3.6306    2.1835 O.3       1 <0>        -0.3573
     15 C8          3.5307   -4.1478    1.6005 C.3       1 <0>         0.2406
     16 O5          3.5253   -3.8561    0.1888 O.3       1 <0>        -0.3608
     17 C9          4.7443   -3.4871    2.2574 C.3       1 <0>        -0.1549
     18 C10         3.5958   -5.6617    1.8124 C.3       1 <0>        -0.1875
     19 C11         1.4685   -5.0698   -0.2356 C.3       1 <0>         0.0540
     20 O6          2.1389   -5.8445   -1.2317 O.3       1 <0>        -0.7190
     21 S1          1.5597   -7.2386   -1.4254 S.o2      1 <0>         2.7922
     22 O7          2.4548   -7.9350   -2.2815 O.2       1 <0>        -0.9521
     23 O8          1.2135   -7.7177   -0.1332 O.2       1 <0>        -0.9902
     24 N1          0.1411   -7.0674   -2.2625 N.pl3     1 <0>        -1.2682
     25 C12        -1.3558   -1.0027    1.2569 C.3       1 <0>        -0.1570
     26 H4          0.8207    1.6475    0.8968 H         1 <0>         0.0640
     27 H5         -0.8808    1.5361    0.3860 H         1 <0>         0.0795
     28 H6         -0.4614    1.4331    2.1128 H         1 <0>         0.0783
     29 H7          2.2585   -1.1852   -2.2889 H         1 <0>         0.1264
     30 H8          3.5458   -1.7168   -1.1842 H         1 <0>         0.0924
     31 H9          4.7535   -3.7210    3.3219 H         1 <0>         0.0862
     32 H10         5.6571   -3.8626    1.7950 H         1 <0>         0.0829
     33 H11         4.6869   -2.4069    2.1231 H         1 <0>         0.0666
     34 H12         2.5933   -6.0827    1.7363 H         1 <0>         0.0754
     35 H13         4.2360   -6.1079    1.0514 H         1 <0>         0.0857
     36 H14         4.0046   -5.8730    2.8005 H         1 <0>         0.0871
     37 H15         1.5314   -5.5806    0.7253 H         1 <0>         0.1339
     38 H16         0.4218   -4.9473   -0.5141 H         1 <0>         0.1071
     39 H17        -0.1624   -6.1849   -2.5271 H         1 <0>         0.4163
     40 H18        -2.0938   -0.6361    0.5434 H         1 <0>         0.0797
     41 H19        -1.2583   -2.0836    1.1559 H         1 <0>         0.0641
     42 H20        -1.6777   -0.7600    2.2696 H         1 <0>         0.0821
     43 H21        -0.3863   -7.8495   -2.4881 H         1 <0>         0.4258
@<TRIPOS>BOND
     1    1    2 1
     2    1   26 1
     3    1   27 1
     4    1   28 1
     5    2   13 1
     6    2    3 1
     7    2   25 1
     8    3    4 1
     9    4    5 1
    10    4   11 1
    11    4    6 1
    12    6    7 1
    13    6   29 1
    14    6   30 1
    15    7    8 1
    16    8   16 1
    17    8    9 1
    18    8   19 1
    19    9   10 1
    20    9   11 1
    21    9   14 1
    22   11   12 1
    23   11   13 1
    24   14   15 1
    25   15   16 1
    26   15   17 1
    27   15   18 1
    28   17   31 1
    29   17   32 1
    30   17   33 1
    31   18   34 1
    32   18   35 1
    33   18   36 1
    34   19   20 1
    35   19   37 1
    36   19   38 1
    37   20   21 1
    38   21   22 2
    39   21   23 2
    40   21   24 1
    41   24   39 1
    42   24   43 1
    43   25   40 1
    44   25   41 1
    45   25   42 1
@<TRIPOS>MOLECULE
ZINC01530487
   32    32     0     0     0
SMALL
USER_CHARGES

@<TRIPOS>ATOM
      1 C1         -0.0187    1.5258    0.0104 C.3       1 <0>        -0.1596
      2 C2          0.0021   -0.0041    0.0020 C.3       1 <0>         0.1107
      3 O1          0.6709   -0.4649   -1.1737 O.3       1 <0>        -0.7407
      4 P1          0.8773   -2.0258   -1.5102 P.3       1 <0>         2.3093
      5 O2          1.5558   -2.6897   -0.3748 O.2       1 <0>        -0.9857
      6 O3         -0.5563   -2.7158   -1.7567 O.3       1 <0>        -0.7199
      7 C3         -1.4547   -2.2974   -2.7862 C.3       1 <0>         0.0859
      8 C4         -2.7179   -3.1595   -2.7420 C.3       1 <0>        -0.1586
      9 O4          1.7794   -2.1743   -2.8355 O.3       1 <0>        -0.6320
     10 C5          2.1016   -3.4580   -3.1438 C.ar      1 <0>         0.1435
     11 C6          3.2580   -4.0267   -2.6300 C.ar      1 <0>        -0.1103
     12 C7          3.5831   -5.3320   -2.9445 C.ar      1 <0>        -0.0298
     13 C8          2.7571   -6.0716   -3.7706 C.ar      1 <0>        -0.0496
     14 C9          1.6043   -5.5069   -4.2844 C.ar      1 <0>        -0.0315
     15 C10         1.2718   -4.2039   -3.9683 C.ar      1 <0>        -0.1460
     16 N1          3.1078   -7.4698   -4.1060 N.pl3     1 <0>         0.0322
     17 O5          4.1158   -7.9644   -3.6576 O.2       1 <0>        -0.1474
     18 O6          2.3863   -8.1174   -4.8283 O.3       1 <0>        -0.1514
     19 H1          1.0039    1.9031    0.0027 H         1 <0>         0.0715
     20 H2         -0.5459    1.8868   -0.8726 H         1 <0>         0.0664
     21 H3         -0.5289    1.8773    0.9072 H         1 <0>         0.0834
     22 H4          0.5293   -0.3651    0.8851 H         1 <0>         0.0792
     23 H5         -1.0205   -0.3814    0.0098 H         1 <0>         0.0629
     24 H6         -1.7225   -1.2522   -2.6321 H         1 <0>         0.0697
     25 H7         -0.9721   -2.4095   -3.7571 H         1 <0>         0.0640
     26 H8         -3.2005   -3.0475   -1.7711 H         1 <0>         0.0729
     27 H9         -3.4032   -2.8404   -3.5273 H         1 <0>         0.0819
     28 H10        -2.4500   -4.2048   -2.8962 H         1 <0>         0.0724
     29 H11         3.9036   -3.4493   -1.9849 H         1 <0>         0.1665
     30 H12         4.4834   -5.7751   -2.5449 H         1 <0>         0.1694
     31 H13         0.9610   -6.0865   -4.9298 H         1 <0>         0.1672
     32 H14         0.3690   -3.7647   -4.3663 H         1 <0>         0.1537
@<TRIPOS>BOND
     1    1    2 1
     2    1   19 1
     3    1   20 1
     4    1   21 1
     5    2    3 1
     6    2   22 1
     7    2   23 1
     8    3    4 1
     9    4    5 2
    10    4    6 1
    11    4    9 1
    12    6    7 1
    13    7    8 1
    14    7   24 1
    15    7   25 1
    16    8   26 1
    17    8   27 1
    18    8   28 1
    19    9   10 1
    20   10   15 ar
    21   10   11 ar
    22   11   12 ar
    23   11   29 1
    24   12   13 ar
    25   12   30 1
    26   13   14 ar
    27   13   16 1
    28   14   15 ar
    29   14   31 1
    30   15   32 1
    31   16   17 2
    32   16   18 1
@<TRIPOS>MOLECULE
ZINC01529638
   18    18     0     0     0
SMALL
USER_CHARGES
(4-nitrophenyl) dihydrogen phosphate
@<TRIPOS>ATOM
      1 C1          0.0021   -0.0041    0.0020 C.ar      1 <0>        -0.0364
      2 C2         -0.0167    1.3772    0.0096 C.ar      1 <0>        -0.1521
      3 C3          1.1759    2.0860    0.0020 C.ar      1 <0>         0.2426
      4 C4          2.3846    1.4052   -0.0122 C.ar      1 <0>        -0.1500
      5 C5          2.3980    0.0239   -0.0203 C.ar      1 <0>        -0.0369
      6 C6          1.2080   -0.6802   -0.0131 C.ar      1 <0>        -0.1008
      7 N1          1.2252   -2.1601   -0.0212 N.pl3     1 <0>         0.0528
      8 O1          0.1776   -2.7814   -0.0146 O.2       1 <0>        -0.1937
      9 O2          2.2870   -2.7568   -0.0346 O.3       1 <0>        -0.1942
     10 O3          1.1601    3.4449    0.0099 O.3       1 <0>        -0.6496
     11 P1          1.1669    4.0913    1.4845 P.3       1 <0>         2.0690
     12 O4          2.3235    3.5698    2.2465 O.2       1 <0>        -1.1306
     13 H1         -0.9261   -0.5563    0.0076 H         1 <0>         0.1463
     14 H2         -0.9589    1.9049    0.0170 H         1 <0>         0.1520
     15 H3          3.3144    1.9547   -0.0178 H         1 <0>         0.1494
     16 H4          3.3387   -0.5065   -0.0317 H         1 <0>         0.1460
     17 O5          1.2794    5.6931    1.3677 O.3       1 <0>        -1.1511
     18 O6         -0.1971    3.7032    2.2468 O.3       1 <0>        -1.1626
@<TRIPOS>BOND
     1    1    6 ar
     2    1    2 ar
     3    1   13 1
     4    2    3 ar
     5    2   14 1
     6    3    4 ar
     7    3   10 1
     8    4    5 ar
     9    4   15 1
    10    5    6 ar
    11    5   16 1
    12    6    7 1
    13    7    8 2
    14    7    9 1
    15   10   11 1
    16   11   12 2
    17   11   17 1
    18   11   18 1
@<TRIPOS>MOLECULE
ZINC06716957
   61    65     0     0     0
SMALL
USER_CHARGES
4-methyl-N-[3-(4-methylimidazol-1-yl)-5-(trifluoromethyl)phenyl]-3-[4-(3-pyridyl)pyrimidin-2-yl]amino-benzamide
@<TRIPOS>ATOM
      1 C1          4.8797   -3.9669    0.1547 C.3       1 <0>        -0.1225
      2 C2          3.5754   -4.7217    0.1669 C.ar      1 <0>        -0.0869
      3 C3          3.5795   -6.1039    0.1964 C.ar      1 <0>        -0.1014
      4 C4          2.3894   -6.8021    0.2020 C.ar      1 <0>        -0.1034
      5 C5          1.1753   -6.1126    0.1832 C.ar      1 <0>        -0.1270
      6 C6          1.1710   -4.7182    0.1589 C.ar      1 <0>        -0.0590
      7 C7          2.3724   -4.0259    0.1535 C.ar      1 <0>         0.1619
      8 N1          2.3736   -2.6277    0.1286 N.pl3     1 <0>        -0.6325
      9 C8          1.2893   -1.9432   -0.3959 C.ar      1 <0>         0.5614
     10 N2          0.3200   -2.6260   -0.9883 N.ar      1 <0>        -0.5534
     11 C9         -0.7320   -2.0090   -1.5021 C.ar      1 <0>         0.1977
     12 C10        -0.8164   -0.6303   -1.4172 C.ar      1 <0>        -0.2657
     13 C11         0.2206    0.0624   -0.7871 C.ar      1 <0>         0.2658
     14 N3          1.2507   -0.6239   -0.2975 N.ar      1 <0>        -0.5571
     15 C12         0.1772    1.5403   -0.6710 C.ar      1 <0>        -0.1169
     16 C13         1.2145    2.2342   -0.0406 C.ar      1 <0>        -0.0276
     17 C14         1.1266    3.6129    0.0420 C.ar      1 <0>        -0.1784
     18 C15         0.0258    4.2543   -0.4966 C.ar      1 <0>         0.1175
     19 N4         -0.9376    3.5726   -1.0856 N.ar      1 <0>        -0.4841
     20 C16        -0.8952    2.2604   -1.1934 C.ar      1 <0>         0.1340
     21 C17        -0.1012   -6.8583    0.1887 C.2       1 <0>         0.5673
     22 O1         -1.1570   -6.2560    0.1719 O.2       1 <0>        -0.5061
     23 N5         -0.0944   -8.2058    0.2122 N.am      1 <0>        -0.6669
     24 C18        -1.2963   -8.9130    0.1072 C.ar      1 <0>         0.1849
     25 C19        -1.4127  -10.1752    0.6766 C.ar      1 <0>        -0.1112
     26 C20        -2.6011  -10.8720    0.5773 C.ar      1 <0>        -0.1296
     27 C21        -3.6741  -10.3211   -0.0973 C.ar      1 <0>        -0.1084
     28 C22        -3.5624   -9.0626   -0.6729 C.ar      1 <0>         0.1652
     29 C23        -2.3721   -8.3576   -0.5706 C.ar      1 <0>        -0.1152
     30 N6         -4.6520   -8.5044   -1.3568 N.pl3     1 <0>        -0.4135
     31 C24        -4.6878   -7.2792   -1.9710 C.2       1 <0>        -0.0484
     32 C25        -5.9185   -7.1442   -2.5004 C.2       1 <0>         0.0096
     33 N7         -6.6190   -8.2532   -2.2203 N.2       1 <0>        -0.4758
     34 C26        -5.8695   -9.0779   -1.5408 C.2       1 <0>         0.1944
     35 C27        -6.4219   -5.9529   -3.2741 C.3       1 <0>        -0.0703
     36 C28        -2.7260  -12.2385    1.2004 C.3       1 <0>         0.5133
     37 F1         -2.3418  -13.2115    0.2714 F         1 <0>        -0.1709
     38 F2         -1.8981  -12.3154    2.3255 F         1 <0>        -0.1721
     39 F3         -4.0538  -12.4572    1.5826 F         1 <0>        -0.1717
     40 H1          5.1932   -3.7667    1.1793 H         1 <0>         0.0780
     41 H2          5.6404   -4.5642   -0.3479 H         1 <0>         0.0781
     42 H3          4.7488   -3.0240   -0.3761 H         1 <0>         0.0665
     43 H4          4.5175   -6.6391    0.2106 H         1 <0>         0.1366
     44 H5          2.3969   -7.8819    0.2212 H         1 <0>         0.1267
     45 H6          0.2351   -4.1794    0.1439 H         1 <0>         0.1656
     46 H7          3.1337   -2.1370    0.4786 H         1 <0>         0.4259
     47 H8         -1.5163   -2.5753   -1.9823 H         1 <0>         0.1768
     48 H9         -1.6642   -0.1022   -1.8280 H         1 <0>         0.1524
     49 H10         2.0625    1.7077    0.3717 H         1 <0>         0.1463
     50 H11         1.9093    4.1820    0.5216 H         1 <0>         0.1425
     51 H12        -0.0458    5.3301   -0.4343 H         1 <0>         0.1622
     52 H13        -1.7012    1.7376   -1.6869 H         1 <0>         0.1630
     53 H14         0.7441   -8.6851    0.3020 H         1 <0>         0.4178
     54 H15        -0.5744  -10.6101    1.2006 H         1 <0>         0.1488
     55 H16        -4.6008  -10.8701   -0.1765 H         1 <0>         0.1477
     56 H17        -2.2829   -7.3787   -1.0179 H         1 <0>         0.1618
     57 H18        -3.8832   -6.5605   -2.0210 H         1 <0>         0.1795
     58 H19        -6.1682  -10.0519   -1.1825 H         1 <0>         0.2113
     59 H20        -6.2142   -6.0943   -4.3347 H         1 <0>         0.0711
     60 H21        -7.4967   -5.8505   -3.1248 H         1 <0>         0.0731
     61 H22        -5.9187   -5.0522   -2.9223 H         1 <0>         0.0710
@<TRIPOS>BOND
     1    1    2 1
     2    1   40 1
     3    1   41 1
     4    1   42 1
     5    2    7 ar
     6    2    3 ar
     7    3    4 ar
     8    3   43 1
     9    4    5 ar
    10    4   44 1
    11    5    6 ar
    12    5   21 1
    13    6    7 ar
    14    6   45 1
    15    7    8 1
    16    8    9 1
    17    8   46 1
    18    9   14 ar
    19    9   10 ar
    20   10   11 ar
    21   11   12 ar
    22   11   47 1
    23   12   13 ar
    24   12   48 1
    25   13   14 ar
    26   13   15 1
    27   15   20 ar
    28   15   16 ar
    29   16   17 ar
    30   16   49 1
    31   17   18 ar
    32   17   50 1
    33   18   19 ar
    34   18   51 1
    35   19   20 ar
    36   20   52 1
    37   21   22 2
    38   21   23 am
    39   23   24 1
    40   23   53 1
    41   24   29 ar
    42   24   25 ar
    43   25   26 ar
    44   25   54 1
    45   26   27 ar
    46   26   36 1
    47   27   28 ar
    48   27   55 1
    49   28   29 ar
    50   28   30 1
    51   29   56 1
    52   30   34 1
    53   30   31 1
    54   31   32 2
    55   31   57 1
    56   32   33 1
    57   32   35 1
    58   33   34 2
    59   34   58 1
    60   35   59 1
    61   35   60 1
    62   35   61 1
    63   36   37 1
    64   36   38 1
    65   36   39 1
@<TRIPOS>MOLECULE
ZINC06392199
   37    38     0     0     0
SMALL
USER_CHARGES

@<TRIPOS>ATOM
      1 C1         -0.0167    1.3781    0.0096 C.ar      1 <0>        -0.1239
      2 C2          1.1709    2.0855    0.0021 C.ar      1 <0>        -0.0191
      3 C3          2.3773    1.4107   -0.0130 C.ar      1 <0>        -0.6701
      4 C4          2.3960    0.0285   -0.0201 C.ar      1 <0>        -0.0181
      5 C5          1.2085   -0.6789   -0.0117 C.ar      1 <0>        -0.1211
      6 C6          0.0021   -0.0041    0.0020 C.ar      1 <0>        -0.0415
      7 C7         -1.2926   -0.7753    0.0107 C.3       1 <0>         0.1504
      8 N1         -1.7258   -1.0177   -1.3676 N.pl3     1 <0>        -1.1166
      9 S1         -2.8982   -2.1445   -1.6810 S.o2      1 <0>         2.6988
     10 O1         -3.1132   -2.1271   -3.0855 O.2       1 <0>        -0.9580
     11 O2         -2.5251   -3.3241   -0.9819 O.2       1 <0>        -0.9584
     12 C8         -4.3874   -1.5677   -0.9365 C.ar      1 <0>        -0.7357
     13 C9         -4.6847   -1.9132    0.3691 C.ar      1 <0>         0.0258
     14 C10        -5.8511   -1.4629    0.9557 C.ar      1 <0>        -0.2178
     15 C11        -6.7260   -0.6620    0.2327 C.ar      1 <0>         0.2700
     16 C12        -6.4242   -0.3168   -1.0786 C.ar      1 <0>        -0.2180
     17 C13        -5.2534   -0.7660   -1.6572 C.ar      1 <0>         0.0306
     18 N2         -7.9067   -0.2051    0.8227 N.pl3     1 <0>        -0.8653
     19 S2          3.8911    2.3124   -0.0238 S.o2      1 <0>         2.7009
     20 O3          4.8717    1.4529   -0.5884 O.2       1 <0>        -0.9608
     21 O4          3.5973    3.5927   -0.5658 O.2       1 <0>        -0.9616
     22 N3          4.3274    2.5556    1.5551 N.pl3     1 <0>        -1.2496
     23 H1         -0.9591    1.9053    0.0259 H         1 <0>         0.1383
     24 H2          1.1563    3.1654    0.0076 H         1 <0>         0.1462
     25 H3          3.3385   -0.4987   -0.0326 H         1 <0>         0.1471
     26 H4          1.2231   -1.7588   -0.0179 H         1 <0>         0.1407
     27 H5         -1.1443   -1.7285    0.5180 H         1 <0>         0.0962
     28 H6         -2.0551   -0.1993    0.5352 H         1 <0>         0.0818
     29 H7         -1.3259   -0.5183   -2.0967 H         1 <0>         0.4211
     30 H8         -4.0042   -2.5362    0.9305 H         1 <0>         0.1393
     31 H9         -6.0829   -1.7333    1.9753 H         1 <0>         0.1310
     32 H10        -7.1025    0.3054   -1.6436 H         1 <0>         0.1309
     33 H11        -5.0161   -0.4944   -2.6752 H         1 <0>         0.1396
     34 H12        -8.1165   -0.4471    1.7383 H         1 <0>         0.4040
     35 H13        -8.5169    0.3541    0.3169 H         1 <0>         0.4041
     36 H14         3.7682    2.2150    2.2708 H         1 <0>         0.4169
     37 H15         5.1421    3.0386    1.7642 H         1 <0>         0.4221
@<TRIPOS>BOND
     1    1    6 ar
     2    1    2 ar
     3    1   23 1
     4    2    3 ar
     5    2   24 1
     6    3    4 ar
     7    3   19 1
     8    4    5 ar
     9    4   25 1
    10    5    6 ar
    11    5   26 1
    12    6    7 1
    13    7    8 1
    14    7   27 1
    15    7   28 1
    16    8    9 1
    17    8   29 1
    18    9   10 2
    19    9   11 2
    20    9   12 1
    21   12   17 ar
    22   12   13 ar
    23   13   14 ar
    24   13   30 1
    25   14   15 ar
    26   14   31 1
    27   15   16 ar
    28   15   18 1
    29   16   17 ar
    30   16   32 1
    31   17   33 1
    32   18   34 1
    33   18   35 1
    34   19   20 2
    35   19   21 2
    36   19   22 1
    37   22   36 1
    38   22   37 1
@<TRIPOS>MOLECULE
ZINC00143548
   34    35     0     0     0
SMALL
USER_CHARGES

@<TRIPOS>ATOM
      1 C1          8.5500    1.4403   -0.3672 C.ar      1 <0>        -0.2171
      2 C2          7.1699    1.4312   -0.3185 C.ar      1 <0>         0.0309
      3 C3          6.4775    2.6022   -0.0704 C.ar      1 <0>        -0.7350
      4 C4          7.1640    3.7858    0.1301 C.ar      1 <0>         0.0311
      5 C5          8.5441    3.8020    0.0828 C.ar      1 <0>        -0.2174
      6 C6          9.2427    2.6274   -0.1662 C.ar      1 <0>         0.2727
      7 N1         10.6386    2.6401   -0.2143 N.pl3     1 <0>        -0.8642
      8 S1          4.7166    2.5864   -0.0102 S.o2      1 <0>         2.6917
      9 O1          4.2843    3.8742   -0.4273 O.2       1 <0>        -0.9512
     10 O2          4.2987    1.3946   -0.6616 O.2       1 <0>        -0.9498
     11 N2          4.2824    2.4336    1.5805 N.pl3     1 <0>        -1.0728
     12 C7          4.6411    1.2886    2.2955 C.ar      1 <0>         0.1882
     13 C8          3.9678    0.0930    2.0786 C.ar      1 <0>        -0.1276
     14 C9          4.3254   -1.0373    2.7869 C.ar      1 <0>        -0.0113
     15 C10         5.3521   -0.9798    3.7115 C.ar      1 <0>        -0.6742
     16 C11         6.0244    0.2087    3.9299 C.ar      1 <0>        -0.0090
     17 C12         5.6757    1.3414    3.2209 C.ar      1 <0>        -0.1329
     18 S2          5.8042   -2.4241    4.6138 S.o2      1 <0>         2.7015
     19 O3          6.4294   -1.9771    5.8091 O.2       1 <0>        -0.9605
     20 O4          4.6637   -3.2717    4.6217 O.2       1 <0>        -0.9567
     21 N3          6.9692   -3.2063    3.7343 N.pl3     1 <0>        -1.2475
     22 H1          9.0903    0.5246   -0.5569 H         1 <0>         0.1314
     23 H2          6.6307    0.5085   -0.4746 H         1 <0>         0.1396
     24 H3          6.6202    4.6986    0.3236 H         1 <0>         0.1384
     25 H4          9.0796    4.7267    0.2391 H         1 <0>         0.1317
     26 H5         11.1253    1.8193   -0.3882 H         1 <0>         0.4043
     27 H6         11.1212    3.4697   -0.0738 H         1 <0>         0.4045
     28 H7          3.7789    3.1393    2.0157 H         1 <0>         0.4305
     29 H8          3.1655    0.0476    1.3571 H         1 <0>         0.1488
     30 H9          3.8024   -1.9671    2.6187 H         1 <0>         0.1516
     31 H10         6.8257    0.2502    4.6527 H         1 <0>         0.1486
     32 H11         6.2042    2.2682    3.3887 H         1 <0>         0.1413
     33 H12         7.6451   -3.7349    4.1865 H         1 <0>         0.4227
     34 H13         6.9755   -3.1358    2.7669 H         1 <0>         0.4178
@<TRIPOS>BOND
     1    1    6 ar
     2    1    2 ar
     3    1   22 1
     4    2    3 ar
     5    2   23 1
     6    3    4 ar
     7    3    8 1
     8    4    5 ar
     9    4   24 1
    10    5    6 ar
    11    5   25 1
    12    6    7 1
    13    7   26 1
    14    7   27 1
    15    8    9 2
    16    8   10 2
    17    8   11 1
    18   11   12 1
    19   11   28 1
    20   12   17 ar
    21   12   13 ar
    22   13   14 ar
    23   13   29 1
    24   14   15 ar
    25   14   30 1
    26   15   16 ar
    27   15   18 1
    28   16   17 ar
    29   16   31 1
    30   17   32 1
    31   18   19 2
    32   18   20 2
    33   18   21 1
    34   21   33 1
    35   21   34 1
@<TRIPOS>MOLECULE
ZINC00143548
   33    34     0     0     0
SMALL
USER_CHARGES

@<TRIPOS>ATOM
      1 C1         -0.0168    1.3849    0.0097 C.ar      1 <0>        -0.2214
      2 C2          1.1707    2.0901    0.0021 C.ar      1 <0>         0.0236
      3 C3          2.3774    1.4150   -0.0135 C.ar      1 <0>        -0.6713
      4 C4          2.3998    0.0323   -0.0211 C.ar      1 <0>         0.0237
      5 C5          1.2161   -0.6790   -0.0137 C.ar      1 <0>        -0.2211
      6 C6          0.0021   -0.0041    0.0020 C.ar      1 <0>         0.2478
      7 N1         -1.1970   -0.7204    0.0101 N.pl3     1 <0>        -0.8758
      8 S1          3.8900    2.3186   -0.0243 S.o2      1 <0>         2.6119
      9 O1          4.8717    1.4606   -0.5894 O.2       1 <0>        -1.0272
     10 O2          3.5945    3.5988   -0.5657 O.2       1 <0>        -1.0285
     11 N2          4.3264    2.5618    1.5546 N.2       1 <0>        -1.0786
     12 C7          5.4987    3.2588    1.8558 C.ar      1 <0>         0.3275
     13 C8          6.2968    3.7536    0.8322 C.ar      1 <0>        -0.2800
     14 C9          7.4551    4.4427    1.1335 C.ar      1 <0>         0.0288
     15 C10         7.8210    4.6399    2.4524 C.ar      1 <0>        -0.7744
     16 C11         7.0288    4.1486    3.4738 C.ar      1 <0>         0.0147
     17 C12         5.8662    3.4636    3.1796 C.ar      1 <0>        -0.1974
     18 S2          9.3002    5.5187    2.8323 S.o2      1 <0>         2.7051
     19 O3          9.7023    5.0960    4.1280 O.2       1 <0>        -0.9844
     20 O4         10.1456    5.4011    1.6962 O.2       1 <0>        -0.9837
     21 N3          8.8991    7.1203    2.9602 N.pl3     1 <0>        -1.2554
     22 H1         -0.9589    1.9127    0.0260 H         1 <0>         0.1236
     23 H2          1.1567    3.1700    0.0080 H         1 <0>         0.1356
     24 H3          3.3440   -0.4918   -0.0333 H         1 <0>         0.1359
     25 H4          1.2342   -1.7588   -0.0200 H         1 <0>         0.1237
     26 H5         -2.0441   -0.2480    0.0210 H         1 <0>         0.3979
     27 H6         -1.1825   -1.6903    0.0047 H         1 <0>         0.3980
     28 H7          6.0121    3.5993   -0.1981 H         1 <0>         0.1067
     29 H8          8.0761    4.8277    0.3381 H         1 <0>         0.1216
     30 H9          7.3174    4.3044    4.5028 H         1 <0>         0.1237
     31 H10         5.2456    3.0841    3.9779 H         1 <0>         0.1218
     32 H11         9.4008    7.6999    3.5545 H         1 <0>         0.4119
     33 H12         8.1626    7.4788    2.4407 H         1 <0>         0.4156
@<TRIPOS>BOND
     1    1    6 ar
     2    1    2 ar
     3    1   22 1
     4    2    3 ar
     5    2   23 1
     6    3    4 ar
     7    3    8 1
     8    4    5 ar
     9    4   24 1
    10    5    6 ar
    11    5   25 1
    12    6    7 1
    13    7   26 1
    14    7   27 1
    15    8    9 2
    16    8   10 2
    17    8   11 1
    18   11   12 1
    19   12   17 ar
    20   12   13 ar
    21   13   14 ar
    22   13   28 1
    23   14   15 ar
    24   14   29 1
    25   15   16 ar
    26   15   18 1
    27   16   17 ar
    28   16   30 1
    29   17   31 1
    30   18   19 2
    31   18   20 2
    32   18   21 1
    33   21   32 1
    34   21   33 1
@<TRIPOS>MOLECULE
ZINC01549366
   36    38     0     0     0
SMALL
USER_CHARGES
oxo-sulfamoyloxy-BLAH
@<TRIPOS>ATOM
      1 C1          2.0878   -1.3376    2.0956 C.ar      1 <0>        -0.1108
      2 C2          2.7188   -1.2078    3.2993 C.ar      1 <0>        -0.0400
      3 C3          3.3764   -0.0128    3.6120 C.ar      1 <0>        -0.1280
      4 C4          3.3849    1.0490    2.6913 C.ar      1 <0>         0.1602
      5 C5          2.7439    0.8995    1.4712 C.ar      1 <0>        -0.1411
      6 C6          2.0937   -0.2888    1.1784 C.ar      1 <0>         0.1152
      7 O1          1.4619   -0.4342   -0.0142 O.3       1 <0>        -0.6647
      8 S1          0.0021   -0.0041    0.0020 S.o2      1 <0>         2.7792
      9 O2         -0.5313   -0.4243    1.2503 O.2       1 <0>        -0.9692
     10 O3         -0.5551   -0.4110   -1.2403 O.2       1 <0>        -0.9445
     11 N1         -0.0204    1.6518    0.0111 N.pl3     1 <0>        -1.2638
     12 O4          4.0224    2.1973    3.0032 O.3       1 <0>        -0.2644
     13 C7          4.6457    2.3490    4.1789 C.2       1 <0>         0.5115
     14 O5          5.2101    3.4021    4.4151 O.2       1 <0>        -0.4472
     15 C8          4.6703    1.3229    5.1577 C.2       1 <0>        -0.1893
     16 C9          4.0685    0.1463    4.8999 C.2       1 <0>         0.0212
     17 C10         4.0796   -1.0290    5.8423 C.3       1 <0>        -0.0930
     18 C11         4.1555   -0.5753    7.3000 C.3       1 <0>        -0.1273
     19 C12         5.6292   -0.5008    7.7075 C.3       1 <0>        -0.1259
     20 C13         6.3525    0.5078    6.8185 C.3       1 <0>        -0.1176
     21 C14         5.3609    1.6175    6.4623 C.3       1 <0>        -0.0771
     22 H1          1.5802   -2.2595    1.8529 H         1 <0>         0.1555
     23 H2          2.7103   -2.0236    4.0070 H         1 <0>         0.1600
     24 H3          2.7474    1.7069    0.7539 H         1 <0>         0.1604
     25 H4          0.8130    2.1481    0.0058 H         1 <0>         0.4144
     26 H5         -0.8669    2.1253    0.0177 H         1 <0>         0.4281
     27 H6          3.1694   -1.6109    5.6970 H         1 <0>         0.0885
     28 H7          4.9421   -1.6569    5.6190 H         1 <0>         0.0977
     29 H8          3.6962    0.4078    7.4027 H         1 <0>         0.0780
     30 H9          3.6350   -1.2922    7.9350 H         1 <0>         0.0765
     31 H10         5.7029   -0.1860    8.7484 H         1 <0>         0.0683
     32 H11         6.0884   -1.4825    7.5913 H         1 <0>         0.0674
     33 H12         7.2017    0.9304    7.3555 H         1 <0>         0.0750
     34 H13         6.6988    0.0163    5.9093 H         1 <0>         0.0654
     35 H14         5.8959    2.5635    6.3789 H         1 <0>         0.0891
     36 H15         4.6146    1.6972    7.2528 H         1 <0>         0.0924
@<TRIPOS>BOND
     1    1    6 ar
     2    1    2 ar
     3    1   22 1
     4    2    3 ar
     5    2   23 1
     6    3   16 1
     7    3    4 ar
     8    4    5 ar
     9    4   12 1
    10    5    6 ar
    11    5   24 1
    12    6    7 1
    13    7    8 1
    14    8    9 2
    15    8   10 2
    16    8   11 1
    17   11   25 1
    18   11   26 1
    19   12   13 1
    20   13   14 2
    21   13   15 1
    22   15   21 1
    23   15   16 2
    24   16   17 1
    25   17   18 1
    26   17   27 1
    27   17   28 1
    28   18   19 1
    29   18   29 1
    30   18   30 1
    31   19   20 1
    32   19   31 1
    33   19   32 1
    34   20   21 1
    35   20   33 1
    36   20   34 1
    37   21   35 1
    38   21   36 1
@<TRIPOS>MOLECULE
ZINC00001504
   17    17     0     0     0
SMALL
USER_CHARGES

@<TRIPOS>ATOM
      1 C1         -0.0167    1.3773    0.0096 C.ar      1 <0>        -0.1008
      2 C2          1.1859    2.0916    0.0020 C.ar      1 <0>        -0.1093
      3 C3          2.4041    1.4044   -0.0134 C.ar      1 <0>        -0.1008
      4 C4          2.4161    0.0229   -0.0209 C.ar      1 <0>         0.0731
      5 C5          1.2168   -0.6855   -0.0137 C.ar      1 <0>         0.0424
      6 C6          0.0021   -0.0041    0.0020 C.ar      1 <0>         0.0741
      7 O1         -1.1668   -0.6993    0.0099 O.3       1 <0>        -0.4936
      8 O2          1.2319   -2.0439   -0.0216 O.3       1 <0>        -0.4848
      9 O3          3.6001   -0.6461   -0.0358 O.3       1 <0>        -0.4884
     10 C7          1.1695    3.5640    0.0095 C.2       1 <0>         0.5214
     11 O4          0.1034    4.1638    0.0225 O.co2     1 <0>        -0.6808
     12 O5          2.2221    4.1875    0.0028 O.co2     1 <0>        -0.6809
     13 H1         -0.9588    1.9051    0.0260 H         1 <0>         0.1414
     14 H2          3.3343    1.9531   -0.0196 H         1 <0>         0.1412
     15 H3         -1.5136   -0.8957   -0.8712 H         1 <0>         0.3861
     16 H4          1.2445   -2.4422    0.8595 H         1 <0>         0.3793
     17 H5          3.9509   -0.8443    0.8433 H         1 <0>         0.3804
@<TRIPOS>BOND
     1    1    6 ar
     2    1    2 ar
     3    1   13 1
     4    2    3 ar
     5    2   10 1
     6    3    4 ar
     7    3   14 1
     8    4    5 ar
     9    4    9 1
    10    5    6 ar
    11    5    8 1
    12    6    7 1
    13    7   15 1
    14    8   16 1
    15    9   17 1
    16   10   11 2
    17   10   12 1
@<TRIPOS>MOLECULE
ZINC01543408
   26    25     0     0     0
SMALL
USER_CHARGES

@<TRIPOS>ATOM
      1 C1         -0.0187    1.5258    0.0104 C.3       1 <0>        -0.1207
      2 C2          0.0021   -0.0041    0.0020 C.3       1 <0>        -0.1207
      3 C3         -1.4333   -0.5336    0.0129 C.3       1 <0>        -0.1546
      4 C4         -1.4126   -2.0635    0.0045 C.3       1 <0>        -0.0098
      5 N1         -2.7907   -2.5720    0.0149 N.4       1 <0>        -0.6391
      6 C5          1.4167    2.0553   -0.0004 C.3       1 <0>        -0.1546
      7 C6          1.3960    3.5852    0.0080 C.3       1 <0>        -0.0098
      8 N2          2.7741    4.0937   -0.0024 N.4       1 <0>        -0.6392
      9 H1         -0.5459    1.8868   -0.8726 H         1 <0>         0.0793
     10 H2         -0.5289    1.8773    0.9072 H         1 <0>         0.0793
     11 H3          0.5123   -0.3556   -0.8948 H         1 <0>         0.0793
     12 H4          0.5293   -0.3651    0.8851 H         1 <0>         0.0793
     13 H5         -1.9435   -0.1821    0.9097 H         1 <0>         0.0904
     14 H6         -1.9605   -0.1726   -0.8702 H         1 <0>         0.0904
     15 H7         -0.9024   -2.4150   -0.8923 H         1 <0>         0.1344
     16 H8         -0.8854   -2.4246    0.8875 H         1 <0>         0.1344
     17 H9         -3.2630   -2.2466    0.8450 H         1 <0>         0.4368
     18 H10        -3.2787   -2.2377   -0.8025 H         1 <0>         0.4368
     19 H11         1.9439    1.6943    0.8826 H         1 <0>         0.0904
     20 H12         1.9269    1.7038   -0.8972 H         1 <0>         0.0904
     21 H13         0.8688    3.9463   -0.8751 H         1 <0>         0.1345
     22 H14         0.8858    3.9367    0.9048 H         1 <0>         0.1344
     23 H15         3.2621    3.7594    0.8150 H         1 <0>         0.4368
     24 H16         3.2464    3.7683   -0.8326 H         1 <0>         0.4368
     25 H17        -2.7770   -3.5808    0.0093 H         1 <0>         0.4425
     26 H18         2.7604    5.1025    0.0031 H         1 <0>         0.4425
@<TRIPOS>BOND
     1    1    2 1
     2    1    6 1
     3    1    9 1
     4    1   10 1
     5    2    3 1
     6    2   11 1
     7    2   12 1
     8    3    4 1
     9    3   13 1
    10    3   14 1
    11    4    5 1
    12    4   15 1
    13    4   16 1
    14    5   17 1
    15    5   18 1
    16    5   25 1
    17    6    7 1
    18    6   19 1
    19    6   20 1
    20    7    8 1
    21    7   21 1
    22    7   22 1
    23    8   23 1
    24    8   24 1
    25    8   26 1
@<TRIPOS>MOLECULE
ZINC00035804
   31    32     0     0     0
SMALL
USER_CHARGES

@<TRIPOS>ATOM
      1 C1         -0.0004    1.4841    0.0187 C.2       1 <0>        -0.2165
      2 C2          1.3526    1.8943    0.0235 C.2       1 <0>        -0.1841
      3 C3          2.0990    0.7761   -0.0203 C.2       1 <0>        -0.0258
      4 O1          1.2745   -0.2836   -0.0512 O.3       1 <0>        -0.1706
      5 C4          0.0002    0.1397   -0.0277 C.2       1 <0>        -0.0342
      6 C5          3.6050    0.7217   -0.0331 C.3       1 <0>         0.1920
      7 N1          4.1030    0.6567    1.3431 N.pl3     1 <0>        -0.7044
      8 C6          5.4677    0.5988    1.5849 C.ar      1 <0>         0.3111
      9 C7          6.3602    0.4840    0.5266 C.ar      1 <0>        -0.2314
     10 C8          7.7182    0.4265    0.7700 C.ar      1 <0>         0.1018
     11 C9          8.2027    0.4826    2.0699 C.ar      1 <0>        -0.7484
     12 C10         7.3347    0.5963    3.1314 C.ar      1 <0>         0.0694
     13 C11         5.9555    0.6617    2.9017 C.ar      1 <0>        -0.2292
     14 C12         5.0230    0.7897    4.0304 C.2       1 <0>         0.5337
     15 O2          5.4534    0.9534    5.1641 O.co2     1 <0>        -0.6698
     16 O3          3.8161    0.7327    3.8365 O.co2     1 <0>        -0.6839
     17 S1          9.9387    0.4073    2.3618 S.o2      1 <0>         2.7048
     18 O4         10.5395    1.3482    1.4827 O.2       1 <0>        -0.9630
     19 O5         10.1162    0.4597    3.7707 O.2       1 <0>        -0.9667
     20 N2         10.4525   -1.0900    1.8754 N.pl3     1 <0>        -1.2486
     21 Cl1         8.8269    0.2825   -0.5580 Cl        1 <0>        -0.0616
     22 H1         -0.8679    2.1266    0.0509 H         1 <0>         0.1490
     23 H2          1.7169    2.9105    0.0555 H         1 <0>         0.1499
     24 H3         -0.8756   -0.4921   -0.0431 H         1 <0>         0.2031
     25 H4          3.9320   -0.1626   -0.5800 H         1 <0>         0.0769
     26 H5          3.9967    1.6151   -0.5194 H         1 <0>         0.0916
     27 H6          3.4784    0.6542    2.0853 H         1 <0>         0.4317
     28 H7          5.9915    0.4394   -0.4876 H         1 <0>         0.1346
     29 H8          7.7173    0.6394    4.1404 H         1 <0>         0.1563
     30 H9         11.3548   -1.2076    1.5395 H         1 <0>         0.4161
     31 H10         9.8511   -1.8493    1.9265 H         1 <0>         0.4161
@<TRIPOS>BOND
     1    1    5 2
     2    1    2 1
     3    1   22 1
     4    2    3 2
     5    2   23 1
     6    3    4 1
     7    3    6 1
     8    4    5 1
     9    5   24 1
    10    6    7 1
    11    6   25 1
    12    6   26 1
    13    7    8 1
    14    7   27 1
    15    8   13 ar
    16    8    9 ar
    17    9   10 ar
    18    9   28 1
    19   10   11 ar
    20   10   21 1
    21   11   12 ar
    22   11   17 1
    23   12   13 ar
    24   12   29 1
    25   13   14 1
    26   14   15 2
    27   14   16 1
    28   17   18 2
    29   17   19 2
    30   17   20 1
    31   20   30 1
    32   20   31 1
@<TRIPOS>MOLECULE
ZINC00601305
   40    42     0     0     0
SMALL
USER_CHARGES

@<TRIPOS>ATOM
      1 C1         -0.0187    1.5258    0.0104 C.3       1 <0>        -0.1652
      2 C2          0.0021   -0.0041    0.0020 C.3       1 <0>         0.1560
      3 H1         -1.0150   -0.3956    0.0221 H         1 <0>         0.0800
      4 C3          0.7480   -0.5206   -1.2392 C.3       1 <0>        -0.0753
      5 C4          1.9155   -1.3037   -0.6819 C.ar      1 <0>        -0.1600
      6 C5          2.9291   -1.9949   -1.3175 C.ar      1 <0>        -0.0608
      7 C6          3.8990   -2.6426   -0.5756 C.ar      1 <0>        -0.1634
      8 C7          3.8530   -2.5975    0.8059 C.ar      1 <0>        -0.0763
      9 C8          2.8439   -1.9093    1.4445 C.ar      1 <0>        -0.1645
     10 C9          1.8601   -1.2523    0.7020 C.ar      1 <0>         0.2007
     11 N1          0.7638   -0.5085    1.1477 N.pl3     1 <0>        -0.4293
     12 N2          0.4401   -0.2776    2.4912 N.am      1 <0>        -0.4995
     13 C10        -0.1064   -1.2623    3.2315 C.2       1 <0>         0.5557
     14 O1         -0.3186   -2.3508    2.7336 O.2       1 <0>        -0.4977
     15 C11        -0.4478   -1.0188    4.6486 C.ar      1 <0>        -0.1448
     16 C12        -0.2105    0.2322    5.2217 C.ar      1 <0>        -0.0184
     17 C13        -0.5310    0.4534    6.5443 C.ar      1 <0>        -0.1307
     18 C14        -1.0874   -0.5624    7.3043 C.ar      1 <0>         0.0760
     19 C15        -1.3247   -1.8054    6.7416 C.ar      1 <0>        -0.6805
     20 C16        -1.0140   -2.0367    5.4179 C.ar      1 <0>         0.0547
     21 S1         -2.0322   -3.0913    7.7164 S.o2      1 <0>         2.6990
     22 O2         -3.1639   -2.5312    8.3681 O.2       1 <0>        -0.9409
     23 O3         -2.1249   -4.2337    6.8763 O.2       1 <0>        -0.9483
     24 N3         -0.9390   -3.4640    8.9032 N.pl3     1 <0>        -1.2420
     25 Cl1        -1.4883   -0.2763    8.9690 Cl        1 <0>        -0.0202
     26 H2          1.0039    1.9031    0.0027 H         1 <0>         0.0650
     27 H3         -0.5459    1.8868   -0.8726 H         1 <0>         0.0765
     28 H4         -0.5289    1.8773    0.9072 H         1 <0>         0.0574
     29 H5          0.1011   -1.1702   -1.8288 H         1 <0>         0.0908
     30 H6          1.1036    0.3137   -1.8438 H         1 <0>         0.0931
     31 H7          2.9634   -2.0294   -2.3964 H         1 <0>         0.1244
     32 H8          4.6906   -3.1829   -1.0735 H         1 <0>         0.1248
     33 H9          4.6102   -3.1036    1.3864 H         1 <0>         0.1241
     34 H10         2.8138   -1.8780    2.5237 H         1 <0>         0.1110
     35 H11         0.6095    0.5909    2.8885 H         1 <0>         0.4123
     36 H12         0.2236    1.0248    4.6303 H         1 <0>         0.1459
     37 H13        -0.3476    1.4205    6.9888 H         1 <0>         0.1563
     38 H14        -1.2043   -3.0049    4.9787 H         1 <0>         0.1703
     39 H15        -1.2485   -3.7912    9.7623 H         1 <0>         0.4257
     40 H16         0.0108   -3.3552    8.7392 H         1 <0>         0.4183
@<TRIPOS>BOND
     1    1    2 1
     2    1   26 1
     3    1   27 1
     4    1   28 1
     5    2    3 1
     6    2   11 1
     7    2    4 1
     8    4    5 1
     9    4   29 1
    10    4   30 1
    11    5   10 ar
    12    5    6 ar
    13    6    7 ar
    14    6   31 1
    15    7    8 ar
    16    7   32 1
    17    8    9 ar
    18    8   33 1
    19    9   10 ar
    20    9   34 1
    21   10   11 1
    22   11   12 1
    23   12   13 am
    24   12   35 1
    25   13   14 2
    26   13   15 1
    27   15   20 ar
    28   15   16 ar
    29   16   17 ar
    30   16   36 1
    31   17   18 ar
    32   17   37 1
    33   18   19 ar
    34   18   25 1
    35   19   20 ar
    36   19   21 1
    37   20   38 1
    38   21   22 2
    39   21   23 2
    40   21   24 1
    41   24   39 1
    42   24   40 1
@<TRIPOS>MOLECULE
ZINC00643114
   40    42     0     0     0
SMALL
USER_CHARGES

@<TRIPOS>ATOM
      1 C1         -0.0187    1.5258    0.0104 C.3       1 <0>        -0.1646
      2 C2          0.0021   -0.0041    0.0020 C.3       1 <0>         0.1576
      3 H1          0.5208   -0.3698   -0.8842 H         1 <0>         0.0820
      4 C3         -1.4317   -0.5572    0.0471 C.3       1 <0>        -0.0757
      5 C4         -1.4885   -1.3609    1.3269 C.ar      1 <0>        -0.1600
      6 C5         -2.5172   -2.0864    1.8965 C.ar      1 <0>        -0.0609
      7 C6         -2.3203   -2.7472    3.0946 C.ar      1 <0>        -0.1634
      8 C7         -1.0901   -2.6806    3.7229 C.ar      1 <0>        -0.0765
      9 C8         -0.0608   -1.9582    3.1587 C.ar      1 <0>        -0.1642
     10 C9         -0.2518   -1.2878    1.9483 C.ar      1 <0>         0.2006
     11 N1          0.6494   -0.5104    1.2152 N.pl3     1 <0>        -0.4294
     12 N2          1.9758   -0.2518    1.5849 N.am      1 <0>        -0.4997
     13 C10         2.2410    0.6241    2.5744 C.2       1 <0>         0.5554
     14 O1          1.3294    1.1896    3.1460 O.2       1 <0>        -0.4964
     15 C11         3.6401    0.8968    2.9644 C.ar      1 <0>        -0.1451
     16 C12         4.6896    0.2530    2.3058 C.ar      1 <0>        -0.0185
     17 C13         5.9928    0.5115    2.6741 C.ar      1 <0>        -0.1308
     18 C14         6.2621    1.4080    3.6954 C.ar      1 <0>         0.0759
     19 C15         5.2254    2.0493    4.3526 C.ar      1 <0>        -0.6806
     20 C16         3.9179    1.8035    3.9888 C.ar      1 <0>         0.0544
     21 S1          5.5778    3.1874    5.6507 S.o2      1 <0>         2.6990
     22 O2          6.5770    4.0692    5.1575 O.2       1 <0>        -0.9409
     23 O3          4.3251    3.6507    6.1359 O.2       1 <0>        -0.9484
     24 N3          6.2729    2.3257    6.8821 N.pl3     1 <0>        -1.2421
     25 Cl1         7.9056    1.7284    4.1536 Cl        1 <0>        -0.0203
     26 H2          1.0039    1.9031    0.0027 H         1 <0>         0.0549
     27 H3         -0.5459    1.8868   -0.8726 H         1 <0>         0.0731
     28 H4         -0.5289    1.8773    0.9072 H         1 <0>         0.0676
     29 H5         -2.1535    0.2590    0.0783 H         1 <0>         0.0922
     30 H6         -1.6190   -1.1991   -0.8137 H         1 <0>         0.0916
     31 H7         -3.4774   -2.1371    1.4047 H         1 <0>         0.1243
     32 H8         -3.1250   -3.3143    3.5387 H         1 <0>         0.1247
     33 H9         -0.9354   -3.1963    4.6592 H         1 <0>         0.1239
     34 H10         0.8974   -1.9102    3.6545 H         1 <0>         0.1109
     35 H11         2.7032   -0.7031    1.1288 H         1 <0>         0.4127
     36 H12         4.4809   -0.4464    1.5097 H         1 <0>         0.1462
     37 H13         6.8054    0.0138    2.1657 H         1 <0>         0.1562
     38 H14         3.1105    2.3081    4.4986 H         1 <0>         0.1701
     39 H15         6.9141    2.7530    7.4714 H         1 <0>         0.4257
     40 H16         6.0390    1.3936    7.0142 H         1 <0>         0.4183
@<TRIPOS>BOND
     1    1    2 1
     2    1   26 1
     3    1   27 1
     4    1   28 1
     5    2    3 1
     6    2   11 1
     7    2    4 1
     8    4    5 1
     9    4   29 1
    10    4   30 1
    11    5   10 ar
    12    5    6 ar
    13    6    7 ar
    14    6   31 1
    15    7    8 ar
    16    7   32 1
    17    8    9 ar
    18    8   33 1
    19    9   10 ar
    20    9   34 1
    21   10   11 1
    22   11   12 1
    23   12   13 am
    24   12   35 1
    25   13   14 2
    26   13   15 1
    27   15   20 ar
    28   15   16 ar
    29   16   17 ar
    30   16   36 1
    31   17   18 ar
    32   17   37 1
    33   18   19 ar
    34   18   25 1
    35   19   20 ar
    36   19   21 1
    37   20   38 1
    38   21   22 2
    39   21   23 2
    40   21   24 1
    41   24   39 1
    42   24   40 1
@<TRIPOS>MOLECULE
ZINC00001644
   23    23     0     0     0
SMALL
USER_CHARGES

@<TRIPOS>ATOM
      1 C1         -0.0167    1.3781    0.0096 C.ar      1 <0>        -0.1137
      2 C2          1.1709    2.0855    0.0021 C.ar      1 <0>        -0.0132
      3 C3          2.3773    1.4107   -0.0130 C.ar      1 <0>        -0.6459
      4 C4          2.3960    0.0285   -0.0201 C.ar      1 <0>        -0.0133
      5 C5          1.2085   -0.6789   -0.0117 C.ar      1 <0>        -0.1136
      6 C6          0.0021   -0.0041    0.0020 C.ar      1 <0>        -0.1157
      7 C7         -1.2926   -0.7753    0.0107 C.3       1 <0>         0.0413
      8 N1         -1.7270   -1.0184   -1.3714 N.4       1 <0>        -0.6365
      9 S1          3.8911    2.3124   -0.0238 S.o2      1 <0>         2.6971
     10 O1          4.8717    1.4529   -0.5884 O.2       1 <0>        -0.9502
     11 O2          3.5973    3.5927   -0.5658 O.2       1 <0>        -0.9502
     12 N2          4.3274    2.5556    1.5551 N.pl3     1 <0>        -1.2462
     13 H1         -0.9591    1.9053    0.0259 H         1 <0>         0.1458
     14 H2          1.1563    3.1654    0.0076 H         1 <0>         0.1576
     15 H3          3.3385   -0.4987   -0.0326 H         1 <0>         0.1576
     16 H4          1.2231   -1.7588   -0.0179 H         1 <0>         0.1458
     17 H5         -1.1443   -1.7285    0.5180 H         1 <0>         0.1464
     18 H6         -2.0551   -0.1993    0.5352 H         1 <0>         0.1464
     19 H7         -1.8643   -0.1360   -1.8410 H         1 <0>         0.4368
     20 H8         -1.0212   -1.5515   -1.8569 H         1 <0>         0.4368
     21 H9          3.7682    2.2150    2.2708 H         1 <0>         0.4171
     22 H10         5.1421    3.0386    1.7642 H         1 <0>         0.4281
     23 H11        -2.5939   -1.5347   -1.3656 H         1 <0>         0.4418
@<TRIPOS>BOND
     1    1    6 ar
     2    1    2 ar
     3    1   13 1
     4    2    3 ar
     5    2   14 1
     6    3    4 ar
     7    3    9 1
     8    4    5 ar
     9    4   15 1
    10    5    6 ar
    11    5   16 1
    12    6    7 1
    13    7    8 1
    14    7   17 1
    15    7   18 1
    16    8   19 1
    17    8   20 1
    18    8   23 1
    19    9   10 2
    20    9   11 2
    21    9   12 1
    22   12   21 1
    23   12   22 1
@<TRIPOS>MOLECULE
ZINC00332752
   15    15     0     0     0
SMALL
USER_CHARGES

@<TRIPOS>ATOM
      1 C1         -0.0169    1.3948    0.0097 C.ar      1 <0>        -0.0719
      2 C2          1.1668    2.0970    0.0022 C.ar      1 <0>        -0.1621
      3 C3          2.3803    1.4181   -0.0135 C.ar      1 <0>         0.0845
      4 C4          2.4040    0.0278   -0.0217 C.ar      1 <0>        -0.1621
      5 C5          1.2254   -0.6827   -0.0142 C.ar      1 <0>        -0.0719
      6 C6          0.0021   -0.0041    0.0020 C.ar      1 <0>        -0.1403
      7 C7         -1.2616   -0.7598    0.0105 C.2       1 <0>         0.5192
      8 O1         -2.3302   -0.1645    0.0243 O.co2     1 <0>        -0.6869
      9 O2         -1.2429   -1.9830    0.0038 O.co2     1 <0>        -0.6870
     10 O3          3.5446    2.1144   -0.0213 O.3       1 <0>        -0.5035
     11 H1         -0.9589    1.9228    0.0260 H         1 <0>         0.1309
     12 H2          1.1531    3.1769    0.0081 H         1 <0>         0.1198
     13 H3          3.3488   -0.4952   -0.0342 H         1 <0>         0.1198
     14 H4          1.2447   -1.7625   -0.0213 H         1 <0>         0.1309
     15 H5          3.8909    2.3116    0.8597 H         1 <0>         0.3806
@<TRIPOS>BOND
     1    1    6 ar
     2    1    2 ar
     3    1   11 1
     4    2    3 ar
     5    2   12 1
     6    3    4 ar
     7    3   10 1
     8    4    5 ar
     9    4   13 1
    10    5    6 ar
    11    5   14 1
    12    6    7 1
    13    7    8 2
    14    7    9 1
    15   10   15 1
@<TRIPOS>MOLECULE
ZINC00391177
   21    22     0     0     0
SMALL
USER_CHARGES

@<TRIPOS>ATOM
      1 C1         -0.0173    1.4248    0.0099 C.3       1 <0>         0.0229
      2 O1          0.0021   -0.0041    0.0020 O.3       1 <0>        -0.3061
      3 C2          0.6051   -0.6064   -1.0545 C.ar      1 <0>         0.1879
      4 C3          1.1726    0.1715   -2.0621 C.ar      1 <0>        -0.2276
      5 C4          1.7820   -0.4190   -3.1308 C.ar      1 <0>        -0.0103
      6 C5          1.8380   -1.8150   -3.2156 C.ar      1 <0>        -0.2012
      7 C6          2.4860   -2.4761   -4.3503 C.2       1 <0>         0.0108
      8 C7          2.5080   -3.8341   -4.3748 C.2       1 <0>        -0.2569
      9 C8          1.9159   -4.5642   -3.3238 C.2       1 <0>         0.5094
     10 O2          1.9427   -5.7814   -3.3580 O.2       1 <0>        -0.4611
     11 O3          1.3239   -3.9521   -2.2862 O.3       1 <0>        -0.2700
     12 C9          1.2671   -2.6057   -2.2012 C.ar      1 <0>         0.1893
     13 C10         0.6563   -1.9891   -1.1195 C.ar      1 <0>        -0.1773
     14 H1          1.0053    1.8021    0.0021 H         1 <0>         0.0620
     15 H2         -0.5445    1.7859   -0.8732 H         1 <0>         0.0620
     16 H3         -0.5275    1.7763    0.9067 H         1 <0>         0.1075
     17 H4          1.1295    1.2486   -1.9968 H         1 <0>         0.1423
     18 H5          2.2195    0.1889   -3.9089 H         1 <0>         0.1443
     19 H6          2.9338   -1.8996   -5.1463 H         1 <0>         0.1541
     20 H7          2.9775   -4.3533   -5.1973 H         1 <0>         0.1648
     21 H8          0.2181   -2.5850   -0.3326 H         1 <0>         0.1531
@<TRIPOS>BOND
     1    1    2 1
     2    1   14 1
     3    1   15 1
     4    1   16 1
     5    2    3 1
     6    3   13 ar
     7    3    4 ar
     8    4    5 ar
     9    4   17 1
    10    5    6 ar
    11    5   18 1
    12    6   12 ar
    13    6    7 1
    14    7    8 2
    15    7   19 1
    16    8    9 1
    17    8   20 1
    18    9   10 2
    19    9   11 1
    20   11   12 1
    21   12   13 ar
    22   13   21 1
@<TRIPOS>MOLECULE
ZINC03869685
   32    34     0     0     0
SMALL
USER_CHARGES

@<TRIPOS>ATOM
      1 C1          0.9741   -0.2755   -0.9644 C.ar      1 <0>        -0.0748
      2 C2          2.1569    0.4329   -0.9701 C.ar      1 <0>        -0.1346
      3 C3          2.3856    1.4156   -0.0177 C.ar      1 <0>         0.1032
      4 C4          1.4203    1.6918    0.9495 C.ar      1 <0>         0.0788
      5 C5          0.2328    0.9863    0.9617 C.ar      1 <0>        -0.0762
      6 C6          0.0021   -0.0041    0.0020 C.ar      1 <0>        -0.0447
      7 C7         -1.2637   -0.7605    0.0100 C.2       1 <0>         0.1350
      8 C8         -2.4363   -0.0759    0.1235 C.2       1 <0>        -0.0429
      9 C9         -3.6628   -0.7894    0.1327 C.2       1 <0>         0.4011
     10 O1         -4.7327   -0.2102    0.2323 O.2       1 <0>        -0.4484
     11 C10        -3.5946   -2.2549    0.0170 C.ar      1 <0>        -0.2690
     12 C11        -4.7561   -3.0387    0.0170 C.ar      1 <0>         0.2244
     13 C12        -4.6504   -4.4123   -0.0941 C.ar      1 <0>        -0.2081
     14 C13        -3.3994   -5.0103   -0.2044 C.ar      1 <0>         0.2000
     15 C14        -2.2463   -4.2416   -0.2047 C.ar      1 <0>        -0.1854
     16 C15        -2.3316   -2.8618   -0.0952 C.ar      1 <0>         0.1876
     17 O2         -1.2182   -2.0992   -0.1003 O.3       1 <0>        -0.1970
     18 O3         -3.3070   -6.3605   -0.3125 O.3       1 <0>        -0.4866
     19 O4         -5.9758   -2.4535    0.1257 O.3       1 <0>        -0.4726
     20 O5         -2.4312    1.2810    0.2275 O.3       1 <0>        -0.4502
     21 O6          1.6480    2.6557    1.8815 O.3       1 <0>        -0.4836
     22 O7          3.5534    2.1101   -0.0273 O.3       1 <0>        -0.4861
     23 H1          0.7971   -1.0371   -1.7094 H         1 <0>         0.1379
     24 H2          2.9075    0.2221   -1.7176 H         1 <0>         0.1421
     25 H3         -0.5155    1.1988    1.7108 H         1 <0>         0.1429
     26 H4         -5.5413   -5.0229   -0.0948 H         1 <0>         0.1515
     27 H5         -1.2805   -4.7174   -0.2903 H         1 <0>         0.1559
     28 H6         -3.3257   -6.6843   -1.2235 H         1 <0>         0.4050
     29 H7         -6.3751   -2.2160   -0.7224 H         1 <0>         0.4036
     30 H8         -3.3120    1.6729    0.3033 H         1 <0>         0.4079
     31 H9          1.3508    3.5370    1.6166 H         1 <0>         0.3905
     32 H10         3.5287    2.9137   -0.5647 H         1 <0>         0.3924
@<TRIPOS>BOND
     1    1    6 ar
     2    1    2 ar
     3    1   23 1
     4    2    3 ar
     5    2   24 1
     6    3    4 ar
     7    3   22 1
     8    4    5 ar
     9    4   21 1
    10    5    6 ar
    11    5   25 1
    12    6    7 1
    13    7   17 1
    14    7    8 2
    15    8    9 1
    16    8   20 1
    17    9   10 2
    18    9   11 1
    19   11   16 ar
    20   11   12 ar
    21   12   13 ar
    22   12   19 1
    23   13   14 ar
    24   13   26 1
    25   14   15 ar
    26   14   18 1
    27   15   16 ar
    28   15   27 1
    29   16   17 1
    30   18   28 1
    31   19   29 1
    32   20   30 1
    33   21   31 1
    34   22   32 1
@<TRIPOS>MOLECULE
ZINC03869685
   31    33     0     0     0
SMALL
USER_CHARGES

@<TRIPOS>ATOM
      1 C1          0.1390    1.1246   -0.8120 C.ar      1 <0>        -0.0626
      2 C2          1.3229    1.8301   -0.8179 C.ar      1 <0>        -0.1333
      3 C3          2.3812    1.4233   -0.0172 C.ar      1 <0>         0.0878
      4 C4          2.2522    0.2984    0.7970 C.ar      1 <0>         0.0757
      5 C5          1.0694   -0.4139    0.8086 C.ar      1 <0>        -0.0997
      6 C6          0.0021   -0.0041    0.0020 C.ar      1 <0>        -0.0194
      7 C7         -1.2620   -0.7597    0.0100 C.2       1 <0>         0.1007
      8 C8         -2.4587   -0.0763    0.1245 C.2       1 <0>        -0.0038
      9 C9         -3.6655   -0.7872    0.1324 C.2       1 <0>         0.3349
     10 C10        -3.6167   -2.1939    0.0219 C.2       1 <0>        -0.3331
     11 C11        -4.8018   -2.9593    0.0240 C.2       1 <0>         0.2664
     12 C12        -4.7326   -4.3182   -0.0844 C.2       1 <0>        -0.3749
     13 C13        -3.4871   -4.9570   -0.1979 C.2       1 <0>         0.3648
     14 O1         -3.4307   -6.2860   -0.3033 O.2       1 <0>        -0.6598
     15 C14        -2.3054   -4.2086   -0.2016 C.2       1 <0>        -0.3143
     16 C15        -2.3616   -2.8325   -0.0921 C.2       1 <0>         0.2118
     17 O2         -1.2290   -2.0988   -0.0996 O.3       1 <0>        -0.2018
     18 O3         -6.0073   -2.3463    0.1339 O.3       1 <0>        -0.4482
     19 O4         -4.8484   -0.1420    0.2437 O.3       1 <0>        -0.5747
     20 O5         -2.4638    1.2803    0.2294 O.3       1 <0>        -0.4649
     21 O6          3.2919   -0.0973    1.5794 O.3       1 <0>        -0.4856
     22 O7          3.5458    2.1225   -0.0269 O.3       1 <0>        -0.4881
     23 H1         -0.6843    1.4460   -1.4327 H         1 <0>         0.1397
     24 H2          1.4276    2.7014   -1.4473 H         1 <0>         0.1381
     25 H3          0.9685   -1.2854    1.4384 H         1 <0>         0.1410
     26 H4         -5.6395   -4.9047   -0.0825 H         1 <0>         0.1180
     27 H5         -1.3506   -4.7057   -0.2895 H         1 <0>         0.1230
     28 H6         -6.7597   -2.9537    0.1258 H         1 <0>         0.3847
     29 H7         -3.3475    1.6656    0.3047 H         1 <0>         0.4058
     30 H8          3.2925    0.2977    2.4620 H         1 <0>         0.3855
     31 H9          3.5825    2.8346    0.6263 H         1 <0>         0.3863
@<TRIPOS>BOND
     1    1    6 ar
     2    1    2 ar
     3    1   23 1
     4    2    3 ar
     5    2   24 1
     6    3    4 ar
     7    3   22 1
     8    4    5 ar
     9    4   21 1
    10    5    6 ar
    11    5   25 1
    12    6    7 1
    13    7   17 1
    14    7    8 2
    15    8    9 1
    16    8   20 1
    17    9   10 2
    18    9   19 1
    19   10   16 1
    20   10   11 1
    21   11   12 2
    22   11   18 1
    23   12   13 1
    24   12   26 1
    25   13   14 2
    26   13   15 1
    27   15   16 2
    28   15   27 1
    29   16   17 1
    30   18   28 1
    31   20   29 1
    32   21   30 1
    33   22   31 1
@<TRIPOS>MOLECULE
ZINC45245505
   23    24     0     0     0
SMALL
USER_CHARGES

@<TRIPOS>ATOM
      1 C1         -0.0167    1.3829    0.0096 C.ar      1 <0>        -0.0470
      2 C2          1.1601    2.1027    0.0023 C.ar      1 <0>        -0.1248
      3 C3          2.3778    1.4352   -0.0129 C.ar      1 <0>         0.1801
      4 C4          2.3928    0.0292   -0.0206 C.ar      1 <0>        -0.1527
      5 C5          3.6827   -0.6678   -0.0367 C.2       1 <0>        -0.0213
      6 C6          4.8150    0.0802   -0.0435 C.2       1 <0>        -0.2157
      7 C7          4.7255    1.4891   -0.0351 C.2       1 <0>         0.5027
      8 O1          5.7491    2.1487   -0.0419 O.2       1 <0>        -0.4328
      9 O2          3.5412    2.1201   -0.0208 O.3       1 <0>        -0.2681
     10 C8          1.1892   -0.6817   -0.0133 C.ar      1 <0>        -0.0265
     11 C9          0.0021   -0.0041    0.0020 C.ar      1 <0>        -0.1946
     12 C10        -1.2960   -0.7696    0.0108 C.3       1 <0>         0.0507
     13 N1         -1.7314   -1.0110   -1.3713 N.4       1 <0>        -0.6382
     14 H1         -0.9623    1.9046    0.0260 H         1 <0>         0.1493
     15 H2          1.1346    3.1824    0.0079 H         1 <0>         0.1577
     16 H3          3.7303   -1.7467   -0.0425 H         1 <0>         0.1612
     17 H4          5.7818   -0.4010   -0.0550 H         1 <0>         0.1746
     18 H5          1.1971   -1.7616   -0.0198 H         1 <0>         0.1483
     19 H6         -1.1518   -1.7235    0.5181 H         1 <0>         0.1428
     20 H7         -2.0559   -0.1904    0.5353 H         1 <0>         0.1441
     21 H8         -2.6005   -1.5235   -1.3654 H         1 <0>         0.4398
     22 H9         -1.8649   -0.1279   -1.8409 H         1 <0>         0.4357
     23 H10        -1.0280   -1.5472   -1.8568 H         1 <0>         0.4347
@<TRIPOS>BOND
     1    1   11 ar
     2    1    2 ar
     3    1   14 1
     4    2    3 ar
     5    2   15 1
     6    3    9 1
     7    3    4 ar
     8    4    5 1
     9    4   10 ar
    10    5    6 2
    11    5   16 1
    12    6    7 1
    13    6   17 1
    14    7    8 2
    15    7    9 1
    16   10   11 ar
    17   10   18 1
    18   11   12 1
    19   12   13 1
    20   12   19 1
    21   12   20 1
    22   13   21 1
    23   13   22 1
    24   13   23 1
@<TRIPOS>MOLECULE
ZINC39042869
   30    31     0     0     0
SMALL
USER_CHARGES

@<TRIPOS>ATOM
      1 C1         -0.0187    1.5258    0.0104 C.3       1 <0>        -0.1524
      2 C2          0.0021   -0.0041    0.0020 C.3       1 <0>         0.0604
      3 O1         -1.3386   -0.4987    0.0122 O.3       1 <0>        -0.3315
      4 C3         -1.4970   -1.8373    0.0065 C.2       1 <0>         0.5308
      5 O2         -0.5232   -2.5645   -0.0067 O.2       1 <0>        -0.5027
      6 C4         -2.8486   -2.4180    0.0163 C.2       1 <0>        -0.2612
      7 C5         -3.0437   -3.7934    0.0166 C.2       1 <0>         0.0925
      8 C6         -4.3765   -4.2782   -0.0063 C.ar      1 <0>        -0.1765
      9 C7         -4.6418   -5.6410    0.1937 C.ar      1 <0>        -0.0161
     10 C8         -5.9326   -6.0853    0.2106 C.ar      1 <0>        -0.1186
     11 C9         -6.9863   -5.2011    0.0237 C.ar      1 <0>        -0.0255
     12 C10        -6.7479   -3.8600   -0.1945 C.ar      1 <0>        -0.1388
     13 C11        -5.4433   -3.3860   -0.2229 C.ar      1 <0>         0.1659
     14 O3         -5.1945   -2.0792   -0.4788 O.3       1 <0>        -0.2707
     15 C12        -4.0501   -1.5633    0.0323 C.2       1 <0>         0.5242
     16 O4         -4.0129   -0.4345    0.4849 O.2       1 <0>        -0.4086
     17 C13        -6.2160   -7.5485    0.4335 C.3       1 <0>         0.1163
     18 O5         -6.3616   -7.7977    1.8331 O.3       1 <0>        -0.5681
     19 H1          1.0039    1.9031    0.0027 H         1 <0>         0.0814
     20 H2         -0.5459    1.8868   -0.8726 H         1 <0>         0.0675
     21 H3         -0.5289    1.8773    0.9072 H         1 <0>         0.0689
     22 H4          0.5123   -0.3556   -0.8948 H         1 <0>         0.0697
     23 H5          0.5293   -0.3651    0.8851 H         1 <0>         0.0703
     24 H6         -2.2051   -4.4737    0.0333 H         1 <0>         0.1689
     25 H7         -3.8275   -6.3366    0.3336 H         1 <0>         0.1462
     26 H8         -8.0023   -5.5666    0.0490 H         1 <0>         0.1461
     27 H9         -7.5742   -3.1803   -0.3422 H         1 <0>         0.1523
     28 H10        -7.1362   -7.8231   -0.0821 H         1 <0>         0.0619
     29 H11        -5.3896   -8.1423    0.0429 H         1 <0>         0.0611
     30 H12        -6.5461   -8.7215    2.0510 H         1 <0>         0.3863
@<TRIPOS>BOND
     1    1    2 1
     2    1   19 1
     3    1   20 1
     4    1   21 1
     5    2    3 1
     6    2   22 1
     7    2   23 1
     8    3    4 1
     9    4    5 2
    10    4    6 1
    11    6   15 1
    12    6    7 2
    13    7    8 1
    14    7   24 1
    15    8   13 ar
    16    8    9 ar
    17    9   10 ar
    18    9   25 1
    19   10   11 ar
    20   10   17 1
    21   11   12 ar
    22   11   26 1
    23   12   13 ar
    24   12   27 1
    25   13   14 1
    26   14   15 1
    27   15   16 2
    28   17   18 1
    29   17   28 1
    30   17   29 1
    31   18   30 1
@<TRIPOS>MOLECULE
ZINC00084532
   23    24     0     0     0
SMALL
USER_CHARGES
8-methoxy-2-oxo-chromene-3-carboxylic acid
@<TRIPOS>ATOM
      1 C1          3.5008   -2.1199   -0.0450 C.3       1 <0>         0.0262
      2 O1          3.5824   -0.6932   -0.0372 O.3       1 <0>        -0.3039
      3 C2          2.4081   -0.0078   -0.0214 C.ar      1 <0>         0.1137
      4 C3          1.2066   -0.6925   -0.0136 C.ar      1 <0>        -0.1764
      5 C4          0.0021   -0.0041    0.0020 C.ar      1 <0>        -0.1064
      6 C5         -0.0164    1.3608    0.0095 C.ar      1 <0>        -0.0969
      7 C6          1.1896    2.0787    0.0019 C.ar      1 <0>        -0.0979
      8 C7          2.4135    1.3874   -0.0135 C.ar      1 <0>         0.1129
      9 O2          3.5871    2.0559   -0.0206 O.3       1 <0>        -0.2686
     10 C8          3.6287    3.3985   -0.0134 C.2       1 <0>         0.5011
     11 O3          4.7014    3.9727   -0.0201 O.2       1 <0>        -0.4199
     12 C9          2.3828    4.1741    0.0031 C.2       1 <0>        -0.2024
     13 C10         1.1751    3.4964    0.0105 C.2       1 <0>        -0.0193
     14 C11         2.4164    5.6449    0.0111 C.2       1 <0>         0.4991
     15 O4          3.4825    6.2285    0.0041 O.co2     1 <0>        -0.5976
     16 H1          2.9582   -2.4479   -0.9316 H         1 <0>         0.0557
     17 H2          4.5060   -2.5412   -0.0575 H         1 <0>         0.1010
     18 H3          2.9759   -2.4587    0.8482 H         1 <0>         0.0557
     19 H4          1.2059   -1.7725   -0.0194 H         1 <0>         0.1382
     20 H5         -0.9283   -0.5525    0.0079 H         1 <0>         0.1326
     21 H6         -0.9589    1.8881    0.0169 H         1 <0>         0.1398
     22 H7          0.2404    4.0373    0.0229 H         1 <0>         0.1612
     23 O5          1.2647    6.3452    0.0262 O.co2     1 <0>        -0.7479
@<TRIPOS>BOND
     1    1    2 1
     2    1   16 1
     3    1   17 1
     4    1   18 1
     5    2    3 1
     6    3    8 ar
     7    3    4 ar
     8    4    5 ar
     9    4   19 1
    10    5    6 ar
    11    5   20 1
    12    6    7 ar
    13    6   21 1
    14    7   13 1
    15    7    8 ar
    16    8    9 1
    17    9   10 1
    18   10   11 2
    19   10   12 1
    20   12   13 2
    21   12   14 1
    22   13   22 1
    23   14   15 2
    24   14   23 1
@<TRIPOS>MOLECULE
ZINC00499358
   30    31     0     0     0
SMALL
USER_CHARGES

@<TRIPOS>ATOM
      1 C1         -0.0187    1.5258    0.0104 C.3       1 <0>        -0.1524
      2 C2          0.0021   -0.0041    0.0020 C.3       1 <0>         0.0607
      3 O1          0.6709   -0.4649   -1.1737 O.3       1 <0>        -0.3323
      4 C3          0.7759   -1.7992   -1.3348 C.2       1 <0>         0.5320
      5 O2          0.3120   -2.5507   -0.4995 O.2       1 <0>        -0.5062
      6 C4          1.4514   -2.3455   -2.5208 C.2       1 <0>        -0.2765
      7 C5          1.5702   -3.7177   -2.7175 C.2       1 <0>         0.1032
      8 C6          2.2613   -4.1687   -3.8673 C.ar      1 <0>        -0.2164
      9 C7          2.2402   -5.5274   -4.2224 C.ar      1 <0>         0.0086
     10 C8          2.8744   -5.9428   -5.3547 C.ar      1 <0>        -0.2323
     11 C9          3.5527   -5.0295   -6.1621 C.ar      1 <0>         0.2069
     12 C10         3.6015   -3.6875   -5.8181 C.ar      1 <0>        -0.1817
     13 C11         2.9688   -3.2484   -4.6666 C.ar      1 <0>         0.2049
     14 O3          3.0463   -1.9470   -4.2974 O.3       1 <0>        -0.2704
     15 C12         2.0242   -1.4614   -3.5512 C.2       1 <0>         0.5266
     16 O4          1.5964   -0.3352   -3.7225 O.2       1 <0>        -0.4100
     17 O5          4.1694   -5.4579   -7.2919 O.3       1 <0>        -0.3015
     18 C13         4.0822   -6.8528   -7.5897 C.3       1 <0>         0.0207
     19 H1          1.0039    1.9031    0.0027 H         1 <0>         0.0673
     20 H2         -0.5459    1.8868   -0.8726 H         1 <0>         0.0687
     21 H3         -0.5289    1.8773    0.9072 H         1 <0>         0.0809
     22 H4          0.5293   -0.3651    0.8851 H         1 <0>         0.0691
     23 H5         -1.0205   -0.3814    0.0098 H         1 <0>         0.0697
     24 H6          1.1474   -4.4185   -2.0129 H         1 <0>         0.1671
     25 H7          1.7227   -6.2416   -3.5991 H         1 <0>         0.1502
     26 H8          2.8521   -6.9871   -5.6290 H         1 <0>         0.1467
     27 H9          4.1309   -2.9864   -6.4461 H         1 <0>         0.1575
     28 H10         4.5282   -7.4263   -6.7771 H         1 <0>         0.0645
     29 H11         3.0355   -7.1355   -7.7021 H         1 <0>         0.0643
     30 H12         4.6163   -7.0605   -8.5169 H         1 <0>         0.1098
@<TRIPOS>BOND
     1    1    2 1
     2    1   19 1
     3    1   20 1
     4    1   21 1
     5    2    3 1
     6    2   22 1
     7    2   23 1
     8    3    4 1
     9    4    5 2
    10    4    6 1
    11    6   15 1
    12    6    7 2
    13    7    8 1
    14    7   24 1
    15    8   13 ar
    16    8    9 ar
    17    9   10 ar
    18    9   25 1
    19   10   11 ar
    20   10   26 1
    21   11   12 ar
    22   11   17 1
    23   12   13 ar
    24   12   27 1
    25   13   14 1
    26   14   15 1
    27   15   16 2
    28   17   18 1
    29   18   28 1
    30   18   29 1
    31   18   30 1
@<TRIPOS>MOLECULE
ZINC00103684
   23    24     0     0     0
SMALL
USER_CHARGES

@<TRIPOS>ATOM
      1 C1         -0.0173    1.4248    0.0099 C.3       1 <0>         0.0269
      2 O1          0.0021   -0.0041    0.0020 O.3       1 <0>        -0.3160
      3 C2         -1.2008   -0.6377    0.0101 C.ar      1 <0>         0.1026
      4 C3         -2.3772    0.1082    0.0195 C.ar      1 <0>        -0.1710
      5 C4         -3.6049   -0.5185    0.0401 C.ar      1 <0>        -0.0924
      6 C5         -3.6781   -1.9049    0.0452 C.ar      1 <0>         0.0944
      7 C6         -2.4941   -2.6655    0.0068 C.ar      1 <0>        -0.0827
      8 C7         -1.2505   -2.0162    0.0032 C.ar      1 <0>        -0.1014
      9 C8         -2.5647   -4.0803   -0.0533 C.2       1 <0>        -0.0407
     10 C9         -3.8085   -4.6648   -0.2685 C.2       1 <0>        -0.2094
     11 C10        -4.9588   -3.7600   -0.4521 C.2       1 <0>         0.5094
     12 O2         -5.9433   -4.1125   -1.0741 O.2       1 <0>        -0.4143
     13 O3         -4.8823   -2.5253    0.0951 O.3       1 <0>        -0.2899
     14 C11        -3.9697   -6.1237   -0.3118 C.2       1 <0>         0.5324
     15 O4         -2.9980   -6.8516   -0.1568 O.co2     1 <0>        -0.6776
     16 O5         -5.0756   -6.6118   -0.5029 O.co2     1 <0>        -0.6590
     17 H1          1.0053    1.8021    0.0021 H         1 <0>         0.0987
     18 H2         -0.5445    1.7859   -0.8732 H         1 <0>         0.0548
     19 H3         -0.5275    1.7763    0.9067 H         1 <0>         0.0551
     20 H4         -2.3270    1.1870    0.0110 H         1 <0>         0.1378
     21 H5         -4.5107    0.0695    0.0527 H         1 <0>         0.1412
     22 H6         -0.3371   -2.5925   -0.0009 H         1 <0>         0.1452
     23 H7         -1.6786   -4.6864    0.0643 H         1 <0>         0.1560
@<TRIPOS>BOND
     1    1    2 1
     2    1   17 1
     3    1   18 1
     4    1   19 1
     5    2    3 1
     6    3    8 ar
     7    3    4 ar
     8    4    5 ar
     9    4   20 1
    10    5    6 ar
    11    5   21 1
    12    6   13 1
    13    6    7 ar
    14    7    8 ar
    15    7    9 1
    16    8   22 1
    17    9   10 2
    18    9   23 1
    19   10   11 1
    20   10   14 1
    21   11   12 2
    22   11   13 1
    23   14   15 2
    24   14   16 1
@<TRIPOS>MOLECULE
ZINC01893420
   27    28     0     0     0
SMALL
USER_CHARGES
7-propoxychromen-2-one
@<TRIPOS>ATOM
      1 C1         -2.5282    5.5539    0.0442 C.3       1 <0>        -0.1512
      2 C2         -2.5802    4.0249    0.0361 C.3       1 <0>        -0.1251
      3 C3         -1.1559    3.4661    0.0264 C.3       1 <0>         0.0549
      4 O1         -1.2045    2.0380    0.0188 O.3       1 <0>        -0.3049
      5 C4         -0.0167    1.3809    0.0096 C.ar      1 <0>         0.1919
      6 C5          1.1738    2.1055    0.0022 C.ar      1 <0>        -0.2283
      7 C6          2.3758    1.4597   -0.0124 C.ar      1 <0>        -0.0098
      8 C7          2.4136    0.0606   -0.0207 C.ar      1 <0>        -0.2019
      9 C8          3.6889   -0.6590   -0.0367 C.2       1 <0>         0.0111
     10 C9          3.6594   -2.0171   -0.0437 C.2       1 <0>        -0.2573
     11 C10         2.4212   -2.6917   -0.0355 C.2       1 <0>         0.5094
     12 O2          2.4090   -3.9096   -0.0419 O.2       1 <0>        -0.4613
     13 O3          1.2557   -2.0261   -0.0204 O.3       1 <0>        -0.2700
     14 C11         1.2148   -0.6765   -0.0132 C.ar      1 <0>         0.1899
     15 C12         0.0021   -0.0041    0.0020 C.ar      1 <0>        -0.1780
     16 H1         -2.0065    5.9044   -0.8464 H         1 <0>         0.0587
     17 H2         -3.5429    5.9520    0.0512 H         1 <0>         0.0672
     18 H3         -1.9981    5.8948    0.9335 H         1 <0>         0.0587
     19 H4         -3.1103    3.6840   -0.8532 H         1 <0>         0.0760
     20 H5         -3.1019    3.6744    0.9267 H         1 <0>         0.0760
     21 H6         -0.6258    3.8069    0.9157 H         1 <0>         0.0684
     22 H7         -0.6342    3.8166   -0.8642 H         1 <0>         0.0685
     23 H8          1.1448    3.1851    0.0083 H         1 <0>         0.1414
     24 H9          3.2952    2.0265   -0.0186 H         1 <0>         0.1442
     25 H10         4.6273   -0.1245   -0.0425 H         1 <0>         0.1539
     26 H11         4.5819   -2.5786   -0.0559 H         1 <0>         0.1646
     27 H12        -0.9248   -0.5585    0.0076 H         1 <0>         0.1529
@<TRIPOS>BOND
     1    1    2 1
     2    1   16 1
     3    1   17 1
     4    1   18 1
     5    2    3 1
     6    2   19 1
     7    2   20 1
     8    3    4 1
     9    3   21 1
    10    3   22 1
    11    4    5 1
    12    5   15 ar
    13    5    6 ar
    14    6    7 ar
    15    6   23 1
    16    7    8 ar
    17    7   24 1
    18    8   14 ar
    19    8    9 1
    20    9   10 2
    21    9   25 1
    22   10   11 1
    23   10   26 1
    24   11   12 2
    25   11   13 1
    26   13   14 1
    27   14   15 ar
    28   15   27 1
@<TRIPOS>MOLECULE
ZINC02950199
   30    31     0     0     0
SMALL
USER_CHARGES
7-butoxychromen-2-one
@<TRIPOS>ATOM
      1 C1          1.3960    3.5852    0.0080 C.3       1 <0>        -0.1536
      2 C2          1.4167    2.0553   -0.0004 C.3       1 <0>        -0.1214
      3 C3         -0.0187    1.5258    0.0104 C.3       1 <0>        -0.1216
      4 C4          0.0021   -0.0041    0.0020 C.3       1 <0>         0.0552
      5 O1         -1.3386   -0.4987    0.0122 O.3       1 <0>        -0.3044
      6 C5         -1.4981   -1.8467    0.0064 C.ar      1 <0>         0.1920
      7 C6         -0.3776   -2.6752   -0.0144 C.ar      1 <0>        -0.2282
      8 C7         -0.5214   -4.0322   -0.0142 C.ar      1 <0>        -0.0098
      9 C8         -1.8026   -4.5959   -0.0054 C.ar      1 <0>        -0.2019
     10 C9         -1.9870   -6.0486   -0.0113 C.2       1 <0>         0.0111
     11 C10        -3.2556   -6.5345   -0.0018 C.2       1 <0>        -0.2573
     12 C11        -4.3479   -5.6429    0.0134 C.2       1 <0>         0.5094
     13 O2         -5.4801   -6.0918    0.0218 O.2       1 <0>        -0.4613
     14 O3         -4.1719   -4.3123    0.0192 O.3       1 <0>        -0.2700
     15 C12        -2.9379   -3.7645    0.0099 C.ar      1 <0>         0.1899
     16 C13        -2.7734   -2.3875    0.0157 C.ar      1 <0>        -0.1780
     17 H1          0.8858    3.9367    0.9048 H         1 <0>         0.0568
     18 H2          2.4186    3.9625    0.0002 H         1 <0>         0.0585
     19 H3          0.8688    3.9463   -0.8751 H         1 <0>         0.0568
     20 H4          1.9439    1.6943    0.8826 H         1 <0>         0.0657
     21 H5          1.9269    1.7038   -0.8972 H         1 <0>         0.0657
     22 H6         -0.5459    1.8868   -0.8726 H         1 <0>         0.0764
     23 H7         -0.5289    1.8773    0.9072 H         1 <0>         0.0764
     24 H8          0.5123   -0.3556   -0.8948 H         1 <0>         0.0685
     25 H9          0.5293   -0.3651    0.8851 H         1 <0>         0.0685
     26 H10         0.6109   -2.2404   -0.0260 H         1 <0>         0.1414
     27 H11         0.3506   -4.6693   -0.0263 H         1 <0>         0.1441
     28 H12        -1.1376   -6.7155   -0.0227 H         1 <0>         0.1539
     29 H13        -3.4270   -7.6008   -0.0062 H         1 <0>         0.1646
     30 H14        -3.6368   -1.7388    0.0271 H         1 <0>         0.1528
@<TRIPOS>BOND
     1    1    2 1
     2    1   17 1
     3    1   18 1
     4    1   19 1
     5    2    3 1
     6    2   20 1
     7    2   21 1
     8    3    4 1
     9    3   22 1
    10    3   23 1
    11    4    5 1
    12    4   24 1
    13    4   25 1
    14    5    6 1
    15    6   16 ar
    16    6    7 ar
    17    7    8 ar
    18    7   26 1
    19    8    9 ar
    20    8   27 1
    21    9   15 ar
    22    9   10 1
    23   10   11 2
    24   10   28 1
    25   11   12 1
    26   11   29 1
    27   12   13 2
    28   12   14 1
    29   14   15 1
    30   15   16 ar
    31   16   30 1
@<TRIPOS>MOLECULE
ZINC44198895
   21    22     0     0     0
SMALL
USER_CHARGES

@<TRIPOS>ATOM
      1 C1         -0.0167    1.3829    0.0096 C.ar      1 <0>        -0.0426
      2 C2          1.1601    2.1027    0.0023 C.ar      1 <0>        -0.1351
      3 C3          2.3778    1.4352   -0.0129 C.ar      1 <0>         0.1517
      4 C4          2.3928    0.0292   -0.0206 C.ar      1 <0>        -0.1633
      5 C5          3.6827   -0.6678   -0.0367 C.2       1 <0>         0.0013
      6 C6          4.8150    0.0802   -0.0435 C.2       1 <0>        -0.2450
      7 C7          4.7255    1.4891   -0.0351 C.2       1 <0>         0.5069
      8 O1          5.7491    2.1487   -0.0419 O.2       1 <0>        -0.4601
      9 O2          3.5412    2.1201   -0.0208 O.3       1 <0>        -0.2704
     10 C8          1.1892   -0.6817   -0.0133 C.ar      1 <0>        -0.0329
     11 C9          0.0021   -0.0041    0.0020 C.ar      1 <0>        -0.1161
     12 C10        -1.2960   -0.7696    0.0108 C.3       1 <0>         0.1172
     13 O3         -1.7196   -1.0044   -1.3337 O.3       1 <0>        -0.5682
     14 H1         -0.9623    1.9046    0.0260 H         1 <0>         0.1422
     15 H2          1.1346    3.1824    0.0079 H         1 <0>         0.1479
     16 H3          3.7303   -1.7467   -0.0425 H         1 <0>         0.1555
     17 H4          5.7818   -0.4010   -0.0550 H         1 <0>         0.1662
     18 H5          1.1971   -1.7616   -0.0198 H         1 <0>         0.1406
     19 H6         -1.1518   -1.7235    0.5181 H         1 <0>         0.0591
     20 H7         -2.0559   -0.1904    0.5353 H         1 <0>         0.0602
     21 H8         -2.5506   -1.4937   -1.4044 H         1 <0>         0.3849
@<TRIPOS>BOND
     1    1   11 ar
     2    1    2 ar
     3    1   14 1
     4    2    3 ar
     5    2   15 1
     6    3    9 1
     7    3    4 ar
     8    4    5 1
     9    4   10 ar
    10    5    6 2
    11    5   16 1
    12    6    7 1
    13    6   17 1
    14    7    8 2
    15    7    9 1
    16   10   11 ar
    17   10   18 1
    18   11   12 1
    19   12   13 1
    20   12   19 1
    21   12   20 1
    22   13   21 1
@<TRIPOS>MOLECULE
ZINC02023765
   22    23     0     0     0
SMALL
USER_CHARGES
6-methyl-2-oxo-chromene-3-carboxylic acid
@<TRIPOS>ATOM
      1 C1         -2.1226    8.2248    0.0654 C.3       1 <0>        -0.1095
      2 C2         -0.8764    7.3776    0.0488 C.ar      1 <0>        -0.1169
      3 C3          0.3709    7.9868    0.0402 C.ar      1 <0>        -0.0775
      4 C4          1.5226    7.2292    0.0255 C.ar      1 <0>        -0.1333
      5 C5          1.4416    5.8409    0.0193 C.ar      1 <0>         0.1361
      6 C6          0.1767    5.2257    0.0281 C.ar      1 <0>        -0.1320
      7 C7         -0.9822    6.0169    0.0430 C.ar      1 <0>        -0.0608
      8 C8          0.0747    3.8118    0.0161 C.2       1 <0>        -0.0135
      9 C9          1.2386    3.0611    0.0067 C.2       1 <0>        -0.2122
     10 C10         2.5298    3.7587   -0.0019 C.2       1 <0>         0.5032
     11 O1          3.5650    3.1195   -0.0152 O.2       1 <0>        -0.4214
     12 O2          2.5712    5.1014    0.0045 O.3       1 <0>        -0.2809
     13 C11         1.1815    1.5911   -0.0007 C.2       1 <0>         0.4996
     14 O3          2.2097    0.9430   -0.0140 O.co2     1 <0>        -0.5995
     15 H1         -2.4330    8.4346   -0.9583 H         1 <0>         0.0694
     16 H2         -2.9185    7.6903    0.5840 H         1 <0>         0.0671
     17 H3         -1.9178    9.1623    0.5823 H         1 <0>         0.0655
     18 H4          0.4398    9.0646    0.0453 H         1 <0>         0.1332
     19 H5          2.4878    7.7139    0.0192 H         1 <0>         0.1388
     20 H6         -1.9560    5.5499    0.0498 H         1 <0>         0.1367
     21 H7         -0.8916    3.3295    0.0178 H         1 <0>         0.1572
     22 O4         -0.0110    0.9628    0.0073 O.co2     1 <0>        -0.7492
@<TRIPOS>BOND
     1    1    2 1
     2    1   15 1
     3    1   16 1
     4    1   17 1
     5    2    7 ar
     6    2    3 ar
     7    3    4 ar
     8    3   18 1
     9    4    5 ar
    10    4   19 1
    11    5   12 1
    12    5    6 ar
    13    6    7 ar
    14    6    8 1
    15    7   20 1
    16    8    9 2
    17    8   21 1
    18    9   10 1
    19    9   13 1
    20   10   11 2
    21   10   12 1
    22   13   14 2
    23   13   22 1
@<TRIPOS>MOLECULE
ZINC00074709
   17    18     0     0     0
SMALL
USER_CHARGES

@<TRIPOS>ATOM
      1 C1         -0.0165    1.3624    0.0095 C.ar      1 <0>        -0.1419
      2 C2          1.1694    2.0828    0.0021 C.ar      1 <0>        -0.0622
      3 C3          2.3864    1.4343   -0.0130 C.ar      1 <0>        -0.1344
      4 C4          2.4291    0.0458   -0.0209 C.ar      1 <0>         0.1445
      5 C5          1.2257   -0.6807   -0.0133 C.ar      1 <0>        -0.1626
      6 C6          0.0021   -0.0041    0.0020 C.ar      1 <0>        -0.0545
      7 C7          1.2797   -2.1458   -0.0218 C.2       1 <0>         0.0000
      8 C8          2.4988   -2.7419   -0.0367 C.2       1 <0>        -0.2457
      9 C9          3.6673   -1.9496   -0.0436 C.2       1 <0>         0.5065
     10 O1          4.7551   -2.4967   -0.0571 O.2       1 <0>        -0.4613
     11 O2          3.6097   -0.6089   -0.0361 O.3       1 <0>        -0.2712
     12 H1         -0.9612    1.8855    0.0259 H         1 <0>         0.1364
     13 H2          1.1390    3.1624    0.0078 H         1 <0>         0.1414
     14 H3          3.3037    2.0043   -0.0191 H         1 <0>         0.1449
     15 H4         -0.9244   -0.5590    0.0083 H         1 <0>         0.1397
     16 H5          0.3743   -2.7344   -0.0160 H         1 <0>         0.1550
     17 H6          2.5748   -3.8192   -0.0430 H         1 <0>         0.1655
@<TRIPOS>BOND
     1    1    6 ar
     2    1    2 ar
     3    1   12 1
     4    2    3 ar
     5    2   13 1
     6    3    4 ar
     7    3   14 1
     8    4   11 1
     9    4    5 ar
    10    5    6 ar
    11    5    7 1
    12    6   15 1
    13    7    8 2
    14    7   16 1
    15    8    9 1
    16    8   17 1
    17    9   10 2
    18    9   11 1
@<TRIPOS>MOLECULE
ZINC00163348
   19    19     0     0     0
SMALL
USER_CHARGES

@<TRIPOS>ATOM
      1 C1         -0.0166    1.3766    0.0096 C.ar      1 <0>        -0.0148
      2 C2          1.1707    2.0859    0.0021 C.ar      1 <0>        -0.1944
      3 C3          2.3799    1.4157   -0.0135 C.ar      1 <0>         0.0238
      4 C4          2.4059    0.0347   -0.0211 C.ar      1 <0>        -0.7501
      5 C5          1.2154   -0.6807   -0.0131 C.ar      1 <0>         0.3076
      6 C6          0.0021   -0.0041    0.0020 C.ar      1 <0>        -0.2142
      7 N1          1.2380   -2.0772   -0.0208 N.pl3     1 <0>        -0.8689
      8 S1          3.9474   -0.8184   -0.0415 S.o2      1 <0>         2.7017
      9 O1          3.8584   -1.7934   -1.0714 O.2       1 <0>        -0.9671
     10 O2          4.9622    0.1761   -0.0196 O.2       1 <0>        -0.9638
     11 N2          4.0669   -1.6480    1.3867 N.pl3     1 <0>        -1.2533
     12 H1         -0.9594    1.9032    0.0259 H         1 <0>         0.1324
     13 H2          1.1532    3.1658    0.0080 H         1 <0>         0.1322
     14 H3          3.3052    1.9726   -0.0200 H         1 <0>         0.1448
     15 H4         -0.9254   -0.5574    0.0082 H         1 <0>         0.1321
     16 H5          2.0857   -2.5485   -0.0317 H         1 <0>         0.4032
     17 H6          0.4060   -2.5758   -0.0152 H         1 <0>         0.4103
     18 H7          3.3512   -1.5955    2.0394 H         1 <0>         0.4166
     19 H8          4.8524   -2.1865    1.5706 H         1 <0>         0.4220
@<TRIPOS>BOND
     1    1    6 ar
     2    1    2 ar
     3    1   12 1
     4    2    3 ar
     5    2   13 1
     6    3    4 ar
     7    3   14 1
     8    4    5 ar
     9    4    8 1
    10    5    6 ar
    11    5    7 1
    12    6   15 1
    13    7   16 1
    14    7   17 1
    15    8    9 2
    16    8   10 2
    17    8   11 1
    18   11   18 1
    19   11   19 1
@<TRIPOS>MOLECULE
ZINC12522340
   19    19     0     0     0
SMALL
USER_CHARGES

@<TRIPOS>ATOM
      1 C1         -0.0167    1.3783    0.0096 C.ar      1 <0>         0.0432
      2 C2          1.1691    2.0872    0.0021 C.ar      1 <0>        -0.2113
      3 C3          2.3811    1.4099   -0.0131 C.ar      1 <0>         0.2994
      4 C4          2.3969    0.0199   -0.0208 C.ar      1 <0>        -0.1966
      5 C5          1.2073   -0.6825   -0.0132 C.ar      1 <0>         0.0609
      6 C6          0.0021   -0.0041    0.0020 C.ar      1 <0>        -0.7307
      7 S1         -1.5129   -0.9037    0.0117 S.o2      1 <0>         2.7071
      8 O1         -1.2211   -2.1848    0.5529 O.2       1 <0>        -0.9643
      9 O2         -2.4926   -0.0432    0.5765 O.2       1 <0>        -0.9644
     10 N1         -1.9490   -1.1452   -1.5675 N.pl3     1 <0>        -1.2510
     11 Br1         4.0443   -0.9082   -0.0421 Br        1 <0>        -0.0366
     12 N2          3.5822    2.1238   -0.0212 N.pl3     1 <0>        -0.8542
     13 H1         -0.9595    1.9048    0.0260 H         1 <0>         0.1500
     14 H2          1.1534    3.1670    0.0077 H         1 <0>         0.1423
     15 H3          1.2184   -1.7624   -0.0191 H         1 <0>         0.1521
     16 H4         -1.3892   -0.8049   -2.2828 H         1 <0>         0.4166
     17 H5         -2.7644   -1.6270   -1.7772 H         1 <0>         0.4210
     18 H6          3.5700    3.0937   -0.0162 H         1 <0>         0.4089
     19 H7          4.4283    1.6495   -0.0319 H         1 <0>         0.4077
@<TRIPOS>BOND
     1    1    6 ar
     2    1    2 ar
     3    1   13 1
     4    2    3 ar
     5    2   14 1
     6    3    4 ar
     7    3   12 1
     8    4    5 ar
     9    4   11 1
    10    5    6 ar
    11    5   15 1
    12    6    7 1
    13    7    8 2
    14    7    9 2
    15    7   10 1
    16   10   16 1
    17   10   17 1
    18   12   18 1
    19   12   19 1
@<TRIPOS>MOLECULE
ZINC06925827
   19    19     0     0     0
SMALL
USER_CHARGES

@<TRIPOS>ATOM
      1 C1         -0.0167    1.3781    0.0096 C.ar      1 <0>         0.0242
      2 C2          1.1692    2.0876    0.0021 C.ar      1 <0>        -0.1967
      3 C3          2.3811    1.4114   -0.0131 C.ar      1 <0>         0.2470
      4 C4          2.3976    0.0203   -0.0208 C.ar      1 <0>        -0.0015
      5 C5          1.2074   -0.6827   -0.0132 C.ar      1 <0>        -0.0028
      6 C6          0.0021   -0.0041    0.0020 C.ar      1 <0>        -0.7114
      7 S1         -1.5130   -0.9036    0.0117 S.o2      1 <0>         2.7084
      8 O1         -1.2212   -2.1847    0.5529 O.2       1 <0>        -0.9645
      9 O2         -2.4926   -0.0431    0.5765 O.2       1 <0>        -0.9636
     10 N1         -1.9491   -1.1451   -1.5675 N.pl3     1 <0>        -1.2509
     11 F1          3.5748   -0.6424   -0.0360 F         1 <0>        -0.1362
     12 N2          3.5828    2.1266   -0.0212 N.pl3     1 <0>        -0.8574
     13 H1         -0.9596    1.9043    0.0260 H         1 <0>         0.1506
     14 H2          1.1529    3.1674    0.0077 H         1 <0>         0.1433
     15 H3          1.2185   -1.7627   -0.0195 H         1 <0>         0.1554
     16 H4         -1.3892   -0.8048   -2.2828 H         1 <0>         0.4167
     17 H5         -2.7645   -1.6268   -1.7772 H         1 <0>         0.4211
     18 H6          3.5699    3.0965   -0.0162 H         1 <0>         0.4096
     19 H7          4.4291    1.6528   -0.0319 H         1 <0>         0.4087
@<TRIPOS>BOND
     1    1    6 ar
     2    1    2 ar
     3    1   13 1
     4    2    3 ar
     5    2   14 1
     6    3    4 ar
     7    3   12 1
     8    4    5 ar
     9    4   11 1
    10    5    6 ar
    11    5   15 1
    12    6    7 1
    13    7    8 2
    14    7    9 2
    15    7   10 1
    16   10   16 1
    17   10   17 1
    18   12   18 1
    19   12   19 1
@<TRIPOS>MOLECULE
ZINC00056629
   26    26     0     0     0
SMALL
USER_CHARGES

@<TRIPOS>ATOM
      1 C1         -0.0167    1.3781    0.0096 C.ar      1 <0>        -0.1310
      2 C2          1.1709    2.0855    0.0021 C.ar      1 <0>        -0.0118
      3 C3          2.3773    1.4107   -0.0130 C.ar      1 <0>        -0.6631
      4 C4          2.3960    0.0285   -0.0201 C.ar      1 <0>        -0.0118
      5 C5          1.2085   -0.6789   -0.0117 C.ar      1 <0>        -0.1310
      6 C6          0.0021   -0.0041    0.0020 C.ar      1 <0>        -0.0517
      7 C7         -1.2926   -0.7753    0.0107 C.3       1 <0>        -0.1123
      8 C8         -1.7450   -1.0285   -1.4288 C.3       1 <0>        -0.0066
      9 N1         -3.0071   -1.7802   -1.4203 N.4       1 <0>        -0.6375
     10 S1          3.8911    2.3124   -0.0238 S.o2      1 <0>         2.6984
     11 O1          4.8717    1.4529   -0.5884 O.2       1 <0>        -0.9553
     12 O2          3.5973    3.5927   -0.5658 O.2       1 <0>        -0.9553
     13 N2          4.3274    2.5556    1.5551 N.pl3     1 <0>        -1.2477
     14 H1         -0.9591    1.9053    0.0259 H         1 <0>         0.1380
     15 H2          1.1563    3.1654    0.0076 H         1 <0>         0.1512
     16 H3          3.3385   -0.4987   -0.0326 H         1 <0>         0.1512
     17 H4          1.2231   -1.7588   -0.0179 H         1 <0>         0.1380
     18 H5         -1.1443   -1.7285    0.5180 H         1 <0>         0.1028
     19 H6         -2.0551   -0.1993    0.5352 H         1 <0>         0.1028
     20 H7         -1.8934   -0.0752   -1.9361 H         1 <0>         0.1377
     21 H8         -0.9826   -1.6044   -1.9533 H         1 <0>         0.1377
     22 H9         -2.8698   -2.6627   -0.9508 H         1 <0>         0.4365
     23 H10        -3.7129   -1.2471   -0.9348 H         1 <0>         0.4365
     24 H11         3.7682    2.2150    2.2708 H         1 <0>         0.4166
     25 H12         5.1421    3.0386    1.7642 H         1 <0>         0.4261
     26 H13        -3.3055   -1.9473   -2.3696 H         1 <0>         0.4414
@<TRIPOS>BOND
     1    1    6 ar
     2    1    2 ar
     3    1   14 1
     4    2    3 ar
     5    2   15 1
     6    3    4 ar
     7    3   10 1
     8    4    5 ar
     9    4   16 1
    10    5    6 ar
    11    5   17 1
    12    6    7 1
    13    7    8 1
    14    7   18 1
    15    7   19 1
    16    8    9 1
    17    8   20 1
    18    8   21 1
    19    9   22 1
    20    9   23 1
    21    9   26 1
    22   10   11 2
    23   10   12 2
    24   10   13 1
    25   13   24 1
    26   13   25 1
@<TRIPOS>MOLECULE
ZINC01420707
   19    19     0     0     0
SMALL
USER_CHARGES

@<TRIPOS>ATOM
      1 C1         -0.0167    1.3783    0.0096 C.ar      1 <0>         0.0352
      2 C2          1.1691    2.0872    0.0021 C.ar      1 <0>        -0.2082
      3 C3          2.3811    1.4102   -0.0131 C.ar      1 <0>         0.2843
      4 C4          2.3970    0.0200   -0.0206 C.ar      1 <0>        -0.1395
      5 C5          1.2073   -0.6826   -0.0130 C.ar      1 <0>         0.0407
      6 C6          0.0021   -0.0041    0.0020 C.ar      1 <0>        -0.7255
      7 S1         -1.5129   -0.9037    0.0116 S.o2      1 <0>         2.7076
      8 O1         -1.2211   -2.1848    0.5528 O.2       1 <0>        -0.9645
      9 O2         -2.4926   -0.0432    0.5764 O.2       1 <0>        -0.9644
     10 N1         -1.9490   -1.1452   -1.5676 N.pl3     1 <0>        -1.2510
     11 Cl1         3.9094   -0.8320   -0.0402 Cl        1 <0>        -0.0582
     12 N2          3.5823    2.1243   -0.0212 N.pl3     1 <0>        -0.8554
     13 H1         -0.9596    1.9047    0.0259 H         1 <0>         0.1498
     14 H2          1.1533    3.1671    0.0077 H         1 <0>         0.1426
     15 H3          1.2184   -1.7625   -0.0193 H         1 <0>         0.1528
     16 H4         -1.3890   -0.8048   -2.2828 H         1 <0>         0.4166
     17 H5         -2.7643   -1.6269   -1.7774 H         1 <0>         0.4209
     18 H6          3.5700    3.0943   -0.0162 H         1 <0>         0.4088
     19 H7          4.4285    1.6502   -0.0317 H         1 <0>         0.4074
@<TRIPOS>BOND
     1    1    6 ar
     2    1    2 ar
     3    1   13 1
     4    2    3 ar
     5    2   14 1
     6    3    4 ar
     7    3   12 1
     8    4    5 ar
     9    4   11 1
    10    5    6 ar
    11    5   15 1
    12    6    7 1
    13    7    8 2
    14    7    9 2
    15    7   10 1
    16   10   16 1
    17   10   17 1
    18   12   18 1
    19   12   19 1
@<TRIPOS>MOLECULE
ZINC00006694
   36    38     0     0     0
SMALL
USER_CHARGES

@<TRIPOS>ATOM
      1 C1         -0.1617    1.4828    0.2281 C.3       1 <0>        -0.0921
      2 C2         -0.0604   -0.0148    0.0940 C.2       1 <0>         0.1007
      3 C3         -1.1028   -0.8718   -0.0533 C.2       1 <0>        -0.2318
      4 C4         -0.5364   -2.2230   -0.1438 C.2       1 <0>         0.1705
      5 N1          0.7646   -2.0994   -0.0488 N.2       1 <0>        -0.2993
      6 O1          1.0742   -0.7272    0.0940 O.3       1 <0>        -0.0739
      7 C5         -1.2932   -3.4879   -0.3106 C.ar      1 <0>        -0.0439
      8 C6         -2.3762   -3.5448   -1.1859 C.ar      1 <0>        -0.0815
      9 C7         -3.0766   -4.7243   -1.3371 C.ar      1 <0>        -0.1186
     10 C8         -2.7058   -5.8485   -0.6216 C.ar      1 <0>        -0.0972
     11 C9         -1.6317   -5.7978    0.2486 C.ar      1 <0>        -0.1194
     12 C10        -0.9202   -4.6253    0.4030 C.ar      1 <0>        -0.0832
     13 C11        -2.5407   -0.5114   -0.1109 C.ar      1 <0>         0.0521
     14 C12        -3.4016   -0.9038    0.9123 C.ar      1 <0>        -0.1202
     15 C13        -4.7384   -0.5658    0.8535 C.ar      1 <0>        -0.0125
     16 C14        -5.2242    0.1611   -0.2184 C.ar      1 <0>        -0.6744
     17 C15        -4.3743    0.5528   -1.2371 C.ar      1 <0>        -0.0138
     18 C16        -3.0344    0.2257   -1.1856 C.ar      1 <0>        -0.1298
     19 S1         -6.9320    0.5891   -0.2869 S.o2      1 <0>         2.7001
     20 O2         -7.2432    0.8001   -1.6573 O.2       1 <0>        -0.9615
     21 O3         -7.6213   -0.3617    0.5132 O.2       1 <0>        -0.9612
     22 N2         -7.1004    2.0535    0.4677 N.pl3     1 <0>        -1.2497
     23 H1          0.8374    1.9071    0.3269 H         1 <0>         0.0912
     24 H2         -0.6456    1.8949   -0.6573 H         1 <0>         0.0993
     25 H3         -0.7502    1.7294    1.1118 H         1 <0>         0.0990
     26 H4         -2.6670   -2.6674   -1.7445 H         1 <0>         0.1260
     27 H5         -3.9161   -4.7695   -2.0151 H         1 <0>         0.1318
     28 H6         -3.2572   -6.7692   -0.7425 H         1 <0>         0.1300
     29 H7         -1.3468   -6.6785    0.8050 H         1 <0>         0.1317
     30 H8         -0.0788   -4.5881    1.0791 H         1 <0>         0.1284
     31 H9         -3.0234   -1.4716    1.7496 H         1 <0>         0.1342
     32 H10        -5.4065   -0.8696    1.6458 H         1 <0>         0.1467
     33 H11        -4.7590    1.1195   -2.0720 H         1 <0>         0.1473
     34 H12        -2.3708    0.5364   -1.9789 H         1 <0>         0.1359
     35 H13        -6.3238    2.4987    0.8413 H         1 <0>         0.4168
     36 H14        -7.9756    2.4661    0.5360 H         1 <0>         0.4220
@<TRIPOS>BOND
     1    1    2 1
     2    1   23 1
     3    1   24 1
     4    1   25 1
     5    2    6 1
     6    2    3 2
     7    3    4 1
     8    3   13 1
     9    4    5 2
    10    4    7 1
    11    5    6 1
    12    7   12 ar
    13    7    8 ar
    14    8    9 ar
    15    8   26 1
    16    9   10 ar
    17    9   27 1
    18   10   11 ar
    19   10   28 1
    20   11   12 ar
    21   11   29 1
    22   12   30 1
    23   13   18 ar
    24   13   14 ar
    25   14   15 ar
    26   14   31 1
    27   15   16 ar
    28   15   32 1
    29   16   17 ar
    30   16   19 1
    31   17   18 ar
    32   17   33 1
    33   18   34 1
    34   19   20 2
    35   19   21 2
    36   19   22 1
    37   22   35 1
    38   22   36 1
@<TRIPOS>MOLECULE
ZINC19632618
   69    73     0     0     0
SMALL
USER_CHARGES

@<TRIPOS>ATOM
      1 C1         -0.1643    1.5374    0.2772 C.3       1 <0>        -0.1166
      2 C2          0.0708    0.1281   -0.2021 C.ar      1 <0>        -0.1228
      3 C3         -0.6192   -0.3521   -1.2987 C.ar      1 <0>        -0.0806
      4 C4         -0.4070   -1.6434   -1.7410 C.ar      1 <0>        -0.1294
      5 C5          0.5017   -2.4641   -1.0837 C.ar      1 <0>         0.1504
      6 C6          1.1965   -1.9850    0.0175 C.ar      1 <0>        -0.1394
      7 C7          0.9852   -0.6852    0.4558 C.ar      1 <0>         0.1826
      8 N1          1.6874   -0.1967    1.5617 N.pl3     1 <0>        -0.6314
      9 C8          2.1285   -1.0695    2.5429 C.ar      1 <0>         0.5659
     10 N2          1.7764   -2.3456    2.4776 N.ar      1 <0>        -0.5577
     11 C9          2.1776   -3.2107    3.3953 C.ar      1 <0>         0.1910
     12 C10         2.9764   -2.7714    4.4364 C.ar      1 <0>        -0.2706
     13 C11         3.3313   -1.4207    4.4789 C.ar      1 <0>         0.2697
     14 N3          2.8950   -0.6087    3.5185 N.ar      1 <0>        -0.5576
     15 C12         4.1856   -0.9008    5.5740 C.ar      1 <0>        -0.1200
     16 C13         4.4510    0.4679    5.6793 C.ar      1 <0>        -0.0267
     17 C14         5.2541    0.9026    6.7193 C.ar      1 <0>        -0.1772
     18 C15         5.7636   -0.0222    7.6129 C.ar      1 <0>         0.1192
     19 N4          5.4957   -1.3077    7.4879 N.ar      1 <0>        -0.4844
     20 C16         4.7320   -1.7677    6.5181 C.ar      1 <0>         0.1336
     21 N5          0.7153   -3.7716   -1.5315 N.am      1 <0>        -0.6649
     22 C17         0.7404   -4.0356   -2.8529 C.2       1 <0>         0.5545
     23 O1          0.4912   -3.1555   -3.6535 O.2       1 <0>        -0.5086
     24 C18         1.0709   -5.3955   -3.3287 C.ar      1 <0>        -0.1216
     25 C19         1.3519   -6.4100   -2.4119 C.ar      1 <0>        -0.0841
     26 C20         1.6592   -7.6771   -2.8626 C.ar      1 <0>        -0.1244
     27 C21         1.6892   -7.9435   -4.2200 C.ar      1 <0>        -0.0692
     28 C22         1.4117   -6.9425   -5.1341 C.ar      1 <0>        -0.0994
     29 C23         1.0978   -5.6724   -4.6966 C.ar      1 <0>        -0.0536
     30 C24         2.0262   -9.3299   -4.7050 C.3       1 <0>         0.0939
     31 N6          0.7933  -10.1196   -4.8258 N.3       1 <0>        -0.5345
     32 C25         0.1866  -10.3538   -3.5078 C.3       1 <0>         0.0185
     33 C26        -1.1228  -11.1262   -3.6823 C.3       1 <0>        -0.0025
     34 N7         -0.8513  -12.4061   -4.3498 N.4       1 <0>        -0.3884
     35 C27        -0.2685  -12.1554   -5.6746 C.3       1 <0>        -0.0024
     36 C28         1.0481  -11.3916   -5.5166 C.3       1 <0>         0.0250
     37 C29        -2.1059  -13.1551   -4.5009 C.3       1 <0>        -0.0460
     38 H1          0.5251    2.2130   -0.2290 H         1 <0>         0.0728
     39 H2         -1.1901    1.8307    0.0540 H         1 <0>         0.0743
     40 H3          0.0021    1.5877    1.3533 H         1 <0>         0.0627
     41 H4         -1.3262    0.2836   -1.8111 H         1 <0>         0.1320
     42 H5         -0.9481   -2.0158   -2.5982 H         1 <0>         0.1349
     43 H6          1.9030   -2.6209    0.5302 H         1 <0>         0.1479
     44 H7          1.8658    0.7534    1.6418 H         1 <0>         0.4260
     45 H8          1.8844   -4.2483    3.3325 H         1 <0>         0.1734
     46 H9          3.3172   -3.4566    5.1985 H         1 <0>         0.1507
     47 H10         4.0401    1.1680    4.9670 H         1 <0>         0.1466
     48 H11         5.4807    1.9525    6.8318 H         1 <0>         0.1437
     49 H12         6.3909    0.3135    8.4254 H         1 <0>         0.1633
     50 H13         4.5316   -2.8268    6.4514 H         1 <0>         0.1617
     51 H14         0.8453   -4.4884   -0.8911 H         1 <0>         0.4084
     52 H15         1.3291   -6.2032   -1.3521 H         1 <0>         0.1294
     53 H16         1.8771   -8.4627   -2.1544 H         1 <0>         0.1265
     54 H17         1.4372   -7.1570   -6.1922 H         1 <0>         0.1340
     55 H18         0.8770   -4.8931   -5.4110 H         1 <0>         0.1424
     56 H19         2.5135   -9.2661   -5.6779 H         1 <0>         0.1008
     57 H20         2.6973   -9.8107   -3.9933 H         1 <0>         0.0595
     58 H21         0.8718  -10.9344   -2.8900 H         1 <0>         0.0618
     59 H22        -0.0167   -9.3975   -3.0259 H         1 <0>         0.1265
     60 H23        -1.5673  -11.3133   -2.7048 H         1 <0>         0.1359
     61 H24        -1.8127  -10.5393   -4.2887 H         1 <0>         0.1379
     62 H25        -0.0795  -13.1056   -6.1741 H         1 <0>         0.1367
     63 H26        -0.9627  -11.5633   -6.2708 H         1 <0>         0.1381
     64 H27         1.4733  -11.1924   -6.5003 H         1 <0>         0.1253
     65 H28         1.7474  -11.9892   -4.9320 H         1 <0>         0.0621
     66 H29        -2.8061  -12.5737   -5.1008 H         1 <0>         0.1233
     67 H30        -1.9046  -14.1049   -4.9963 H         1 <0>         0.1246
     68 H31        -2.5379  -13.3423   -3.5179 H         1 <0>         0.1243
     69 H32        -0.2036  -12.9443   -3.7940 H         1 <0>         0.4222
@<TRIPOS>BOND
     1    1    2 1
     2    1   38 1
     3    1   39 1
     4    1   40 1
     5    2    7 ar
     6    2    3 ar
     7    3    4 ar
     8    3   41 1
     9    4    5 ar
    10    4   42 1
    11    5    6 ar
    12    5   21 1
    13    6    7 ar
    14    6   43 1
    15    7    8 1
    16    8    9 1
    17    8   44 1
    18    9   14 ar
    19    9   10 ar
    20   10   11 ar
    21   11   12 ar
    22   11   45 1
    23   12   13 ar
    24   12   46 1
    25   13   14 ar
    26   13   15 1
    27   15   20 ar
    28   15   16 ar
    29   16   17 ar
    30   16   47 1
    31   17   18 ar
    32   17   48 1
    33   18   19 ar
    34   18   49 1
    35   19   20 ar
    36   20   50 1
    37   21   22 am
    38   21   51 1
    39   22   23 2
    40   22   24 1
    41   24   29 ar
    42   24   25 ar
    43   25   26 ar
    44   25   52 1
    45   26   27 ar
    46   26   53 1
    47   27   28 ar
    48   27   30 1
    49   28   29 ar
    50   28   54 1
    51   29   55 1
    52   30   31 1
    53   30   56 1
    54   30   57 1
    55   31   36 1
    56   31   32 1
    57   32   33 1
    58   32   58 1
    59   32   59 1
    60   33   34 1
    61   33   60 1
    62   33   61 1
    63   34   35 1
    64   34   37 1
    65   34   69 1
    66   35   36 1
    67   35   62 1
    68   35   63 1
    69   36   64 1
    70   36   65 1
    71   37   66 1
    72   37   67 1
    73   37   68 1
@<TRIPOS>MOLECULE
ZINC19632618
   69    73     0     0     0
SMALL
USER_CHARGES

@<TRIPOS>ATOM
      1 C1         -0.1643    1.5374    0.2772 C.3       1 <0>        -0.1179
      2 C2          0.0708    0.1281   -0.2021 C.ar      1 <0>        -0.1195
      3 C3         -0.6192   -0.3521   -1.2987 C.ar      1 <0>        -0.0803
      4 C4         -0.4070   -1.6434   -1.7410 C.ar      1 <0>        -0.1287
      5 C5          0.5017   -2.4641   -1.0837 C.ar      1 <0>         0.1452
      6 C6          1.1965   -1.9850    0.0175 C.ar      1 <0>        -0.1374
      7 C7          0.9852   -0.6852    0.4558 C.ar      1 <0>         0.1839
      8 N1          1.6874   -0.1967    1.5617 N.pl3     1 <0>        -0.6318
      9 C8          2.1285   -1.0695    2.5429 C.ar      1 <0>         0.5654
     10 N2          1.7764   -2.3456    2.4776 N.ar      1 <0>        -0.5590
     11 C9          2.1776   -3.2107    3.3953 C.ar      1 <0>         0.1907
     12 C10         2.9764   -2.7714    4.4364 C.ar      1 <0>        -0.2695
     13 C11         3.3313   -1.4207    4.4789 C.ar      1 <0>         0.2707
     14 N3          2.8950   -0.6087    3.5185 N.ar      1 <0>        -0.5571
     15 C12         4.1856   -0.9008    5.5740 C.ar      1 <0>        -0.1213
     16 C13         4.4510    0.4679    5.6793 C.ar      1 <0>        -0.0264
     17 C14         5.2541    0.9026    6.7193 C.ar      1 <0>        -0.1772
     18 C15         5.7636   -0.0222    7.6129 C.ar      1 <0>         0.1201
     19 N4          5.4957   -1.3077    7.4879 N.ar      1 <0>        -0.4842
     20 C16         4.7320   -1.7677    6.5181 C.ar      1 <0>         0.1342
     21 N5          0.7153   -3.7716   -1.5315 N.am      1 <0>        -0.6603
     22 C17         0.7404   -4.0356   -2.8529 C.2       1 <0>         0.5491
     23 O1          0.4912   -3.1555   -3.6535 O.2       1 <0>        -0.5015
     24 C18         1.0709   -5.3955   -3.3287 C.ar      1 <0>        -0.0938
     25 C19         1.3519   -6.4100   -2.4119 C.ar      1 <0>        -0.0834
     26 C20         1.6592   -7.6771   -2.8626 C.ar      1 <0>        -0.1009
     27 C21         1.6892   -7.9435   -4.2200 C.ar      1 <0>        -0.1382
     28 C22         1.4117   -6.9425   -5.1341 C.ar      1 <0>        -0.0966
     29 C23         1.0978   -5.6724   -4.6966 C.ar      1 <0>        -0.0538
     30 C24         2.0262   -9.3299   -4.7050 C.3       1 <0>         0.0425
     31 N6          0.7933  -10.1196   -4.8258 N.4       1 <0>        -0.3856
     32 C25         0.1989  -10.3052   -3.4955 C.3       1 <0>        -0.0078
     33 C26        -1.0954  -11.1117   -3.6230 C.3       1 <0>         0.0256
     34 N7         -0.7986  -12.4159   -4.2323 N.3       1 <0>        -0.5431
     35 C27        -0.1799  -12.2456   -5.5546 C.3       1 <0>         0.0239
     36 C28         1.1068  -11.4297   -5.4112 C.3       1 <0>        -0.0024
     37 C29        -2.0090  -13.2436   -4.3201 C.3       1 <0>         0.0192
     38 H1          0.5251    2.2130   -0.2290 H         1 <0>         0.0738
     39 H2         -1.1901    1.8307    0.0540 H         1 <0>         0.0752
     40 H3          0.0021    1.5877    1.3533 H         1 <0>         0.0636
     41 H4         -1.3262    0.2836   -1.8111 H         1 <0>         0.1330
     42 H5         -0.9481   -2.0158   -2.5982 H         1 <0>         0.1345
     43 H6          1.9030   -2.6209    0.5302 H         1 <0>         0.1487
     44 H7          1.8658    0.7534    1.6418 H         1 <0>         0.4265
     45 H8          1.8844   -4.2483    3.3325 H         1 <0>         0.1737
     46 H9          3.3172   -3.4566    5.1985 H         1 <0>         0.1513
     47 H10         4.0401    1.1680    4.9670 H         1 <0>         0.1465
     48 H11         5.4807    1.9525    6.8318 H         1 <0>         0.1439
     49 H12         6.3909    0.3135    8.4254 H         1 <0>         0.1636
     50 H13         4.5316   -2.8268    6.4514 H         1 <0>         0.1618
     51 H14         0.8453   -4.4884   -0.8911 H         1 <0>         0.4091
     52 H15         1.3291   -6.2032   -1.3521 H         1 <0>         0.1399
     53 H16         1.8771   -8.4627   -2.1544 H         1 <0>         0.1405
     54 H17         1.4372   -7.1570   -6.1922 H         1 <0>         0.1409
     55 H18         0.8770   -4.8931   -5.4110 H         1 <0>         0.1513
     56 H19         2.5135   -9.2661   -5.6779 H         1 <0>         0.1411
     57 H20         2.6973   -9.8107   -3.9933 H         1 <0>         0.1402
     58 H21         0.8998  -10.8418   -2.8560 H         1 <0>         0.1385
     59 H22        -0.0212   -9.3320   -3.0568 H         1 <0>         0.1352
     60 H23        -1.5289  -11.2624   -2.6343 H         1 <0>         0.1235
     61 H24        -1.8016  -10.5690   -4.2513 H         1 <0>         0.0601
     62 H25         0.0544  -13.2235   -5.9751 H         1 <0>         0.1247
     63 H26        -0.8711  -11.7216   -6.2147 H         1 <0>         0.0606
     64 H27         1.5598  -11.2902   -6.3927 H         1 <0>         0.1372
     65 H28         1.8030  -11.9606   -4.7619 H         1 <0>         0.1392
     66 H29        -2.7542  -12.7340   -4.9308 H         1 <0>         0.0396
     67 H30        -1.7610  -14.2028   -4.7745 H         1 <0>         0.0842
     68 H31        -2.4099  -13.4082   -3.3199 H         1 <0>         0.0844
     69 H32         0.1396   -9.6332   -5.4209 H         1 <0>         0.4206
@<TRIPOS>BOND
     1    1    2 1
     2    1   38 1
     3    1   39 1
     4    1   40 1
     5    2    7 ar
     6    2    3 ar
     7    3    4 ar
     8    3   41 1
     9    4    5 ar
    10    4   42 1
    11    5    6 ar
    12    5   21 1
    13    6    7 ar
    14    6   43 1
    15    7    8 1
    16    8    9 1
    17    8   44 1
    18    9   14 ar
    19    9   10 ar
    20   10   11 ar
    21   11   12 ar
    22   11   45 1
    23   12   13 ar
    24   12   46 1
    25   13   14 ar
    26   13   15 1
    27   15   20 ar
    28   15   16 ar
    29   16   17 ar
    30   16   47 1
    31   17   18 ar
    32   17   48 1
    33   18   19 ar
    34   18   49 1
    35   19   20 ar
    36   20   50 1
    37   21   22 am
    38   21   51 1
    39   22   23 2
    40   22   24 1
    41   24   29 ar
    42   24   25 ar
    43   25   26 ar
    44   25   52 1
    45   26   27 ar
    46   26   53 1
    47   27   28 ar
    48   27   30 1
    49   28   29 ar
    50   28   54 1
    51   29   55 1
    52   30   31 1
    53   30   56 1
    54   30   57 1
    55   31   36 1
    56   31   32 1
    57   31   69 1
    58   32   33 1
    59   32   58 1
    60   32   59 1
    61   33   34 1
    62   33   60 1
    63   33   61 1
    64   34   35 1
    65   34   37 1
    66   35   36 1
    67   35   62 1
    68   35   63 1
    69   36   64 1
    70   36   65 1
    71   37   66 1
    72   37   67 1
    73   37   68 1
@<TRIPOS>MOLECULE
ZINC19632618
   68    72     0     0     0
SMALL
USER_CHARGES

@<TRIPOS>ATOM
      1 C1         -0.1643    1.5374    0.2772 C.3       1 <0>        -0.1139
      2 C2          0.0708    0.1281   -0.2021 C.ar      1 <0>        -0.1276
      3 C3         -0.6192   -0.3521   -1.2987 C.ar      1 <0>        -0.0809
      4 C4         -0.4070   -1.6434   -1.7410 C.ar      1 <0>        -0.1296
      5 C5          0.5017   -2.4641   -1.0837 C.ar      1 <0>         0.1575
      6 C6          1.1965   -1.9850    0.0175 C.ar      1 <0>        -0.1408
      7 C7          0.9852   -0.6852    0.4558 C.ar      1 <0>         0.1805
      8 N1          1.6874   -0.1967    1.5617 N.pl3     1 <0>        -0.6310
      9 C8          2.1285   -1.0695    2.5429 C.ar      1 <0>         0.5658
     10 N2          1.7764   -2.3456    2.4776 N.ar      1 <0>        -0.5548
     11 C9          2.1776   -3.2107    3.3953 C.ar      1 <0>         0.1930
     12 C10         2.9764   -2.7714    4.4364 C.ar      1 <0>        -0.2707
     13 C11         3.3313   -1.4207    4.4789 C.ar      1 <0>         0.2660
     14 N3          2.8950   -0.6087    3.5185 N.ar      1 <0>        -0.5591
     15 C12         4.1856   -0.9008    5.5740 C.ar      1 <0>        -0.1161
     16 C13         4.4510    0.4679    5.6793 C.ar      1 <0>        -0.0277
     17 C14         5.2541    0.9026    6.7193 C.ar      1 <0>        -0.1780
     18 C15         5.7636   -0.0222    7.6129 C.ar      1 <0>         0.1167
     19 N4          5.4957   -1.3077    7.4879 N.ar      1 <0>        -0.4846
     20 C16         4.7320   -1.7677    6.5181 C.ar      1 <0>         0.1331
     21 N5          0.7153   -3.7716   -1.5315 N.am      1 <0>        -0.6684
     22 C17         0.7404   -4.0356   -2.8529 C.2       1 <0>         0.5607
     23 O1          0.4912   -3.1555   -3.6535 O.2       1 <0>        -0.5149
     24 C18         1.0709   -5.3955   -3.3287 C.ar      1 <0>        -0.1367
     25 C19         1.3519   -6.4100   -2.4119 C.ar      1 <0>        -0.0845
     26 C20         1.6592   -7.6771   -2.8626 C.ar      1 <0>        -0.1214
     27 C21         1.6892   -7.9435   -4.2200 C.ar      1 <0>        -0.0481
     28 C22         1.4117   -6.9425   -5.1341 C.ar      1 <0>        -0.1045
     29 C23         1.0978   -5.6724   -4.6966 C.ar      1 <0>        -0.0549
     30 C24         2.0262   -9.3299   -4.7050 C.3       1 <0>         0.0887
     31 N6          0.7933  -10.1196   -4.8258 N.3       1 <0>        -0.5346
     32 C25         0.1854  -10.3517   -3.5082 C.3       1 <0>         0.0528
     33 C26        -1.1341  -11.1069   -3.6840 C.3       1 <0>         0.0560
     34 N7         -0.8794  -12.3787   -4.3748 N.3       1 <0>        -0.5467
     35 C27        -0.2715  -12.1466   -5.6924 C.3       1 <0>         0.0557
     36 C28         1.0481  -11.3914   -5.5165 C.3       1 <0>         0.0569
     37 C29        -2.1122  -13.1683   -4.4955 C.3       1 <0>         0.0243
     38 H1          0.5251    2.2130   -0.2290 H         1 <0>         0.0707
     39 H2         -1.1901    1.8307    0.0540 H         1 <0>         0.0727
     40 H3          0.0021    1.5877    1.3533 H         1 <0>         0.0612
     41 H4         -1.3262    0.2836   -1.8111 H         1 <0>         0.1306
     42 H5         -0.9481   -2.0158   -2.5982 H         1 <0>         0.1361
     43 H6          1.9030   -2.6209    0.5302 H         1 <0>         0.1478
     44 H7          1.8658    0.7534    1.6418 H         1 <0>         0.4247
     45 H8          1.8844   -4.2483    3.3325 H         1 <0>         0.1749
     46 H9          3.3172   -3.4566    5.1985 H         1 <0>         0.1504
     47 H10         4.0401    1.1680    4.9670 H         1 <0>         0.1465
     48 H11         5.4807    1.9525    6.8318 H         1 <0>         0.1424
     49 H12         6.3909    0.3135    8.4254 H         1 <0>         0.1620
     50 H13         4.5316   -2.8268    6.4514 H         1 <0>         0.1624
     51 H14         0.8453   -4.4884   -0.8911 H         1 <0>         0.4098
     52 H15         1.3291   -6.2032   -1.3521 H         1 <0>         0.1256
     53 H16         1.8771   -8.4627   -2.1544 H         1 <0>         0.1277
     54 H17         1.4372   -7.1570   -6.1922 H         1 <0>         0.1323
     55 H18         0.8770   -4.8931   -5.4110 H         1 <0>         0.1380
     56 H19         2.5135   -9.2661   -5.6779 H         1 <0>         0.0885
     57 H20         2.6973   -9.8107   -3.9933 H         1 <0>         0.0490
     58 H21         0.8640  -10.9435   -2.8938 H         1 <0>         0.0436
     59 H22        -0.0051   -9.3950   -3.0219 H         1 <0>         0.0840
     60 H23        -1.5725  -11.3056   -2.7060 H         1 <0>         0.0799
     61 H24        -1.8225  -10.5033   -4.2756 H         1 <0>         0.0432
     62 H25        -0.0810  -13.1033   -6.1787 H         1 <0>         0.0811
     63 H26        -0.9501  -11.5548   -6.3068 H         1 <0>         0.0437
     64 H27         1.4864  -11.1926   -6.4945 H         1 <0>         0.0821
     65 H28         1.7364  -11.9950   -4.9250 H         1 <0>         0.0450
     66 H29        -2.8511  -12.6037   -5.0641 H         1 <0>         0.0271
     67 H30        -1.8953  -14.1043   -5.0104 H         1 <0>         0.0693
     68 H31        -2.5051  -13.3830   -3.5017 H         1 <0>         0.0693
@<TRIPOS>BOND
     1    1    2 1
     2    1   38 1
     3    1   39 1
     4    1   40 1
     5    2    7 ar
     6    2    3 ar
     7    3    4 ar
     8    3   41 1
     9    4    5 ar
    10    4   42 1
    11    5    6 ar
    12    5   21 1
    13    6    7 ar
    14    6   43 1
    15    7    8 1
    16    8    9 1
    17    8   44 1
    18    9   14 ar
    19    9   10 ar
    20   10   11 ar
    21   11   12 ar
    22   11   45 1
    23   12   13 ar
    24   12   46 1
    25   13   14 ar
    26   13   15 1
    27   15   20 ar
    28   15   16 ar
    29   16   17 ar
    30   16   47 1
    31   17   18 ar
    32   17   48 1
    33   18   19 ar
    34   18   49 1
    35   19   20 ar
    36   20   50 1
    37   21   22 am
    38   21   51 1
    39   22   23 2
    40   22   24 1
    41   24   29 ar
    42   24   25 ar
    43   25   26 ar
    44   25   52 1
    45   26   27 ar
    46   26   53 1
    47   27   28 ar
    48   27   30 1
    49   28   29 ar
    50   28   54 1
    51   29   55 1
    52   30   31 1
    53   30   56 1
    54   30   57 1
    55   31   36 1
    56   31   32 1
    57   32   33 1
    58   32   58 1
    59   32   59 1
    60   33   34 1
    61   33   60 1
    62   33   61 1
    63   34   35 1
    64   34   37 1
    65   35   36 1
    66   35   62 1
    67   35   63 1
    68   36   64 1
    69   36   65 1
    70   37   66 1
    71   37   67 1
    72   37   68 1
