@<TRIPOS>MOLECULE
ZINC00899824
   47    48     0     0     0
SMALL
USER_CHARGES

@<TRIPOS>ATOM
      1 C1         -0.0173    1.4248    0.0099 C.3       1 <0>         0.0223
      2 O1          0.0021   -0.0041    0.0020 O.3       1 <0>        -0.3062
      3 C2          0.6062   -0.6075   -1.0564 C.ar      1 <0>         0.1006
      4 C3          1.1701    0.1578   -2.0573 C.ar      1 <0>        -0.1693
      5 C4          1.7915   -0.4674   -3.1460 C.ar      1 <0>        -0.0548
      6 C5          1.8369   -1.8658   -3.2124 C.ar      1 <0>        -0.1153
      7 C6          1.2717   -2.6208   -2.2092 C.ar      1 <0>        -0.1104
      8 C7          0.6608   -1.9995   -1.1274 C.ar      1 <0>         0.0921
      9 O2          0.1105   -2.7497   -0.1383 O.3       1 <0>        -0.4848
     10 C8          2.3926    0.3403   -4.2140 C.2       1 <0>        -0.0031
     11 C9          2.9934   -0.2669   -5.2666 C.2       1 <0>        -0.2426
     12 C10         3.5700    0.5078   -6.2910 C.2       1 <0>         0.3746
     13 C11         4.2380   -0.1673   -7.4611 C.3       1 <0>        -0.2163
     14 C12         4.7690    0.8780   -8.4080 C.2       1 <0>         0.3746
     15 O3          4.6195    2.0570   -8.1569 O.2       1 <0>        -0.4254
     16 C13         5.4382    0.4879   -9.5835 C.2       1 <0>        -0.2426
     17 C14         5.9159    1.4282  -10.4353 C.2       1 <0>        -0.0031
     18 C15         6.6137    1.0215  -11.6609 C.ar      1 <0>        -0.0549
     19 C16         6.7822   -0.3375  -11.9554 C.ar      1 <0>        -0.1153
     20 C17         7.4373   -0.7158  -13.1059 C.ar      1 <0>        -0.1104
     21 C18         7.9326    0.2469  -13.9763 C.ar      1 <0>         0.0920
     22 C19         7.7694    1.6023  -13.6901 C.ar      1 <0>         0.1006
     23 C20         7.1082    1.9913  -12.5425 C.ar      1 <0>        -0.1693
     24 O4          8.2569    2.5409  -14.5450 O.3       1 <0>        -0.3062
     25 C21         8.0541    3.9101  -14.1894 C.3       1 <0>         0.0223
     26 O5          8.5781   -0.1327  -15.1090 O.3       1 <0>        -0.4848
     27 O6          3.5292    1.7203   -6.2316 O.2       1 <0>        -0.4254
     28 H1          1.0053    1.8021    0.0021 H         1 <0>         0.0579
     29 H2         -0.5445    1.7859   -0.8732 H         1 <0>         0.0575
     30 H3         -0.5275    1.7763    0.9067 H         1 <0>         0.1046
     31 H4          1.1319    1.2357   -2.0014 H         1 <0>         0.1391
     32 H5          2.3148   -2.3516   -4.0503 H         1 <0>         0.1371
     33 H6          1.3073   -3.6990   -2.2614 H         1 <0>         0.1423
     34 H7         -0.8182   -2.9751   -0.2859 H         1 <0>         0.3908
     35 H8          2.3563    1.4184   -4.1613 H         1 <0>         0.1367
     36 H9          3.0298   -1.3450   -5.3193 H         1 <0>         0.1356
     37 H10         5.0615   -0.7848   -7.1027 H         1 <0>         0.1288
     38 H11         5.5711   -0.5604   -9.8068 H         1 <0>         0.1356
     39 H12         5.7830    2.4765  -10.2120 H         1 <0>         0.1368
     40 H13         6.3989   -1.0882  -11.2802 H         1 <0>         0.1371
     41 H14         7.5667   -1.7639  -13.3320 H         1 <0>         0.1423
     42 H15         6.9767    3.0405  -12.3226 H         1 <0>         0.1391
     43 H16         6.9855    4.1110  -14.1123 H         1 <0>         0.0575
     44 H17         8.5317    4.1110  -13.2305 H         1 <0>         0.0580
     45 H18         8.4902    4.5526  -14.9543 H         1 <0>         0.1045
     46 H19         7.9975   -0.2431  -15.8744 H         1 <0>         0.3910
     47 H20         3.5134   -0.7940   -7.9810 H         1 <0>         0.1286
@<TRIPOS>BOND
     1    1    2 1
     2    1   28 1
     3    1   29 1
     4    1   30 1
     5    2    3 1
     6    3    8 ar
     7    3    4 ar
     8    4    5 ar
     9    4   31 1
    10    5    6 ar
    11    5   10 1
    12    6    7 ar
    13    6   32 1
    14    7    8 ar
    15    7   33 1
    16    8    9 1
    17    9   34 1
    18   10   11 2
    19   10   35 1
    20   11   12 1
    21   11   36 1
    22   12   13 1
    23   12   27 2
    24   13   14 1
    25   13   37 1
    26   13   47 1
    27   14   15 2
    28   14   16 1
    29   16   17 2
    30   16   38 1
    31   17   18 1
    32   17   39 1
    33   18   23 ar
    34   18   19 ar
    35   19   20 ar
    36   19   40 1
    37   20   21 ar
    38   20   41 1
    39   21   22 ar
    40   21   26 1
    41   22   23 ar
    42   22   24 1
    43   23   42 1
    44   24   25 1
    45   25   43 1
    46   25   44 1
    47   25   45 1
    48   26   46 1
@<TRIPOS>MOLECULE
ZINC02570895
   40    42     0     0     0
SMALL
USER_CHARGES

@<TRIPOS>ATOM
      1 C1          0.0405    1.5033    0.0105 C.3       1 <0>        -0.1224
      2 C2          0.0481   -0.0036    0.0022 C.ar      1 <0>        -0.0617
      3 C3         -0.4654   -0.6891   -1.0843 C.ar      1 <0>        -0.1180
      4 C4         -0.4609   -2.0687   -1.0981 C.ar      1 <0>        -0.0762
      5 C5          0.0630   -2.7726   -0.0133 C.ar      1 <0>        -0.0606
      6 C6          0.5793   -2.0754    1.0794 C.ar      1 <0>        -0.0985
      7 C7          0.5738   -0.6957    1.0787 C.ar      1 <0>        -0.1165
      8 C8          0.0704   -4.2518   -0.0214 C.2       1 <0>         0.1497
      9 C9          0.0778   -5.0559   -1.1264 C.2       1 <0>        -0.2047
     10 C10         0.0841   -6.3814   -0.6911 C.2       1 <0>        -0.0034
     11 N1          0.0806   -6.3920    0.6183 N.2       1 <0>        -0.2184
     12 N2          0.0772   -5.0674    1.0740 N.pl3     1 <0>        -0.3181
     13 C11         0.0780   -4.6538    2.4124 C.ar      1 <0>         0.1993
     14 C12        -0.7877   -3.6523    2.8316 C.ar      1 <0>        -0.1310
     15 C13        -0.7845   -3.2467    4.1518 C.ar      1 <0>        -0.0008
     16 C14         0.0799   -3.8365    5.0557 C.ar      1 <0>        -0.6729
     17 C15         0.9432   -4.8341    4.6414 C.ar      1 <0>         0.0013
     18 C16         0.9405   -5.2485    3.3238 C.ar      1 <0>        -0.1237
     19 S1          0.0817   -3.3155    6.7389 S.o2      1 <0>         2.7035
     20 O1          1.3615   -3.6412    7.2635 O.2       1 <0>        -0.9570
     21 O2         -0.4336   -1.9913    6.7547 O.2       1 <0>        -0.9571
     22 N3         -1.0144   -4.2595    7.5449 N.pl3     1 <0>        -1.2487
     23 C17         0.0927   -7.5984   -1.5799 C.3       1 <0>         0.5581
     24 F1          1.4144   -7.9678   -1.8518 F         1 <0>        -0.1637
     25 F2         -0.5625   -8.6523   -0.9339 F         1 <0>        -0.1639
     26 F3         -0.5656   -7.3049   -2.7789 F         1 <0>        -0.1610
     27 H1          0.9639    1.8738   -0.4347 H         1 <0>         0.0767
     28 H2         -0.8113    1.8655   -0.5652 H         1 <0>         0.0714
     29 H3         -0.0366    1.8607    1.0374 H         1 <0>         0.0715
     30 H4         -0.8709   -0.1431   -1.9232 H         1 <0>         0.1331
     31 H5         -0.8624   -2.6027   -1.9467 H         1 <0>         0.1336
     32 H6          0.9862   -2.6145    1.9221 H         1 <0>         0.1246
     33 H7          0.9772   -0.1548    1.9220 H         1 <0>         0.1315
     34 H8          0.0784   -4.7241   -2.1542 H         1 <0>         0.1732
     35 H9         -1.4626   -3.1908    2.1259 H         1 <0>         0.1459
     36 H10        -1.4576   -2.4679    4.4785 H         1 <0>         0.1580
     37 H11         1.6174   -5.2926    5.3496 H         1 <0>         0.1579
     38 H12         1.6117   -6.0309    3.0018 H         1 <0>         0.1479
     39 H13        -1.5085   -4.9443    7.0675 H         1 <0>         0.4179
     40 H14        -1.1624   -4.1277    8.4945 H         1 <0>         0.4235
@<TRIPOS>BOND
     1    1    2 1
     2    1   27 1
     3    1   28 1
     4    1   29 1
     5    2    7 ar
     6    2    3 ar
     7    3    4 ar
     8    3   30 1
     9    4    5 ar
    10    4   31 1
    11    5    6 ar
    12    5    8 1
    13    6    7 ar
    14    6   32 1
    15    7   33 1
    16    8   12 1
    17    8    9 2
    18    9   10 1
    19    9   34 1
    20   10   11 2
    21   10   23 1
    22   11   12 1
    23   12   13 1
    24   13   18 ar
    25   13   14 ar
    26   14   15 ar
    27   14   35 1
    28   15   16 ar
    29   15   36 1
    30   16   17 ar
    31   16   19 1
    32   17   18 ar
    33   17   37 1
    34   18   38 1
    35   19   20 2
    36   19   21 2
    37   19   22 1
    38   22   39 1
    39   22   40 1
    40   23   24 1
    41   23   25 1
    42   23   26 1
@<TRIPOS>MOLECULE
ZINC00006787
   29    30     0     0     0
SMALL
USER_CHARGES

@<TRIPOS>ATOM
      1 C1         -0.0169    1.3936    0.0097 C.ar      1 <0>        -0.0880
      2 C2          1.1682    2.0965    0.0022 C.ar      1 <0>        -0.1444
      3 C3          2.3804    1.4185   -0.0131 C.ar      1 <0>         0.1088
      4 C4          2.4043    0.0297   -0.0212 C.ar      1 <0>        -0.1437
      5 C5          1.2244   -0.6820   -0.0142 C.ar      1 <0>        -0.0943
      6 C6          0.0021   -0.0041    0.0020 C.ar      1 <0>        -0.0701
      7 C7         -1.2624   -0.7604    0.0105 C.2       1 <0>        -0.0946
      8 C8         -1.2417   -2.1029    0.0031 C.2       1 <0>        -0.1125
      9 C9         -2.5067   -2.8595    0.0116 C.ar      1 <0>        -0.0208
     10 C10        -3.7282   -2.1821    0.0216 C.ar      1 <0>        -0.1505
     11 C11        -4.9138   -2.8974    0.0296 C.ar      1 <0>         0.1270
     12 C12        -4.8898   -4.2848    0.0277 C.ar      1 <0>        -0.1731
     13 C13        -3.6788   -4.9623    0.0183 C.ar      1 <0>         0.1263
     14 C14        -2.4878   -4.2561    0.0039 C.ar      1 <0>        -0.1438
     15 O1         -3.6617   -6.3213    0.0174 O.3       1 <0>        -0.4960
     16 O2         -6.1029   -2.2395    0.0398 O.3       1 <0>        -0.4960
     17 O3          3.5463    2.1158   -0.0204 O.3       1 <0>        -0.4996
     18 H1         -0.9588    1.9217    0.0260 H         1 <0>         0.1307
     19 H2          1.1546    3.1764    0.0077 H         1 <0>         0.1317
     20 H3          3.3492   -0.4932   -0.0334 H         1 <0>         0.1314
     21 H4          1.2440   -1.7618   -0.0209 H         1 <0>         0.1307
     22 H5         -2.2059   -0.2349    0.0227 H         1 <0>         0.1259
     23 H6         -0.2983   -2.6284   -0.0091 H         1 <0>         0.1276
     24 H7         -3.7479   -1.1023    0.0234 H         1 <0>         0.1351
     25 H8         -5.8166   -4.8392    0.0340 H         1 <0>         0.1362
     26 H9         -1.5459   -4.7843   -0.0083 H         1 <0>         0.1350
     27 H10        -3.6634   -6.7141   -0.8663 H         1 <0>         0.3942
     28 H11        -6.4539   -2.0477   -0.8406 H         1 <0>         0.3942
     29 H12         3.8923    2.3129    0.8608 H         1 <0>         0.3928
@<TRIPOS>BOND
     1    1    6 ar
     2    1    2 ar
     3    1   18 1
     4    2    3 ar
     5    2   19 1
     6    3    4 ar
     7    3   17 1
     8    4    5 ar
     9    4   20 1
    10    5    6 ar
    11    5   21 1
    12    6    7 1
    13    7    8 2
    14    7   22 1
    15    8    9 1
    16    8   23 1
    17    9   14 ar
    18    9   10 ar
    19   10   11 ar
    20   10   24 1
    21   11   12 ar
    22   11   16 1
    23   12   13 ar
    24   12   25 1
    25   13   14 ar
    26   13   15 1
    27   14   26 1
    28   15   27 1
    29   16   28 1
    30   17   29 1
@<TRIPOS>MOLECULE
ZINC00896918
   22    22     0     0     0
SMALL
USER_CHARGES

@<TRIPOS>ATOM
      1 C1         -0.0167    1.3778    0.0096 C.ar      1 <0>         0.0974
      2 C2          1.1707    2.0862    0.0021 C.ar      1 <0>        -0.6868
      3 C3          2.3777    1.4131   -0.0135 C.ar      1 <0>         0.0588
      4 C4          2.3983    0.0299   -0.0210 C.ar      1 <0>        -0.0734
      5 C5          1.2094   -0.6794   -0.0130 C.ar      1 <0>         0.1016
      6 C6          0.0021   -0.0041    0.0020 C.ar      1 <0>        -0.6843
      7 S1         -1.5117   -0.9057    0.0122 S.o2      1 <0>         2.7000
      8 O1         -1.3921   -1.8888    1.0313 O.2       1 <0>        -0.9349
      9 O2         -2.5575    0.0562    0.0006 O.2       1 <0>        -0.9450
     10 N1         -1.6044   -1.7230   -1.4251 N.pl3     1 <0>        -1.2435
     11 Cl1         1.2335   -2.4152   -0.0231 Cl        1 <0>         0.0087
     12 Cl2         3.9142   -0.8161   -0.0412 Cl        1 <0>        -0.0140
     13 S2          1.1451    3.8480    0.0117 S.o2      1 <0>         2.7054
     14 O3          2.3791    4.2752   -0.5486 O.2       1 <0>        -0.9481
     15 O4         -0.1113    4.2388   -0.5251 O.2       1 <0>        -0.9447
     16 N2          1.1530    4.3291    1.5963 N.pl3     1 <0>        -1.2462
     17 H1         -0.9593    1.9047    0.0259 H         1 <0>         0.1825
     18 H2          3.3048    1.9671   -0.0201 H         1 <0>         0.1751
     19 H3         -0.8907   -1.6407   -2.0768 H         1 <0>         0.4176
     20 H4         -2.3725   -2.2840   -1.6154 H         1 <0>         0.4278
     21 H5          1.1694    3.6663    2.3043 H         1 <0>         0.4190
     22 H6          1.1413    5.2737    1.8164 H         1 <0>         0.4268
@<TRIPOS>BOND
     1    1    6 ar
     2    1    2 ar
     3    1   17 1
     4    2    3 ar
     5    2   13 1
     6    3    4 ar
     7    3   18 1
     8    4    5 ar
     9    4   12 1
    10    5    6 ar
    11    5   11 1
    12    6    7 1
    13    7    8 2
    14    7    9 2
    15    7   10 1
    16   10   19 1
    17   10   20 1
    18   13   14 2
    19   13   15 2
    20   13   16 1
    21   16   21 1
    22   16   22 1
@<TRIPOS>MOLECULE
ZINC12503151
   23    23     0     0     0
SMALL
NO_CHARGES

@<TRIPOS>ATOM
      1 C1         -0.3789    1.0705    0.3515 C.3       1 <0>        -0.1347
      2 C2          0.5076   -0.1196    0.0888 C.2       1 <0>         0.4551
      3 O1          1.3641   -0.4298    0.8951 O.3       1 <0>        -0.3923
      4 N1          0.3540   -0.8288   -1.0216 N.2       1 <0>        -0.6178
      5 C3         -0.0468   -2.1007   -0.9514 C.2       1 <0>         0.3126
      6 N2         -0.4722   -2.7924    0.1303 N.pl3     1 <0>        -0.4005
      7 N3         -0.8397   -4.1105   -0.0380 N.pl3     1 <0>        -0.2827
      8 C4         -0.7560   -4.6173   -1.2349 C.2       1 <0>        -0.3295
      9 S1         -0.1544   -3.2357   -2.1872 S.3       1 <0>         0.3047
     10 S2         -1.1447   -6.2486   -1.7756 S.o2      1 <0>         2.5478
     11 O2         -0.0915   -6.6516   -2.6403 O.2       1 <0>        -0.9992
     12 O3         -1.5023   -6.9867   -0.6152 O.2       1 <0>        -1.0188
     13 N4         -2.5089   -6.1432   -2.7085 N.2       1 <0>        -1.2921
     14 C5         -0.5404   -2.1568    1.4485 C.3       1 <0>        -0.0096
     15 H1          0.0812    1.9657   -0.0669 H         1 <0>         0.1260
     16 H2         -1.3508    0.9096   -0.1151 H         1 <0>         0.1164
     17 H3         -0.5083    1.1970    1.4263 H         1 <0>         0.1126
     18 H4         -2.8882   -6.9430   -3.1051 H         1 <0>         0.3463
     19 H5         -0.8348   -1.1136    1.3340 H         1 <0>         0.0956
     20 H6         -1.2744   -2.6760    2.0647 H         1 <0>         0.1123
     21 H7          0.4374   -2.2079    1.9275 H         1 <0>         0.0918
     22 H8         -1.1502   -4.6433    0.7107 H         1 <0>         0.4270
     23 H9          1.8975   -1.1912    0.6290 H         1 <0>         0.4290
@<TRIPOS>BOND
     1    1    2 1
     2    1   15 1
     3    1   16 1
     4    1   17 1
     5    2    3 2
     6    2    4 1
     7    3   23 1
     8    4    5 2
     9    5    9 1
    10    5    6 1
    11    6    7 1
    12    6   14 1
    13    7    8 2
    14    7   22 1
    15    8    9 1
    16    8   10 1
    17   10   11 2
    18   10   12 2
    19   10   13 1
    20   13   18 1
    21   14   19 1
    22   14   20 1
    23   14   21 1
@<TRIPOS>MOLECULE
ZINC12503151
   23    23     0     0     0
SMALL
NO_CHARGES

@<TRIPOS>ATOM
      1 C1         -1.1346    0.9241    0.3407 C.3       1 <0>        -0.1307
      2 C2          0.0031   -0.0044    0.0020 C.2       1 <0>         0.4894
      3 O1          0.9224   -0.1509    0.7852 O.3       1 <0>        -0.3736
      4 N1          0.0020   -0.6621   -1.1500 N.2       1 <0>        -0.6464
      5 C3         -0.0802   -1.9949   -1.1578 C.2       1 <0>         0.3469
      6 N2          0.0027   -2.8388   -2.2117 N.pl3     1 <0>        -0.3538
      7 N3         -0.1119   -4.1925   -1.9774 N.pl3     1 <0>        -0.2782
      8 C4         -0.2944   -4.5840   -0.7486 C.2       1 <0>        -0.3302
      9 S1         -0.3048   -3.0391    0.1407 S.3       1 <0>         0.0989
     10 S2         -0.4768   -6.2215   -0.1244 S.o2      1 <0>         2.5579
     11 O2         -1.5476   -6.1834    0.8090 O.2       1 <0>        -1.0001
     12 O3         -0.4786   -7.0877   -1.2508 O.2       1 <0>        -1.0219
     13 N4          0.8919   -6.5715    0.7396 N.2       1 <0>        -1.2976
     14 C5          0.2086   -2.3268   -3.5688 C.3       1 <0>         0.0360
     15 H1         -0.9060    1.9262   -0.0224 H         1 <0>         0.1254
     16 H2         -2.0490    0.5661   -0.1324 H         1 <0>         0.1183
     17 H3         -1.2715    0.9518    1.4217 H         1 <0>         0.1209
     18 H4          0.9868   -7.4364    1.1685 H         1 <0>         0.3466
     19 H5          1.2771   -2.2630   -3.7748 H         1 <0>         0.0931
     20 H6         -0.2601   -3.0003   -4.2862 H         1 <0>         0.0994
     21 H7         -0.2378   -1.3362   -3.6550 H         1 <0>         0.1167
     22 H8         -0.0588   -4.8327   -2.7042 H         1 <0>         0.4514
     23 H9          1.5651   -0.8215    0.5163 H         1 <0>         0.4315
@<TRIPOS>BOND
     1    1    2 1
     2    1   15 1
     3    1   16 1
     4    1   17 1
     5    2    3 2
     6    2    4 1
     7    3   23 1
     8    4    5 2
     9    5    9 1
    10    5    6 1
    11    6    7 1
    12    6   14 1
    13    7    8 2
    14    7   22 1
    15    8    9 1
    16    8   10 1
    17   10   11 2
    18   10   12 2
    19   10   13 1
    20   13   18 1
    21   14   19 1
    22   14   20 1
    23   14   21 1
@<TRIPOS>MOLECULE
ZINC03813042
   19    19     0     0     0
SMALL
USER_CHARGES

@<TRIPOS>ATOM
      1 C1         -0.0184    1.5028    0.0103 C.3       1 <0>        -0.1669
      2 C2          0.0021   -0.0041    0.0020 C.2       1 <0>         0.5048
      3 O1          1.0605   -0.5961   -0.0113 O.2       1 <0>        -0.4597
      4 N1         -1.1558   -0.6938    0.0094 N.am      1 <0>        -0.6127
      5 C3         -1.1370   -2.0844    0.0017 C.2       1 <0>         0.2593
      6 N2         -0.1026   -2.9019   -0.0067 N.2       1 <0>        -0.3105
      7 N3         -0.2439   -4.1575   -0.0130 N.2       1 <0>        -0.1075
      8 C4         -1.4599   -4.6659   -0.0111 C.2       1 <0>        -0.5832
      9 S1         -2.4308   -3.1653    0.0083 S.3       1 <0>         0.2359
     10 S2         -1.9811   -6.3490   -0.0183 S.o2      1 <0>         2.7480
     11 O2         -1.9574   -6.7873    1.3333 O.2       1 <0>        -0.9356
     12 O3         -3.1545   -6.4075   -0.8177 O.2       1 <0>        -0.9350
     13 N4         -0.8199   -7.2178   -0.8179 N.pl3     1 <0>        -1.2313
     14 H1          1.0042    1.8801    0.0026 H         1 <0>         0.1076
     15 H2         -0.5455    1.8639   -0.8728 H         1 <0>         0.1002
     16 H3         -0.5286    1.8543    0.9071 H         1 <0>         0.1002
     17 H4         -2.0023   -0.2203    0.0200 H         1 <0>         0.4348
     18 H5         -0.6611   -8.1456   -0.5837 H         1 <0>         0.4284
     19 H6         -0.2986   -6.7988   -1.5204 H         1 <0>         0.4232
@<TRIPOS>BOND
     1    1    2 1
     2    1   14 1
     3    1   15 1
     4    1   16 1
     5    2    3 2
     6    2    4 am
     7    4    5 1
     8    4   17 1
     9    5    9 1
    10    5    6 2
    11    6    7 1
    12    7    8 2
    13    8    9 1
    14    8   10 1
    15   10   11 2
    16   10   12 2
    17   10   13 1
    18   13   18 1
    19   13   19 1
@<TRIPOS>MOLECULE
ZINC03813042
   18    18     0     0     0
SMALL
USER_CHARGES

@<TRIPOS>ATOM
      1 C1         -0.0184    1.5028    0.0103 C.3       1 <0>        -0.1624
      2 C2          0.0021   -0.0041    0.0020 C.2       1 <0>         0.5010
      3 O1          0.0203   -0.6161    1.0490 O.2       1 <0>        -0.4698
      4 N1          0.0001   -0.6716   -1.1688 N.am      1 <0>        -0.6150
      5 C3          0.0189   -2.0622   -1.1765 C.2       1 <0>         0.2229
      6 N2          0.0342   -2.8992   -0.1578 N.2       1 <0>        -0.3133
      7 N3          0.0506   -4.1518   -0.3231 N.2       1 <0>        -0.1306
      8 C4          0.0525   -4.6369   -1.5486 C.2       1 <0>        -0.4261
      9 S1          0.0209   -3.1183   -2.4906 S.3       1 <0>         0.1375
     10 S2          0.0731   -6.3097   -2.1017 S.o2      1 <0>         2.6009
     11 O2         -1.2748   -6.7592   -2.0864 O.2       1 <0>        -1.0365
     12 O3          0.8728   -6.3393   -3.2760 O.2       1 <0>        -1.0415
     13 N4          0.8799   -7.1939   -0.9573 N.2       1 <0>        -1.3126
     14 H1          1.0042    1.8801    0.0026 H         1 <0>         0.1013
     15 H2         -0.5455    1.8639   -0.8728 H         1 <0>         0.0851
     16 H3         -0.5286    1.8543    0.9071 H         1 <0>         0.1022
     17 H4         -0.0145   -0.1822   -2.0061 H         1 <0>         0.4269
     18 H5          0.9999   -8.1489   -1.0779 H         1 <0>         0.3298
@<TRIPOS>BOND
     1    1    2 1
     2    1   14 1
     3    1   15 1
     4    1   16 1
     5    2    3 2
     6    2    4 am
     7    4    5 1
     8    4   17 1
     9    5    9 1
    10    5    6 2
    11    6    7 1
    12    7    8 2
    13    8    9 1
    14    8   10 1
    15   10   11 2
    16   10   12 2
    17   10   13 1
    18   13   18 1
@<TRIPOS>MOLECULE
ZINC00002101
   19    19     0     0     0
SMALL
USER_CHARGES

@<TRIPOS>ATOM
      1 C1         -0.0168    1.3849    0.0097 C.ar      1 <0>        -0.2192
      2 C2          1.1707    2.0901    0.0021 C.ar      1 <0>         0.0295
      3 C3          2.3774    1.4150   -0.0135 C.ar      1 <0>        -0.7336
      4 C4          2.3998    0.0323   -0.0211 C.ar      1 <0>         0.0295
      5 C5          1.2161   -0.6790   -0.0137 C.ar      1 <0>        -0.2192
      6 C6          0.0021   -0.0041    0.0020 C.ar      1 <0>         0.2713
      7 N1         -1.1970   -0.7204    0.0101 N.pl3     1 <0>        -0.8647
      8 S1          3.8900    2.3186   -0.0243 S.o2      1 <0>         2.7050
      9 O1          4.8717    1.4606   -0.5894 O.2       1 <0>        -0.9693
     10 O2          3.5945    3.5988   -0.5657 O.2       1 <0>        -0.9693
     11 N2          4.3264    2.5618    1.5546 N.pl3     1 <0>        -1.2522
     12 H1         -0.9589    1.9127    0.0260 H         1 <0>         0.1318
     13 H2          1.1567    3.1700    0.0080 H         1 <0>         0.1423
     14 H3          3.3440   -0.4918   -0.0333 H         1 <0>         0.1423
     15 H4          1.2342   -1.7588   -0.0200 H         1 <0>         0.1318
     16 H5         -2.0441   -0.2480    0.0210 H         1 <0>         0.4043
     17 H6         -1.1825   -1.6903    0.0047 H         1 <0>         0.4042
     18 H7          3.7678    2.2202    2.2703 H         1 <0>         0.4159
     19 H8          5.1405    3.0458    1.7638 H         1 <0>         0.4195
@<TRIPOS>BOND
     1    1    6 ar
     2    1    2 ar
     3    1   12 1
     4    2    3 ar
     5    2   13 1
     6    3    4 ar
     7    3    8 1
     8    4    5 ar
     9    4   14 1
    10    5    6 ar
    11    5   15 1
    12    6    7 1
    13    7   16 1
    14    7   17 1
    15    8    9 2
    16    8   10 2
    17    8   11 1
    18   11   18 1
    19   11   19 1
@<TRIPOS>MOLECULE
ZINC01530804
   42    44     0     0     0
SMALL
USER_CHARGES

@<TRIPOS>ATOM
      1 C1         -0.1414    1.1782    1.1025 C.3       1 <0>        -0.1657
      2 C2         -0.0047   -0.3406    0.9788 C.3       1 <0>         0.2393
      3 O1          0.4336   -0.6809   -0.3520 O.3       1 <0>        -0.3486
      4 C3          1.8586   -0.8253   -0.2194 C.3       1 <0>         0.0180
      5 H1          2.3279    0.1582   -0.1959 H         1 <0>         0.0955
      6 C4          2.4671   -1.6561   -1.3282 C.3       1 <0>         0.0615
      7 O2          1.9135   -2.9701   -1.3154 O.3       1 <0>        -0.3068
      8 C5          2.1315   -3.6952   -0.1268 C.3       1 <0>         0.2582
      9 C6          1.5886   -2.9749    1.1170 C.3       1 <0>         0.0223
     10 H2          0.5124   -3.1112    1.2238 H         1 <0>         0.1391
     11 C7          1.9968   -1.5000    1.1552 C.3       1 <0>         0.0492
     12 H3          2.9929   -1.3657    1.5768 H         1 <0>         0.1317
     13 O3          0.9684   -0.8158    1.9209 O.3       1 <0>        -0.3662
     14 O4          2.3254   -3.6306    2.1835 O.3       1 <0>        -0.3622
     15 C8          3.5307   -4.1478    1.6005 C.3       1 <0>         0.2431
     16 O5          3.5253   -3.8561    0.1888 O.3       1 <0>        -0.3666
     17 C9          4.7443   -3.4871    2.2574 C.3       1 <0>        -0.1505
     18 C10         3.5958   -5.6617    1.8124 C.3       1 <0>        -0.1864
     19 C11         1.4685   -5.0698   -0.2356 C.3       1 <0>         0.0825
     20 O6          2.1389   -5.8445   -1.2317 O.3       1 <0>        -0.7265
     21 S1          1.5597   -7.2386   -1.4254 S.o2      1 <0>         2.6826
     22 O7          2.4548   -7.9350   -2.2815 O.2       1 <0>        -1.0652
     23 O8          1.2135   -7.7177   -0.1332 O.2       1 <0>        -1.0999
     24 N1          0.1411   -7.0674   -2.2625 N.2       1 <0>        -1.3687
     25 C12        -1.3558   -1.0027    1.2569 C.3       1 <0>        -0.1582
     26 H4          0.8207    1.6475    0.8968 H         1 <0>         0.0616
     27 H5         -0.8808    1.5361    0.3860 H         1 <0>         0.0773
     28 H6         -0.4614    1.4331    2.1128 H         1 <0>         0.0749
     29 H7          2.2585   -1.1852   -2.2889 H         1 <0>         0.1202
     30 H8          3.5458   -1.7168   -1.1842 H         1 <0>         0.0862
     31 H9          4.7535   -3.7210    3.3219 H         1 <0>         0.0808
     32 H10         5.6571   -3.8626    1.7950 H         1 <0>         0.0792
     33 H11         4.6869   -2.4069    2.1231 H         1 <0>         0.0625
     34 H12         2.5933   -6.0827    1.7363 H         1 <0>         0.0832
     35 H13         4.2360   -6.1079    1.0514 H         1 <0>         0.0832
     36 H14         4.0046   -5.8730    2.8005 H         1 <0>         0.0768
     37 H15         1.5314   -5.5806    0.7253 H         1 <0>         0.1099
     38 H16         0.4218   -4.9473   -0.5141 H         1 <0>         0.1013
     39 H17        -0.3863   -7.8495   -2.4881 H         1 <0>         0.3260
     40 H18        -2.0938   -0.6361    0.5434 H         1 <0>         0.0779
     41 H19        -1.2583   -2.0836    1.1559 H         1 <0>         0.0696
     42 H20        -1.6777   -0.7600    2.2696 H         1 <0>         0.0781
@<TRIPOS>BOND
     1    1    2 1
     2    1   26 1
     3    1   27 1
     4    1   28 1
     5    2   13 1
     6    2    3 1
     7    2   25 1
     8    3    4 1
     9    4    5 1
    10    4   11 1
    11    4    6 1
    12    6    7 1
    13    6   29 1
    14    6   30 1
    15    7    8 1
    16    8   16 1
    17    8    9 1
    18    8   19 1
    19    9   10 1
    20    9   11 1
    21    9   14 1
    22   11   12 1
    23   11   13 1
    24   14   15 1
    25   15   16 1
    26   15   17 1
    27   15   18 1
    28   17   31 1
    29   17   32 1
    30   17   33 1
    31   18   34 1
    32   18   35 1
    33   18   36 1
    34   19   20 1
    35   19   37 1
    36   19   38 1
    37   20   21 1
    38   21   22 2
    39   21   23 2
    40   21   24 1
    41   24   39 1
    42   25   40 1
    43   25   41 1
    44   25   42 1
@<TRIPOS>MOLECULE
ZINC01530804
   43    45     0     0     0
SMALL
USER_CHARGES

@<TRIPOS>ATOM
      1 C1         -0.1414    1.1782    1.1025 C.3       1 <0>        -0.1689
      2 C2         -0.0047   -0.3406    0.9788 C.3       1 <0>         0.2400
      3 O1          0.4336   -0.6809   -0.3520 O.3       1 <0>        -0.3516
      4 C3          1.8586   -0.8253   -0.2194 C.3       1 <0>         0.0156
      5 H1          2.3279    0.1582   -0.1959 H         1 <0>         0.1022
      6 C4          2.4671   -1.6561   -1.3282 C.3       1 <0>         0.0660
      7 O2          1.9135   -2.9701   -1.3154 O.3       1 <0>        -0.3195
      8 C5          2.1315   -3.6952   -0.1268 C.3       1 <0>         0.2579
      9 C6          1.5886   -2.9749    1.1170 C.3       1 <0>         0.0224
     10 H2          0.5124   -3.1112    1.2238 H         1 <0>         0.1406
     11 C7          1.9968   -1.5000    1.1552 C.3       1 <0>         0.0483
     12 H3          2.9929   -1.3657    1.5768 H         1 <0>         0.1355
     13 O3          0.9684   -0.8158    1.9209 O.3       1 <0>        -0.3615
     14 O4          2.3254   -3.6306    2.1835 O.3       1 <0>        -0.3573
     15 C8          3.5307   -4.1478    1.6005 C.3       1 <0>         0.2406
     16 O5          3.5253   -3.8561    0.1888 O.3       1 <0>        -0.3608
     17 C9          4.7443   -3.4871    2.2574 C.3       1 <0>        -0.1549
     18 C10         3.5958   -5.6617    1.8124 C.3       1 <0>        -0.1875
     19 C11         1.4685   -5.0698   -0.2356 C.3       1 <0>         0.0540
     20 O6          2.1389   -5.8445   -1.2317 O.3       1 <0>        -0.7190
     21 S1          1.5597   -7.2386   -1.4254 S.o2      1 <0>         2.7922
     22 O7          2.4548   -7.9350   -2.2815 O.2       1 <0>        -0.9521
     23 O8          1.2135   -7.7177   -0.1332 O.2       1 <0>        -0.9902
     24 N1          0.1411   -7.0674   -2.2625 N.pl3     1 <0>        -1.2682
     25 C12        -1.3558   -1.0027    1.2569 C.3       1 <0>        -0.1570
     26 H4          0.8207    1.6475    0.8968 H         1 <0>         0.0640
     27 H5         -0.8808    1.5361    0.3860 H         1 <0>         0.0795
     28 H6         -0.4614    1.4331    2.1128 H         1 <0>         0.0783
     29 H7          2.2585   -1.1852   -2.2889 H         1 <0>         0.1264
     30 H8          3.5458   -1.7168   -1.1842 H         1 <0>         0.0924
     31 H9          4.7535   -3.7210    3.3219 H         1 <0>         0.0862
     32 H10         5.6571   -3.8626    1.7950 H         1 <0>         0.0829
     33 H11         4.6869   -2.4069    2.1231 H         1 <0>         0.0666
     34 H12         2.5933   -6.0827    1.7363 H         1 <0>         0.0754
     35 H13         4.2360   -6.1079    1.0514 H         1 <0>         0.0857
     36 H14         4.0046   -5.8730    2.8005 H         1 <0>         0.0871
     37 H15         1.5314   -5.5806    0.7253 H         1 <0>         0.1339
     38 H16         0.4218   -4.9473   -0.5141 H         1 <0>         0.1071
     39 H17        -0.1624   -6.1849   -2.5271 H         1 <0>         0.4163
     40 H18        -2.0938   -0.6361    0.5434 H         1 <0>         0.0797
     41 H19        -1.2583   -2.0836    1.1559 H         1 <0>         0.0641
     42 H20        -1.6777   -0.7600    2.2696 H         1 <0>         0.0821
     43 H21        -0.3863   -7.8495   -2.4881 H         1 <0>         0.4258
@<TRIPOS>BOND
     1    1    2 1
     2    1   26 1
     3    1   27 1
     4    1   28 1
     5    2   13 1
     6    2    3 1
     7    2   25 1
     8    3    4 1
     9    4    5 1
    10    4   11 1
    11    4    6 1
    12    6    7 1
    13    6   29 1
    14    6   30 1
    15    7    8 1
    16    8   16 1
    17    8    9 1
    18    8   19 1
    19    9   10 1
    20    9   11 1
    21    9   14 1
    22   11   12 1
    23   11   13 1
    24   14   15 1
    25   15   16 1
    26   15   17 1
    27   15   18 1
    28   17   31 1
    29   17   32 1
    30   17   33 1
    31   18   34 1
    32   18   35 1
    33   18   36 1
    34   19   20 1
    35   19   37 1
    36   19   38 1
    37   20   21 1
    38   21   22 2
    39   21   23 2
    40   21   24 1
    41   24   39 1
    42   24   43 1
    43   25   40 1
    44   25   41 1
    45   25   42 1
@<TRIPOS>MOLECULE
ZINC16969869
   14    14     0     0     0
SMALL
USER_CHARGES

@<TRIPOS>ATOM
      1 C1         -0.0222    1.7864    0.0119 C.2       1 <0>         0.3566
      2 N1          1.2813    2.0320    0.0007 N.2       1 <0>        -0.3577
      3 N2          2.1329    1.1018   -0.0124 N.2       1 <0>        -0.1157
      4 C2          1.7849   -0.1689   -0.0159 C.2       1 <0>        -0.5637
      5 S1          0.0021   -0.0041    0.0020 S.3       1 <0>         0.1000
      6 S2          2.7879   -1.6175   -0.0337 S.o2      1 <0>         2.7528
      7 O1          3.1517   -1.8762    1.3153 O.2       1 <0>        -0.9384
      8 O2          2.1073   -2.5728   -0.8358 O.2       1 <0>        -0.9428
      9 N3          4.1854   -1.2355   -0.8359 N.pl3     1 <0>        -1.2381
     10 N4         -1.0958    2.6643    0.0316 N.pl3     1 <0>        -0.7629
     11 H1          4.3135   -0.3408   -1.1879 H         1 <0>         0.4233
     12 H2          4.8758   -1.9066   -0.9538 H         1 <0>         0.4264
     13 H3         -2.0029    2.3210    0.0425 H         1 <0>         0.4307
     14 H4         -0.9394    3.6216    0.0345 H         1 <0>         0.4296
@<TRIPOS>BOND
     1    1    5 1
     2    1    2 2
     3    1   10 1
     4    2    3 1
     5    3    4 2
     6    4    5 1
     7    4    6 1
     8    6    7 2
     9    6    8 2
    10    6    9 1
    11    9   11 1
    12    9   12 1
    13   10   13 1
    14   10   14 1
@<TRIPOS>MOLECULE
ZINC16969869
   13    13     0     0     0
SMALL
USER_CHARGES

@<TRIPOS>ATOM
      1 C1         -0.0222    1.7864    0.0119 C.2       1 <0>         0.3260
      2 N1          1.2813    2.0320    0.0007 N.2       1 <0>        -0.3664
      3 N2          2.1329    1.1018   -0.0124 N.2       1 <0>        -0.1390
      4 C2          1.7849   -0.1689   -0.0159 C.2       1 <0>        -0.4090
      5 S1          0.0021   -0.0041    0.0020 S.3       1 <0>         0.0024
      6 S2          2.7879   -1.6175   -0.0337 S.o2      1 <0>         2.6062
      7 O1          3.1517   -1.8762    1.3153 O.2       1 <0>        -1.0408
      8 O2          2.1073   -2.5728   -0.8358 O.2       1 <0>        -1.0448
      9 N3          4.1854   -1.2355   -0.8359 N.2       1 <0>        -1.3165
     10 N4         -1.0958    2.6643    0.0316 N.pl3     1 <0>        -0.7864
     11 H1          4.8758   -1.9066   -0.9538 H         1 <0>         0.3281
     12 H2         -2.0029    2.3210    0.0425 H         1 <0>         0.4206
     13 H3         -0.9394    3.6216    0.0345 H         1 <0>         0.4195
@<TRIPOS>BOND
     1    1    5 1
     2    1    2 2
     3    1   10 1
     4    2    3 1
     5    3    4 2
     6    4    5 1
     7    4    6 1
     8    6    7 2
     9    6    8 2
    10    6    9 1
    11    9   11 1
    12   10   12 1
    13   10   13 1
@<TRIPOS>MOLECULE
ZINC01031283
   19    19     0     0     0
SMALL
USER_CHARGES

@<TRIPOS>ATOM
      1 C1         -0.0167    1.3781    0.0096 C.ar      1 <0>        -0.0767
      2 C2          1.1709    2.0855    0.0021 C.ar      1 <0>        -0.0150
      3 C3          2.3773    1.4107   -0.0130 C.ar      1 <0>        -0.6394
      4 C4          2.3961    0.0285   -0.0201 C.ar      1 <0>        -0.0150
      5 C5          1.2084   -0.6789   -0.0117 C.ar      1 <0>        -0.0767
      6 C6          0.0021   -0.0041    0.0020 C.ar      1 <0>         0.0066
      7 N1         -1.2696   -0.7615    0.0105 N.pl3     1 <0>         0.0214
      8 O1         -2.3247   -0.1714    0.0241 O.2       1 <0>        -0.1403
      9 O2         -1.2532   -1.9704    0.0039 O.3       1 <0>        -0.1404
     10 S1          3.8911    2.3124   -0.0238 S.o2      1 <0>         2.7045
     11 O3          4.8717    1.4529   -0.5884 O.2       1 <0>        -0.9494
     12 O4          3.5973    3.5927   -0.5658 O.2       1 <0>        -0.9494
     13 N2          4.3274    2.5556    1.5551 N.pl3     1 <0>        -1.2463
     14 H1         -0.9591    1.9053    0.0259 H         1 <0>         0.1670
     15 H2          1.1563    3.1654    0.0076 H         1 <0>         0.1689
     16 H3          3.3385   -0.4987   -0.0326 H         1 <0>         0.1689
     17 H4          1.2231   -1.7588   -0.0179 H         1 <0>         0.1670
     18 H5          3.7682    2.2150    2.2708 H         1 <0>         0.4182
     19 H6          5.1421    3.0386    1.7642 H         1 <0>         0.4261
@<TRIPOS>BOND
     1    1    6 ar
     2    1    2 ar
     3    1   14 1
     4    2    3 ar
     5    2   15 1
     6    3    4 ar
     7    3   10 1
     8    4    5 ar
     9    4   16 1
    10    5    6 ar
    11    5   17 1
    12    6    7 1
    13    7    8 2
    14    7    9 1
    15   10   11 2
    16   10   12 2
    17   10   13 1
    18   13   18 1
    19   13   19 1
@<TRIPOS>MOLECULE
ZINC00128953
   22    22     0     0     0
SMALL
USER_CHARGES

@<TRIPOS>ATOM
      1 C1         -0.0178    1.4608    0.0101 C.3       1 <0>         0.0784
      2 N1          0.0021   -0.0041    0.0020 N.pl3     1 <0>        -1.1153
      3 S1          0.7184   -0.8155   -1.2513 S.o2      1 <0>         2.6972
      4 O1          0.5990   -2.2010   -0.9591 O.2       1 <0>        -0.9447
      5 O2          0.2109   -0.2430   -2.4487 O.2       1 <0>        -0.9408
      6 C2          2.4385   -0.4369   -1.2016 C.ar      1 <0>        -0.6406
      7 C3          2.9259    0.6561   -1.8936 C.ar      1 <0>        -0.0198
      8 C4          4.2754    0.9532   -1.8547 C.ar      1 <0>        -0.0757
      9 C5          5.1374    0.1575   -1.1234 C.ar      1 <0>         0.0033
     10 C6          4.6499   -0.9349   -0.4307 C.ar      1 <0>        -0.0757
     11 C7          3.2998   -1.2295   -0.4662 C.ar      1 <0>        -0.0157
     12 N2          6.5826    0.4751   -1.0825 N.pl3     1 <0>         0.0223
     13 O3          7.0090    1.4303   -1.6887 O.2       1 <0>        -0.1417
     14 O4          7.3365   -0.2208   -0.4430 O.3       1 <0>        -0.1418
     15 H1          1.0048    1.8381    0.0023 H         1 <0>         0.0594
     16 H2         -0.5450    1.8219   -0.8730 H         1 <0>         0.0742
     17 H3         -0.5280    1.8123    0.9069 H         1 <0>         0.0893
     18 H4         -0.4044   -0.4986    0.7308 H         1 <0>         0.4241
     19 H5          2.2524    1.2777   -2.4649 H         1 <0>         0.1662
     20 H6          4.6562    1.8067   -2.3958 H         1 <0>         0.1659
     21 H7          5.3235   -1.5567    0.1403 H         1 <0>         0.1658
     22 H8          2.9184   -2.0808    0.0780 H         1 <0>         0.1661
@<TRIPOS>BOND
     1    1    2 1
     2    1   15 1
     3    1   16 1
     4    1   17 1
     5    2    3 1
     6    2   18 1
     7    3    4 2
     8    3    5 2
     9    3    6 1
    10    6   11 ar
    11    6    7 ar
    12    7    8 ar
    13    7   19 1
    14    8    9 ar
    15    8   20 1
    16    9   10 ar
    17    9   12 1
    18   10   11 ar
    19   10   21 1
    20   11   22 1
    21   12   13 2
    22   12   14 1
@<TRIPOS>MOLECULE
ZINC29253676
   22    22     0     0     0
SMALL
USER_CHARGES

@<TRIPOS>ATOM
      1 C1         -0.0184    1.5028    0.0103 C.3       1 <0>        -0.1669
      2 C2          0.0021   -0.0041    0.0020 C.2       1 <0>         0.5049
      3 O1          1.0605   -0.5961   -0.0113 O.2       1 <0>        -0.4606
      4 N1         -1.1558   -0.6938    0.0094 N.am      1 <0>        -0.6132
      5 C3         -1.1370   -2.0844    0.0017 C.2       1 <0>         0.2581
      6 N2         -0.1026   -2.9019   -0.0067 N.2       1 <0>        -0.3111
      7 N3         -0.2439   -4.1575   -0.0130 N.2       1 <0>        -0.1111
      8 C4         -1.4599   -4.6659   -0.0111 C.2       1 <0>        -0.5785
      9 S1         -2.4308   -3.1653    0.0083 S.3       1 <0>         0.2280
     10 S2         -1.9811   -6.3490   -0.0183 S.o2      1 <0>         2.7363
     11 O2         -1.9574   -6.7873    1.3333 O.2       1 <0>        -0.9253
     12 O3         -3.1545   -6.4075   -0.8177 O.2       1 <0>        -0.9368
     13 N4         -0.8199   -7.2178   -0.8179 N.pl3     1 <0>        -1.1010
     14 C5          0.5287   -7.3282   -0.2564 C.3       1 <0>         0.0757
     15 H1          1.0042    1.8801    0.0026 H         1 <0>         0.1074
     16 H2         -0.5455    1.8639   -0.8728 H         1 <0>         0.0999
     17 H3         -0.5286    1.8543    0.9071 H         1 <0>         0.1000
     18 H4         -2.0023   -0.2203    0.0200 H         1 <0>         0.4343
     19 H5         -1.0327   -7.6534   -1.6580 H         1 <0>         0.4247
     20 H6          0.4762   -7.7997    0.7249 H         1 <0>         0.0722
     21 H7          1.1491   -7.9334   -0.9176 H         1 <0>         0.0879
     22 H8          0.9643   -6.3338   -0.1589 H         1 <0>         0.0749
@<TRIPOS>BOND
     1    1    2 1
     2    1   15 1
     3    1   16 1
     4    1   17 1
     5    2    3 2
     6    2    4 am
     7    4    5 1
     8    4   18 1
     9    5    9 1
    10    5    6 2
    11    6    7 1
    12    7    8 2
    13    8    9 1
    14    8   10 1
    15   10   11 2
    16   10   12 2
    17   10   13 1
    18   13   14 1
    19   13   19 1
    20   14   20 1
    21   14   21 1
    22   14   22 1
@<TRIPOS>MOLECULE
ZINC01661527
   20    20     0     0     0
SMALL
USER_CHARGES

@<TRIPOS>ATOM
      1 C1         -0.0178    1.4608    0.0101 C.3       1 <0>         0.0808
      2 N1          0.0021   -0.0041    0.0020 N.pl3     1 <0>        -1.1190
      3 S1         -1.4206   -0.8515    0.0111 S.o2      1 <0>         2.6983
      4 O1         -1.0732   -2.2289   -0.0267 O.2       1 <0>        -0.9539
      5 O2         -2.2182   -0.2952    1.0472 O.2       1 <0>        -0.9507
      6 C2         -2.2468   -0.4988   -1.5048 C.ar      1 <0>        -0.6783
      7 C3         -3.1168    0.5726   -1.5844 C.ar      1 <0>        -0.0090
      8 C4         -3.7652    0.8498   -2.7732 C.ar      1 <0>        -0.1317
      9 C5         -3.5432    0.0548   -3.8836 C.ar      1 <0>         0.0178
     10 C6         -2.6723   -1.0172   -3.8032 C.ar      1 <0>        -0.1318
     11 C7         -2.0203   -1.2900   -2.6155 C.ar      1 <0>        -0.0053
     12 Cl1        -4.3576    0.4020   -5.3769 Cl        1 <0>        -0.0510
     13 H1          1.0048    1.8381    0.0023 H         1 <0>         0.0861
     14 H2         -0.5450    1.8219   -0.8730 H         1 <0>         0.0598
     15 H3         -0.5280    1.8123    0.9069 H         1 <0>         0.0713
     16 H4          0.8486   -0.4776   -0.0086 H         1 <0>         0.4214
     17 H5         -3.2903    1.1928   -0.7175 H         1 <0>         0.1515
     18 H6         -4.4451    1.6865   -2.8352 H         1 <0>         0.1461
     19 H7         -2.4989   -1.6383   -4.6696 H         1 <0>         0.1460
     20 H8         -1.3368   -2.1240   -2.5540 H         1 <0>         0.1515
@<TRIPOS>BOND
     1    1    2 1
     2    1   13 1
     3    1   14 1
     4    1   15 1
     5    2    3 1
     6    2   16 1
     7    3    4 2
     8    3    5 2
     9    3    6 1
    10    6   11 ar
    11    6    7 ar
    12    7    8 ar
    13    7   17 1
    14    8    9 ar
    15    8   18 1
    16    9   10 ar
    17    9   12 1
    18   10   11 ar
    19   10   19 1
    20   11   20 1
@<TRIPOS>MOLECULE
ZINC00601305
   40    42     0     0     0
SMALL
USER_CHARGES

@<TRIPOS>ATOM
      1 C1         -0.0187    1.5258    0.0104 C.3       1 <0>        -0.1652
      2 C2          0.0021   -0.0041    0.0020 C.3       1 <0>         0.1560
      3 H1         -1.0150   -0.3956    0.0221 H         1 <0>         0.0800
      4 C3          0.7480   -0.5206   -1.2392 C.3       1 <0>        -0.0753
      5 C4          1.9155   -1.3037   -0.6819 C.ar      1 <0>        -0.1600
      6 C5          2.9291   -1.9949   -1.3175 C.ar      1 <0>        -0.0608
      7 C6          3.8990   -2.6426   -0.5756 C.ar      1 <0>        -0.1634
      8 C7          3.8530   -2.5975    0.8059 C.ar      1 <0>        -0.0763
      9 C8          2.8439   -1.9093    1.4445 C.ar      1 <0>        -0.1645
     10 C9          1.8601   -1.2523    0.7020 C.ar      1 <0>         0.2007
     11 N1          0.7638   -0.5085    1.1477 N.pl3     1 <0>        -0.4293
     12 N2          0.4401   -0.2776    2.4912 N.am      1 <0>        -0.4995
     13 C10        -0.1064   -1.2623    3.2315 C.2       1 <0>         0.5557
     14 O1         -0.3186   -2.3508    2.7336 O.2       1 <0>        -0.4977
     15 C11        -0.4478   -1.0188    4.6486 C.ar      1 <0>        -0.1448
     16 C12        -0.2105    0.2322    5.2217 C.ar      1 <0>        -0.0184
     17 C13        -0.5310    0.4534    6.5443 C.ar      1 <0>        -0.1307
     18 C14        -1.0874   -0.5624    7.3043 C.ar      1 <0>         0.0760
     19 C15        -1.3247   -1.8054    6.7416 C.ar      1 <0>        -0.6805
     20 C16        -1.0140   -2.0367    5.4179 C.ar      1 <0>         0.0547
     21 S1         -2.0322   -3.0913    7.7164 S.o2      1 <0>         2.6990
     22 O2         -3.1639   -2.5312    8.3681 O.2       1 <0>        -0.9409
     23 O3         -2.1249   -4.2337    6.8763 O.2       1 <0>        -0.9483
     24 N3         -0.9390   -3.4640    8.9032 N.pl3     1 <0>        -1.2420
     25 Cl1        -1.4883   -0.2763    8.9690 Cl        1 <0>        -0.0202
     26 H2          1.0039    1.9031    0.0027 H         1 <0>         0.0650
     27 H3         -0.5459    1.8868   -0.8726 H         1 <0>         0.0765
     28 H4         -0.5289    1.8773    0.9072 H         1 <0>         0.0574
     29 H5          0.1011   -1.1702   -1.8288 H         1 <0>         0.0908
     30 H6          1.1036    0.3137   -1.8438 H         1 <0>         0.0931
     31 H7          2.9634   -2.0294   -2.3964 H         1 <0>         0.1244
     32 H8          4.6906   -3.1829   -1.0735 H         1 <0>         0.1248
     33 H9          4.6102   -3.1036    1.3864 H         1 <0>         0.1241
     34 H10         2.8138   -1.8780    2.5237 H         1 <0>         0.1110
     35 H11         0.6095    0.5909    2.8885 H         1 <0>         0.4123
     36 H12         0.2236    1.0248    4.6303 H         1 <0>         0.1459
     37 H13        -0.3476    1.4205    6.9888 H         1 <0>         0.1563
     38 H14        -1.2043   -3.0049    4.9787 H         1 <0>         0.1703
     39 H15        -1.2485   -3.7912    9.7623 H         1 <0>         0.4257
     40 H16         0.0108   -3.3552    8.7392 H         1 <0>         0.4183
@<TRIPOS>BOND
     1    1    2 1
     2    1   26 1
     3    1   27 1
     4    1   28 1
     5    2    3 1
     6    2   11 1
     7    2    4 1
     8    4    5 1
     9    4   29 1
    10    4   30 1
    11    5   10 ar
    12    5    6 ar
    13    6    7 ar
    14    6   31 1
    15    7    8 ar
    16    7   32 1
    17    8    9 ar
    18    8   33 1
    19    9   10 ar
    20    9   34 1
    21   10   11 1
    22   11   12 1
    23   12   13 am
    24   12   35 1
    25   13   14 2
    26   13   15 1
    27   15   20 ar
    28   15   16 ar
    29   16   17 ar
    30   16   36 1
    31   17   18 ar
    32   17   37 1
    33   18   19 ar
    34   18   25 1
    35   19   20 ar
    36   19   21 1
    37   20   38 1
    38   21   22 2
    39   21   23 2
    40   21   24 1
    41   24   39 1
    42   24   40 1
@<TRIPOS>MOLECULE
ZINC00643114
   40    42     0     0     0
SMALL
USER_CHARGES

@<TRIPOS>ATOM
      1 C1         -0.0187    1.5258    0.0104 C.3       1 <0>        -0.1646
      2 C2          0.0021   -0.0041    0.0020 C.3       1 <0>         0.1576
      3 H1          0.5208   -0.3698   -0.8842 H         1 <0>         0.0820
      4 C3         -1.4317   -0.5572    0.0471 C.3       1 <0>        -0.0757
      5 C4         -1.4885   -1.3609    1.3269 C.ar      1 <0>        -0.1600
      6 C5         -2.5172   -2.0864    1.8965 C.ar      1 <0>        -0.0609
      7 C6         -2.3203   -2.7472    3.0946 C.ar      1 <0>        -0.1634
      8 C7         -1.0901   -2.6806    3.7229 C.ar      1 <0>        -0.0765
      9 C8         -0.0608   -1.9582    3.1587 C.ar      1 <0>        -0.1642
     10 C9         -0.2518   -1.2878    1.9483 C.ar      1 <0>         0.2006
     11 N1          0.6494   -0.5104    1.2152 N.pl3     1 <0>        -0.4294
     12 N2          1.9758   -0.2518    1.5849 N.am      1 <0>        -0.4997
     13 C10         2.2410    0.6241    2.5744 C.2       1 <0>         0.5554
     14 O1          1.3294    1.1896    3.1460 O.2       1 <0>        -0.4964
     15 C11         3.6401    0.8968    2.9644 C.ar      1 <0>        -0.1451
     16 C12         4.6896    0.2530    2.3058 C.ar      1 <0>        -0.0185
     17 C13         5.9928    0.5115    2.6741 C.ar      1 <0>        -0.1308
     18 C14         6.2621    1.4080    3.6954 C.ar      1 <0>         0.0759
     19 C15         5.2254    2.0493    4.3526 C.ar      1 <0>        -0.6806
     20 C16         3.9179    1.8035    3.9888 C.ar      1 <0>         0.0544
     21 S1          5.5778    3.1874    5.6507 S.o2      1 <0>         2.6990
     22 O2          6.5770    4.0692    5.1575 O.2       1 <0>        -0.9409
     23 O3          4.3251    3.6507    6.1359 O.2       1 <0>        -0.9484
     24 N3          6.2729    2.3257    6.8821 N.pl3     1 <0>        -1.2421
     25 Cl1         7.9056    1.7284    4.1536 Cl        1 <0>        -0.0203
     26 H2          1.0039    1.9031    0.0027 H         1 <0>         0.0549
     27 H3         -0.5459    1.8868   -0.8726 H         1 <0>         0.0731
     28 H4         -0.5289    1.8773    0.9072 H         1 <0>         0.0676
     29 H5         -2.1535    0.2590    0.0783 H         1 <0>         0.0922
     30 H6         -1.6190   -1.1991   -0.8137 H         1 <0>         0.0916
     31 H7         -3.4774   -2.1371    1.4047 H         1 <0>         0.1243
     32 H8         -3.1250   -3.3143    3.5387 H         1 <0>         0.1247
     33 H9         -0.9354   -3.1963    4.6592 H         1 <0>         0.1239
     34 H10         0.8974   -1.9102    3.6545 H         1 <0>         0.1109
     35 H11         2.7032   -0.7031    1.1288 H         1 <0>         0.4127
     36 H12         4.4809   -0.4464    1.5097 H         1 <0>         0.1462
     37 H13         6.8054    0.0138    2.1657 H         1 <0>         0.1562
     38 H14         3.1105    2.3081    4.4986 H         1 <0>         0.1701
     39 H15         6.9141    2.7530    7.4714 H         1 <0>         0.4257
     40 H16         6.0390    1.3936    7.0142 H         1 <0>         0.4183
@<TRIPOS>BOND
     1    1    2 1
     2    1   26 1
     3    1   27 1
     4    1   28 1
     5    2    3 1
     6    2   11 1
     7    2    4 1
     8    4    5 1
     9    4   29 1
    10    4   30 1
    11    5   10 ar
    12    5    6 ar
    13    6    7 ar
    14    6   31 1
    15    7    8 ar
    16    7   32 1
    17    8    9 ar
    18    8   33 1
    19    9   10 ar
    20    9   34 1
    21   10   11 1
    22   11   12 1
    23   12   13 am
    24   12   35 1
    25   13   14 2
    26   13   15 1
    27   15   20 ar
    28   15   16 ar
    29   16   17 ar
    30   16   36 1
    31   17   18 ar
    32   17   37 1
    33   18   19 ar
    34   18   25 1
    35   19   20 ar
    36   19   21 1
    37   20   38 1
    38   21   22 2
    39   21   23 2
    40   21   24 1
    41   24   39 1
    42   24   40 1
@<TRIPOS>MOLECULE
ZINC00030817
   31    32     0     0     0
SMALL
USER_CHARGES

@<TRIPOS>ATOM
      1 C1          8.6349    0.3885   -2.8560 C.2       1 <0>        -0.1589
      2 C2          7.5454    0.4541   -2.0078 C.2       1 <0>        -0.1374
      3 C3          7.0492    1.6688   -1.6678 C.2       1 <0>        -0.1428
      4 S1          8.1336    2.7729   -2.5578 S.3       1 <0>         0.0510
      5 C4          9.1748    1.5409   -3.3228 C.2       1 <0>        -0.1667
      6 C5          5.8842    2.0010   -0.7715 C.3       1 <0>        -0.0519
      7 C6          6.3696    2.1553    0.6468 C.2       1 <0>         0.5143
      8 O1          7.5458    2.0098    0.9045 O.2       1 <0>        -0.4962
      9 N1          5.4967    2.4550    1.6290 N.am      1 <0>        -0.6780
     10 C7          5.9292    2.5030    2.9589 C.ar      1 <0>         0.2063
     11 C8          5.0868    2.0839    3.9802 C.ar      1 <0>        -0.1669
     12 C9          5.5167    2.1326    5.2918 C.ar      1 <0>         0.0021
     13 C10         6.7845    2.5982    5.5885 C.ar      1 <0>        -0.6927
     14 C11         7.6257    3.0167    4.5739 C.ar      1 <0>         0.0022
     15 C12         7.2040    2.9647    3.2597 C.ar      1 <0>        -0.1444
     16 S2          7.3292    2.6588    7.2631 S.o2      1 <0>         2.7034
     17 O2          8.3519    3.6436    7.3222 O.2       1 <0>        -0.9630
     18 O3          6.1602    2.7252    8.0683 O.2       1 <0>        -0.9640
     19 N2          8.0512    1.2061    7.5960 N.pl3     1 <0>        -1.2503
     20 H1          9.0524   -0.5664   -3.1391 H         1 <0>         0.1352
     21 H2          7.0961   -0.4490   -1.6220 H         1 <0>         0.1312
     22 H3         10.0167    1.6781   -3.9852 H         1 <0>         0.1872
     23 H4          5.4257    2.9330   -1.1020 H         1 <0>         0.1159
     24 H5          5.1490    1.1977   -0.8185 H         1 <0>         0.1227
     25 H6          4.5685    2.6373    1.4140 H         1 <0>         0.4177
     26 H7          4.0964    1.7205    3.7491 H         1 <0>         0.1391
     27 H8          4.8619    1.8071    6.0865 H         1 <0>         0.1485
     28 H9          8.6151    3.3802    4.8089 H         1 <0>         0.1474
     29 H10         7.8632    3.2869    2.4672 H         1 <0>         0.1506
     30 H11         8.1042    0.5223    6.9100 H         1 <0>         0.4169
     31 H12         8.4211    1.0389    8.4770 H         1 <0>         0.4213
@<TRIPOS>BOND
     1    1    5 2
     2    1    2 1
     3    1   20 1
     4    2    3 2
     5    2   21 1
     6    3    4 1
     7    3    6 1
     8    4    5 1
     9    5   22 1
    10    6    7 1
    11    6   23 1
    12    6   24 1
    13    7    8 2
    14    7    9 am
    15    9   10 1
    16    9   25 1
    17   10   15 ar
    18   10   11 ar
    19   11   12 ar
    20   11   26 1
    21   12   13 ar
    22   12   27 1
    23   13   14 ar
    24   13   16 1
    25   14   15 ar
    26   14   28 1
    27   15   29 1
    28   16   17 2
    29   16   18 2
    30   16   19 1
    31   19   30 1
    32   19   31 1
@<TRIPOS>MOLECULE
ZINC40381421
   31    32     0     0     0
SMALL
USER_CHARGES

@<TRIPOS>ATOM
      1 C1          0.1267    3.7242   -0.3168 C.2       1 <0>        -0.1587
      2 C2          1.5081    3.7718   -0.3164 C.2       1 <0>        -0.1358
      3 C3          2.2052    2.6273   -0.1129 C.2       1 <0>        -0.1446
      4 S1          0.8973    1.4289    0.0873 S.3       1 <0>         0.0509
      5 C4         -0.4901    2.5343   -0.1137 C.2       1 <0>        -0.1657
      6 C5          3.6973    2.4202   -0.0679 C.3       1 <0>        -0.0505
      7 C6          4.1862    2.5949    1.3468 C.2       1 <0>         0.5167
      8 O1          3.4004    2.8614    2.2315 O.2       1 <0>        -0.4934
      9 N1          5.4967    2.4550    1.6290 N.am      1 <0>        -0.6749
     10 C7          5.9650    2.7085    2.9243 C.ar      1 <0>         0.1780
     11 C8          5.1733    2.4024    4.0226 C.ar      1 <0>        -0.1193
     12 C9          5.6380    2.6531    5.2992 C.ar      1 <0>        -0.0048
     13 C10         6.8904    3.2089    5.4848 C.ar      1 <0>        -0.6692
     14 C11         7.6827    3.5161    4.3941 C.ar      1 <0>        -0.0313
     15 C12         7.2264    3.2621    3.1133 C.ar      1 <0>         0.0528
     16 F1          8.0026    3.5569    2.0476 F         1 <0>        -0.1285
     17 S2          7.4779    3.5271    7.1152 S.o2      1 <0>         2.7060
     18 O2          8.4548    4.5528    7.0020 O.2       1 <0>        -0.9586
     19 O3          6.3298    3.6565    7.9425 O.2       1 <0>        -0.9566
     20 N2          8.2758    2.1675    7.6222 N.pl3     1 <0>        -1.2487
     21 H1         -0.4527    4.6223   -0.4721 H         1 <0>         0.1356
     22 H2          2.0243    4.7069   -0.4761 H         1 <0>         0.1317
     23 H3         -1.5466    2.3127   -0.0815 H         1 <0>         0.1874
     24 H4          3.9349    1.4139   -0.4128 H         1 <0>         0.1173
     25 H5          4.1851    3.1503   -0.7137 H         1 <0>         0.1241
     26 H6          6.1154    2.1787    0.9350 H         1 <0>         0.4203
     27 H7          4.1945    1.9689    3.8792 H         1 <0>         0.1618
     28 H8          5.0218    2.4149    6.1536 H         1 <0>         0.1561
     29 H9          8.6603    3.9504    4.5424 H         1 <0>         0.1616
     30 H10         8.3416    1.3970    7.0366 H         1 <0>         0.4173
     31 H11         8.6774    2.1415    8.5048 H         1 <0>         0.4230
@<TRIPOS>BOND
     1    1    5 2
     2    1    2 1
     3    1   21 1
     4    2    3 2
     5    2   22 1
     6    3    4 1
     7    3    6 1
     8    4    5 1
     9    5   23 1
    10    6    7 1
    11    6   24 1
    12    6   25 1
    13    7    8 2
    14    7    9 am
    15    9   10 1
    16    9   26 1
    17   10   15 ar
    18   10   11 ar
    19   11   12 ar
    20   11   27 1
    21   12   13 ar
    22   12   28 1
    23   13   14 ar
    24   13   17 1
    25   14   15 ar
    26   14   29 1
    27   15   16 1
    28   17   18 2
    29   17   19 2
    30   17   20 1
    31   20   30 1
    32   20   31 1
@<TRIPOS>MOLECULE
ZINC00007673
   36    36     0     0     0
SMALL
USER_CHARGES
2-acetylamino-N-benzyl-3-methoxy-propanamide
@<TRIPOS>ATOM
      1 C1          2.4620    0.9199   -0.0165 C.3       1 <0>        -0.1732
      2 C2          1.1468    1.6555   -0.0000 C.2       1 <0>         0.5157
      3 O1          1.1304    2.8682    0.0067 O.2       1 <0>        -0.5493
      4 N1         -0.0111    0.9658    0.0074 N.am      1 <0>        -0.7083
      5 C3         -1.2896    1.6810    0.0173 C.3       1 <0>         0.1310
      6 H1         -1.1985    2.5963   -0.5676 H         1 <0>         0.1287
      7 C4         -1.6665    2.0319    1.4580 C.3       1 <0>         0.0518
      8 O2         -1.8997    0.8303    2.1955 O.3       1 <0>        -0.3837
      9 C5         -2.2603    1.0472    3.5611 C.3       1 <0>         0.0319
     10 C6         -2.3595    0.8057   -0.5829 C.2       1 <0>         0.5232
     11 O3         -2.0814   -0.3061   -0.9798 O.2       1 <0>        -0.5278
     12 N2         -3.6254    1.2583   -0.6785 N.am      1 <0>        -0.7204
     13 C7         -4.6655    0.4074   -1.2619 C.3       1 <0>         0.1634
     14 C8         -5.9806    1.1431   -1.2517 C.ar      1 <0>        -0.1131
     15 C9         -6.8282    1.0286   -0.1657 C.ar      1 <0>        -0.0996
     16 C10        -8.0323    1.7076   -0.1540 C.ar      1 <0>        -0.1216
     17 C11        -8.3936    2.4925   -1.2331 C.ar      1 <0>        -0.1101
     18 C12        -7.5486    2.6024   -2.3215 C.ar      1 <0>        -0.1213
     19 C13        -6.3420    1.9279   -2.3307 C.ar      1 <0>        -0.1002
     20 H2          2.5197    0.2988   -0.9104 H         1 <0>         0.0912
     21 H3          3.2807    1.6394   -0.0205 H         1 <0>         0.0948
     22 H4          2.5367    0.2893    0.8694 H         1 <0>         0.0907
     23 H5          0.0021   -0.0041    0.0020 H         1 <0>         0.4151
     24 H6         -0.8527    2.5901    1.9208 H         1 <0>         0.0698
     25 H7         -2.5710    2.6402    1.4591 H         1 <0>         0.0632
     26 H8         -3.1771    1.6351    3.6059 H         1 <0>         0.0426
     27 H9         -2.4202    0.0870    4.0516 H         1 <0>         0.0886
     28 H10        -1.4588    1.5850    4.0676 H         1 <0>         0.0432
     29 H11        -3.8478    2.1475   -0.3610 H         1 <0>         0.4023
     30 H12        -4.3970    0.1574   -2.2883 H         1 <0>         0.0786
     31 H13        -4.7565   -0.5078   -0.6770 H         1 <0>         0.0794
     32 H14        -6.5479    0.4118    0.6754 H         1 <0>         0.1243
     33 H15        -8.6923    1.6219    0.6965 H         1 <0>         0.1250
     34 H16        -9.3360    3.0200   -1.2255 H         1 <0>         0.1243
     35 H17        -7.8309    3.2156   -3.1645 H         1 <0>         0.1253
     36 H18        -5.6818    2.0139   -3.1811 H         1 <0>         0.1245
@<TRIPOS>BOND
     1    1    2 1
     2    1   20 1
     3    1   21 1
     4    1   22 1
     5    2    3 2
     6    2    4 am
     7    4    5 1
     8    4   23 1
     9    5    6 1
    10    5    7 1
    11    5   10 1
    12    7    8 1
    13    7   24 1
    14    7   25 1
    15    8    9 1
    16    9   26 1
    17    9   27 1
    18    9   28 1
    19   10   11 2
    20   10   12 am
    21   12   13 1
    22   12   29 1
    23   13   14 1
    24   13   30 1
    25   13   31 1
    26   14   19 ar
    27   14   15 ar
    28   15   16 ar
    29   15   32 1
    30   16   17 ar
    31   16   33 1
    32   17   18 ar
    33   17   34 1
    34   18   19 ar
    35   18   35 1
    36   19   36 1
@<TRIPOS>MOLECULE
ZINC14277885
   10     9     0     0     0
SMALL
USER_CHARGES
trifluoromethanesulfonamide
@<TRIPOS>ATOM
      1 C1         -1.4424    2.7751   -1.4943 C.3       1 <0>        -0.0418
      2 F1         -1.3276    1.9357   -2.6076 F         1 <0>        -0.1596
      3 F2         -2.6326    3.5051   -1.5814 F         1 <0>        -0.1590
      4 F3         -0.3563    3.6562   -1.4606 F         1 <0>        -0.1633
      5 S1         -1.4563    1.7742    0.0186 S.o2      1 <0>         2.6248
      6 O1         -2.4423    0.7556   -0.0775 O.2       1 <0>        -0.8836
      7 O2         -1.3925    2.6151    1.1623 O.2       1 <0>        -0.8735
      8 N1         -0.0111    0.9658    0.0074 N.pl3     1 <0>        -1.2090
      9 H1          0.0021   -0.0041    0.0020 H         1 <0>         0.4360
     10 H2          0.8223    1.4622    0.0021 H         1 <0>         0.4290
@<TRIPOS>BOND
     1    1    2 1
     2    1    3 1
     3    1    4 1
     4    1    5 1
     5    5    6 2
     6    5    7 2
     7    5    8 1
     8    8    9 1
     9    8   10 1
@<TRIPOS>MOLECULE
ZINC00004321
   22    23     0     0     0
SMALL
USER_CHARGES

@<TRIPOS>ATOM
      1 C1         -0.0165    1.3620    0.0095 C.ar      1 <0>        -0.1437
      2 C2          1.1695    2.0829    0.0021 C.ar      1 <0>        -0.0536
      3 C3          2.3849    1.4337   -0.0130 C.ar      1 <0>        -0.1233
      4 C4          2.4258    0.0445   -0.0209 C.ar      1 <0>         0.0862
      5 C5          1.2235   -0.6815   -0.0133 C.ar      1 <0>        -0.1979
      6 C6          0.0021   -0.0041    0.0020 C.ar      1 <0>        -0.0344
      7 C7          1.5960   -2.0991   -0.0245 C.2       1 <0>         0.1256
      8 N1          2.8919   -2.1600   -0.0372 N.2       1 <0>        -0.2581
      9 O1          3.4313   -0.8535   -0.0353 O.3       1 <0>        -0.0747
     10 C8          0.6479   -3.2705   -0.0218 C.3       1 <0>        -0.5642
     11 S1          0.2511   -3.7312   -1.7309 S.o2      1 <0>         2.6236
     12 O2         -0.5174   -2.7076   -2.3479 O.2       1 <0>        -0.9427
     13 O3          1.4018   -4.2610   -2.3747 O.2       1 <0>        -0.9373
     14 N2         -0.7861   -5.0151   -1.5957 N.pl3     1 <0>        -1.2442
     15 H1         -0.9613    1.8850    0.0259 H         1 <0>         0.1405
     16 H2          1.1395    3.1624    0.0078 H         1 <0>         0.1453
     17 H3          3.3029    2.0027   -0.0191 H         1 <0>         0.1445
     18 H4         -0.9248   -0.5584    0.0083 H         1 <0>         0.1382
     19 H5          1.1159   -4.1156    0.4830 H         1 <0>         0.1623
     20 H6         -0.2675   -2.9958    0.5023 H         1 <0>         0.1655
     21 H7         -1.4598   -5.1681   -2.2765 H         1 <0>         0.4259
     22 H8         -0.7200   -5.6141   -0.8356 H         1 <0>         0.4164
@<TRIPOS>BOND
     1    1    6 ar
     2    1    2 ar
     3    1   15 1
     4    2    3 ar
     5    2   16 1
     6    3    4 ar
     7    3   17 1
     8    4    9 1
     9    4    5 ar
    10    5    6 ar
    11    5    7 1
    12    6   18 1
    13    7    8 2
    14    7   10 1
    15    8    9 1
    16   10   11 1
    17   10   19 1
    18   10   20 1
    19   11   12 2
    20   11   13 2
    21   11   14 1
    22   14   21 1
    23   14   22 1
@<TRIPOS>MOLECULE
ZINC00004726
   17    17     0     0     0
SMALL
USER_CHARGES

@<TRIPOS>ATOM
      1 C1         -0.0167    1.3782    0.0096 C.ar      1 <0>        -0.0084
      2 C2          1.1706    2.0858    0.0021 C.ar      1 <0>        -0.1323
      3 C3          2.3780    1.4104   -0.0130 C.ar      1 <0>         0.0197
      4 C4          2.3961    0.0270   -0.0206 C.ar      1 <0>        -0.1325
      5 C5          1.2082   -0.6795   -0.0130 C.ar      1 <0>        -0.0032
      6 C6          0.0021   -0.0041    0.0020 C.ar      1 <0>        -0.6784
      7 S1         -1.5119   -0.9054    0.0122 S.o2      1 <0>         2.7042
      8 O1         -1.2185   -2.1862    0.5533 O.2       1 <0>        -0.9587
      9 O2         -2.4924   -0.0460    0.5773 O.2       1 <0>        -0.9564
     10 N1         -1.9483   -1.1474   -1.5669 N.pl3     1 <0>        -1.2469
     11 Cl1         3.8696    2.2984   -0.0231 Cl        1 <0>        -0.0495
     12 H1         -0.9592    1.9053    0.0259 H         1 <0>         0.1538
     13 H2          1.1558    3.1656    0.0076 H         1 <0>         0.1469
     14 H3          3.3383   -0.5007   -0.0327 H         1 <0>         0.1469
     15 H4          1.2222   -1.7594   -0.0193 H         1 <0>         0.1535
     16 H5         -2.4563   -1.9358   -1.8143 H         1 <0>         0.4234
     17 H6         -1.6959   -0.5007   -2.2444 H         1 <0>         0.4178
@<TRIPOS>BOND
     1    1    6 ar
     2    1    2 ar
     3    1   12 1
     4    2    3 ar
     5    2   13 1
     6    3    4 ar
     7    3   11 1
     8    4    5 ar
     9    4   14 1
    10    5    6 ar
    11    5   15 1
    12    6    7 1
    13    7    8 2
    14    7    9 2
    15    7   10 1
    16   10   16 1
    17   10   17 1
@<TRIPOS>MOLECULE
ZINC05925089
   24    24     0     0     0
SMALL
USER_CHARGES

@<TRIPOS>ATOM
      1 C1         -0.0187    1.5258    0.0104 C.3       1 <0>        -0.1032
      2 C2          0.0021   -0.0041    0.0020 C.3       1 <0>        -0.1711
      3 C3         -1.4117   -0.5257    0.0127 C.2       1 <0>         0.4927
      4 O1         -2.3491    0.2539    0.0259 O.co2     1 <0>        -0.7004
      5 O2         -1.6182   -1.7273    0.0082 O.co2     1 <0>        -0.6962
      6 C4          1.3951    2.0474   -0.0003 C.2       1 <0>         0.5020
      7 O3          2.3275    1.2719   -0.0133 O.2       1 <0>        -0.4556
      8 N1          1.6234    3.3757    0.0047 N.am      1 <0>        -0.6108
      9 C5          2.9281    3.8570   -0.0052 C.2       1 <0>         0.2778
     10 N2          4.0623    3.1849   -0.0254 N.2       1 <0>        -0.3125
     11 N3          5.1835    3.7674   -0.0321 N.2       1 <0>        -0.1069
     12 C6          5.2219    5.0848   -0.0184 C.2       1 <0>        -0.5986
     13 S1          3.4728    5.4526   -0.0018 S.3       1 <0>         0.2204
     14 S2          6.6060    6.1752   -0.0227 S.o2      1 <0>         2.7554
     15 O4          6.9991    6.3271   -1.3797 O.2       1 <0>        -0.9398
     16 O5          6.2540    7.2814    0.7969 O.2       1 <0>        -0.9446
     17 N4          7.8476    5.3934    0.7451 N.pl3     1 <0>        -1.2384
     18 H1         -0.5459    1.8868   -0.8726 H         1 <0>         0.1048
     19 H2         -0.5289    1.8773    0.9072 H         1 <0>         0.1048
     20 H3          0.5123   -0.3556   -0.8948 H         1 <0>         0.0681
     21 H4          0.5293   -0.3651    0.8851 H         1 <0>         0.0680
     22 H5          0.8777    3.9959    0.0151 H         1 <0>         0.4346
     23 H6          7.7154    4.4975    1.0927 H         1 <0>         0.4246
     24 H7          8.7070    5.8313    0.8473 H         1 <0>         0.4251
@<TRIPOS>BOND
     1    1    2 1
     2    1    6 1
     3    1   18 1
     4    1   19 1
     5    2    3 1
     6    2   20 1
     7    2   21 1
     8    3    4 2
     9    3    5 1
    10    6    7 2
    11    6    8 am
    12    8    9 1
    13    8   22 1
    14    9   13 1
    15    9   10 2
    16   10   11 1
    17   11   12 2
    18   12   13 1
    19   12   14 1
    20   14   15 2
    21   14   16 2
    22   14   17 1
    23   17   23 1
    24   17   24 1
@<TRIPOS>MOLECULE
ZINC05925089
   23    23     0     0     0
SMALL
USER_CHARGES

@<TRIPOS>ATOM
      1 C1         -0.0187    1.5258    0.0104 C.3       1 <0>        -0.1022
      2 C2          0.0021   -0.0041    0.0020 C.3       1 <0>        -0.1696
      3 C3         -1.4117   -0.5257    0.0127 C.2       1 <0>         0.4939
      4 O1         -2.3491    0.2539    0.0259 O.co2     1 <0>        -0.7025
      5 O2         -1.6182   -1.7273    0.0082 O.co2     1 <0>        -0.7022
      6 C4          1.3951    2.0474   -0.0003 C.2       1 <0>         0.5000
      7 O3          2.3275    1.2719   -0.0133 O.2       1 <0>        -0.4657
      8 N1          1.6234    3.3757    0.0047 N.am      1 <0>        -0.6175
      9 C5          2.9281    3.8570   -0.0052 C.2       1 <0>         0.2446
     10 N2          4.0623    3.1849   -0.0254 N.2       1 <0>        -0.3184
     11 N3          5.1835    3.7674   -0.0321 N.2       1 <0>        -0.1267
     12 C6          5.2219    5.0848   -0.0184 C.2       1 <0>        -0.4438
     13 S1          3.4728    5.4526   -0.0018 S.3       1 <0>         0.1198
     14 S2          6.6060    6.1752   -0.0227 S.o2      1 <0>         2.6097
     15 O4          6.9991    6.3271   -1.3797 O.2       1 <0>        -1.0420
     16 O5          6.2540    7.2814    0.7969 O.2       1 <0>        -1.0465
     17 N4          7.8476    5.3934    0.7451 N.2       1 <0>        -1.3163
     18 H1         -0.5459    1.8868   -0.8726 H         1 <0>         0.0988
     19 H2         -0.5289    1.8773    0.9072 H         1 <0>         0.0990
     20 H3          0.5123   -0.3556   -0.8948 H         1 <0>         0.0672
     21 H4          0.5293   -0.3651    0.8851 H         1 <0>         0.0674
     22 H5          0.8777    3.9959    0.0151 H         1 <0>         0.4266
     23 H6          8.7070    5.8313    0.8473 H         1 <0>         0.3264
@<TRIPOS>BOND
     1    1    2 1
     2    1    6 1
     3    1   18 1
     4    1   19 1
     5    2    3 1
     6    2   20 1
     7    2   21 1
     8    3    4 2
     9    3    5 1
    10    6    7 2
    11    6    8 am
    12    8    9 1
    13    8   22 1
    14    9   13 1
    15    9   10 2
    16   10   11 1
    17   11   12 2
    18   12   13 1
    19   12   14 1
    20   14   15 2
    21   14   16 2
    22   14   17 1
    23   17   23 1
@<TRIPOS>MOLECULE
ZINC00003911
   46    47     0     0     0
SMALL
USER_CHARGES

@<TRIPOS>ATOM
      1 C1         -0.0187    1.5258    0.0104 C.3       1 <0>        -0.1843
      2 C2          0.0021   -0.0041    0.0020 C.3       1 <0>         0.0265
      3 H1          0.5123   -0.3556   -0.8948 H         1 <0>         0.1412
      4 C3         -1.4333   -0.5336    0.0129 C.3       1 <0>        -0.1429
      5 C4         -1.4157   -2.0577   -0.1212 C.3       1 <0>        -0.0877
      6 C5         -2.8295   -2.5793   -0.1105 C.ar      1 <0>        -0.1130
      7 C6         -3.4314   -2.9172    1.0875 C.ar      1 <0>        -0.0989
      8 C7         -4.7271   -3.3960    1.1000 C.ar      1 <0>        -0.1426
      9 C8         -5.4247   -3.5373   -0.0909 C.ar      1 <0>         0.1182
     10 C9         -4.8186   -3.1971   -1.2916 C.ar      1 <0>        -0.1411
     11 C10        -3.5245   -2.7138   -1.2982 C.ar      1 <0>        -0.0940
     12 O1         -6.6993   -4.0085   -0.0813 O.3       1 <0>        -0.4977
     13 N1          0.7126   -0.4907    1.1921 N.4       1 <0>        -0.5104
     14 C11         2.1220   -0.0825    1.1220 C.3       1 <0>        -0.0106
     15 C12         2.8620   -0.5894    2.3615 C.3       1 <0>        -0.0997
     16 C13         4.3078   -0.1706    2.2896 C.ar      1 <0>        -0.1013
     17 C14         5.2346   -0.9936    1.6770 C.ar      1 <0>        -0.1008
     18 C15         6.5621   -0.6140    1.6084 C.ar      1 <0>        -0.1260
     19 C16         6.9663    0.5939    2.1541 C.ar      1 <0>         0.0988
     20 C17         6.0335    1.4224    2.7703 C.ar      1 <0>         0.0875
     21 C18         4.7036    1.0381    2.8314 C.ar      1 <0>        -0.1217
     22 O2          6.4254    2.6087    3.3074 O.3       1 <0>        -0.4839
     23 O3          8.2720    0.9686    2.0879 O.3       1 <0>        -0.4847
     24 H2          1.0039    1.9031    0.0027 H         1 <0>         0.0822
     25 H3         -0.5459    1.8868   -0.8726 H         1 <0>         0.1069
     26 H4         -0.5289    1.8773    0.9072 H         1 <0>         0.0827
     27 H5         -1.9156   -0.2570    0.9504 H         1 <0>         0.0915
     28 H6         -1.9862   -0.1019   -0.8214 H         1 <0>         0.1153
     29 H7         -0.9334   -2.3344   -1.0587 H         1 <0>         0.0885
     30 H8         -0.8628   -2.4894    0.7131 H         1 <0>         0.0663
     31 H9         -2.8879   -2.8071    2.0143 H         1 <0>         0.1240
     32 H10        -5.1966   -3.6605    2.0359 H         1 <0>         0.1333
     33 H11        -5.3596   -3.3061   -2.2200 H         1 <0>         0.1342
     34 H12        -3.0538   -2.4447   -2.2322 H         1 <0>         0.1283
     35 H13        -7.3727   -3.3195    0.0019 H         1 <0>         0.3978
     36 H14         0.2896   -0.0986    2.0201 H         1 <0>         0.4266
     37 H15         2.5788   -0.5061    0.2276 H         1 <0>         0.1345
     38 H16         2.1837    1.0050    1.0814 H         1 <0>         0.1352
     39 H17         2.4051   -0.1658    3.2560 H         1 <0>         0.0977
     40 H18         2.8002   -1.6769    2.4022 H         1 <0>         0.0986
     41 H19         4.9208   -1.9352    1.2513 H         1 <0>         0.1331
     42 H20         7.2841   -1.2590    1.1299 H         1 <0>         0.1413
     43 H21         3.9769    1.6810    3.3058 H         1 <0>         0.1357
     44 H22         6.3843    3.3524    2.6906 H         1 <0>         0.3933
     45 H23         8.4955    1.4774    1.2965 H         1 <0>         0.3958
     46 H24         0.6554   -1.4974    1.2298 H         1 <0>         0.4262
@<TRIPOS>BOND
     1    1    2 1
     2    1   24 1
     3    1   25 1
     4    1   26 1
     5    2    3 1
     6    2    4 1
     7    2   13 1
     8    4    5 1
     9    4   27 1
    10    4   28 1
    11    5    6 1
    12    5   29 1
    13    5   30 1
    14    6   11 ar
    15    6    7 ar
    16    7    8 ar
    17    7   31 1
    18    8    9 ar
    19    8   32 1
    20    9   10 ar
    21    9   12 1
    22   10   11 ar
    23   10   33 1
    24   11   34 1
    25   12   35 1
    26   13   14 1
    27   13   36 1
    28   13   46 1
    29   14   15 1
    30   14   37 1
    31   14   38 1
    32   15   16 1
    33   15   39 1
    34   15   40 1
    35   16   21 ar
    36   16   17 ar
    37   17   18 ar
    38   17   41 1
    39   18   19 ar
    40   18   42 1
    41   19   20 ar
    42   19   23 1
    43   20   21 ar
    44   20   22 1
    45   21   43 1
    46   22   44 1
    47   23   45 1
@<TRIPOS>MOLECULE
ZINC00057278
   46    47     0     0     0
SMALL
USER_CHARGES

@<TRIPOS>ATOM
      1 C1         -0.0187    1.5258    0.0104 C.3       1 <0>        -0.1843
      2 C2          0.0021   -0.0041    0.0020 C.3       1 <0>         0.0265
      3 H1          0.5123   -0.3556   -0.8948 H         1 <0>         0.1410
      4 C3          0.7421   -0.5109    1.2415 C.3       1 <0>        -0.1428
      5 C4          0.8719   -2.0337    1.1708 C.3       1 <0>        -0.0878
      6 C5          1.6008   -2.5330    2.3917 C.ar      1 <0>        -0.1130
      7 C6          2.9792   -2.6404    2.3768 C.ar      1 <0>        -0.0940
      8 C7          3.6497   -3.0982    3.4945 C.ar      1 <0>        -0.1411
      9 C8          2.9388   -3.4498    4.6328 C.ar      1 <0>         0.1182
     10 C9          1.5558   -3.3406    4.6454 C.ar      1 <0>        -0.1425
     11 C10         0.8905   -2.8774    3.5269 C.ar      1 <0>        -0.0989
     12 O1          3.5960   -3.9008    5.7335 O.3       1 <0>        -0.4977
     13 N1         -1.3761   -0.5125    0.0124 N.4       1 <0>        -0.5104
     14 C11        -2.0500   -0.1262   -1.2343 C.3       1 <0>        -0.0107
     15 C12        -3.4854   -0.6557   -1.2235 C.3       1 <0>        -0.0997
     16 C13        -4.1768   -0.2594   -2.5025 C.ar      1 <0>        -0.1013
     17 C14        -4.8594    0.9408   -2.5743 C.ar      1 <0>        -0.1009
     18 C15        -5.4952    1.3089   -3.7453 C.ar      1 <0>        -0.1261
     19 C16        -5.4488    0.4746   -4.8506 C.ar      1 <0>         0.0988
     20 C17        -4.7614   -0.7332   -4.7785 C.ar      1 <0>         0.0877
     21 C18        -4.1222   -1.0939   -3.6032 C.ar      1 <0>        -0.1216
     22 O2         -4.7131   -1.5554   -5.8607 O.3       1 <0>        -0.4839
     23 O3         -6.0742    0.8350   -6.0032 O.3       1 <0>        -0.4847
     24 H2          1.0039    1.9031    0.0027 H         1 <0>         0.1068
     25 H3         -0.5459    1.8868   -0.8726 H         1 <0>         0.0825
     26 H4         -0.5289    1.8773    0.9072 H         1 <0>         0.0828
     27 H5          1.7350   -0.0630    1.2804 H         1 <0>         0.1153
     28 H6          0.1838   -0.2350    2.1361 H         1 <0>         0.0915
     29 H7         -0.1210   -2.4817    1.1320 H         1 <0>         0.0662
     30 H8          1.4302   -2.3096    0.2763 H         1 <0>         0.0884
     31 H9          3.5321   -2.3666    1.4904 H         1 <0>         0.1283
     32 H10         4.7263   -3.1827    3.4821 H         1 <0>         0.1342
     33 H11         1.0002   -3.6137    5.5303 H         1 <0>         0.1333
     34 H12        -0.1858   -2.7880    3.5377 H         1 <0>         0.1240
     35 H13         3.8546   -3.2028    6.3507 H         1 <0>         0.3978
     36 H14        -1.3629   -1.5185    0.0898 H         1 <0>         0.4262
     37 H15        -2.0643    0.9605   -1.3179 H         1 <0>         0.1362
     38 H16        -1.5132   -0.5489   -2.0836 H         1 <0>         0.1335
     39 H17        -3.4711   -1.7424   -1.1399 H         1 <0>         0.0974
     40 H18        -4.0222   -0.2330   -0.3742 H         1 <0>         0.0989
     41 H19        -4.8962    1.5920   -1.7135 H         1 <0>         0.1330
     42 H20        -6.0283    2.2466   -3.7985 H         1 <0>         0.1412
     43 H21        -3.5849   -2.0290   -3.5458 H         1 <0>         0.1358
     44 H22        -3.9621   -1.3901   -6.4470 H         1 <0>         0.3934
     45 H23        -5.5183    1.3426   -6.6102 H         1 <0>         0.3958
     46 H24        -1.8730   -0.1212    0.7986 H         1 <0>         0.4266
@<TRIPOS>BOND
     1    1    2 1
     2    1   24 1
     3    1   25 1
     4    1   26 1
     5    2    3 1
     6    2    4 1
     7    2   13 1
     8    4    5 1
     9    4   27 1
    10    4   28 1
    11    5    6 1
    12    5   29 1
    13    5   30 1
    14    6   11 ar
    15    6    7 ar
    16    7    8 ar
    17    7   31 1
    18    8    9 ar
    19    8   32 1
    20    9   10 ar
    21    9   12 1
    22   10   11 ar
    23   10   33 1
    24   11   34 1
    25   12   35 1
    26   13   14 1
    27   13   36 1
    28   13   46 1
    29   14   15 1
    30   14   37 1
    31   14   38 1
    32   15   16 1
    33   15   39 1
    34   15   40 1
    35   16   21 ar
    36   16   17 ar
    37   17   18 ar
    38   17   41 1
    39   18   19 ar
    40   18   42 1
    41   19   20 ar
    42   19   23 1
    43   20   21 ar
    44   20   22 1
    45   21   43 1
    46   22   44 1
    47   23   45 1
@<TRIPOS>MOLECULE
ZINC01530850
   57    61     0     0     0
SMALL
USER_CHARGES
3,5,7-trihydroxy-2-[8-(4-hydroxy-3-methoxy-phenyl)-9-(hydroxymethyl)-7,10-dioxabicyclo[4.4.0]deca-2,4,11-trien-4-yl]-chroman-4-one
@<TRIPOS>ATOM
      1 C1         -7.9774    3.9194    2.6408 C.3       1 <0>         0.0225
      2 O1         -8.0994    4.6500    1.4187 O.3       1 <0>        -0.3040
      3 C2         -7.0353    4.6195    0.5723 C.ar      1 <0>         0.1059
      4 C3         -5.8991    3.9022    0.9109 C.ar      1 <0>        -0.1804
      5 C4         -4.8186    3.8719    0.0492 C.ar      1 <0>        -0.0627
      6 C5         -4.8661    4.5608   -1.1485 C.ar      1 <0>        -0.1081
      7 C6         -5.9987    5.2737   -1.4949 C.ar      1 <0>        -0.1041
      8 C7         -7.0853    5.3082   -0.6358 C.ar      1 <0>         0.0884
      9 O2         -8.1980    6.0140   -0.9723 O.3       1 <0>        -0.4850
     10 C8         -3.5837    3.0913    0.4191 C.3       1 <0>         0.1075
     11 H1         -3.5697    2.9135    1.4944 H         1 <0>         0.0963
     12 C9         -3.5752    1.7504   -0.3273 C.3       1 <0>         0.0636
     13 H2         -3.5832    1.9282   -1.4027 H         1 <0>         0.0968
     14 O3         -2.3848    1.0427    0.0362 O.3       1 <0>        -0.2904
     15 C10        -1.2234    1.7522    0.0174 C.ar      1 <0>         0.0642
     16 C11        -0.0126    1.0758    0.0080 C.ar      1 <0>        -0.1130
     17 C12         1.1751    1.7823    0.0004 C.ar      1 <0>        -0.0849
     18 C13         1.1599    3.1648    0.0079 C.ar      1 <0>        -0.0856
     19 C14        -0.0431    3.8448    0.0214 C.ar      1 <0>        -0.0735
     20 C15        -1.2388    3.1418    0.0276 C.ar      1 <0>         0.0471
     21 O4         -2.4157    3.8254    0.0359 O.3       1 <0>        -0.2911
     22 C16         2.4573    3.9314    0.0018 C.3       1 <0>         0.1564
     23 H3          2.3004    4.9154    0.4435 H         1 <0>         0.0995
     24 C17         2.9514    4.0911   -1.4434 C.3       1 <0>         0.0553
     25 H4          3.0700    3.1883   -1.8568 H         1 <0>         0.0940
     26 C18         4.2727    4.8367   -1.3865 C.2       1 <0>         0.3737
     27 O5          4.5558    5.6957   -2.1959 O.2       1 <0>        -0.4202
     28 C19         5.1894    4.4660   -0.3029 C.ar      1 <0>        -0.2943
     29 C20         6.5227    4.9054   -0.3108 C.ar      1 <0>         0.2247
     30 C21         7.3632    4.5510    0.7292 C.ar      1 <0>        -0.2183
     31 C22         6.8876    3.7641    1.7712 C.ar      1 <0>         0.2005
     32 C23         5.5711    3.3219    1.7817 C.ar      1 <0>        -0.1972
     33 C24         4.7139    3.6628    0.7501 C.ar      1 <0>         0.2104
     34 O6          3.4351    3.2190    0.7595 O.3       1 <0>        -0.2875
     35 O7          7.7182    3.4238    2.7886 O.3       1 <0>        -0.4893
     36 O8          6.9835    5.6712   -1.3308 O.3       1 <0>        -0.4788
     37 O9          2.0014    4.8418   -2.2023 O.3       1 <0>        -0.5331
     38 C25        -4.8050    0.9312    0.0693 C.3       1 <0>         0.0867
     39 O10        -4.8543   -0.2634   -0.7132 O.3       1 <0>        -0.5611
     40 H5         -7.8098    2.8655    2.4188 H         1 <0>         0.0563
     41 H6         -7.1359    4.3083    3.2141 H         1 <0>         0.0573
     42 H7         -8.8935    4.0272    3.2215 H         1 <0>         0.1048
     43 H8         -5.8579    3.3665    1.8478 H         1 <0>         0.1365
     44 H9         -4.0180    4.5386   -1.8169 H         1 <0>         0.1355
     45 H10        -6.0349    5.8076   -2.4330 H         1 <0>         0.1428
     46 H11        -8.1849    6.9341   -0.6753 H         1 <0>         0.3910
     47 H12         0.0021   -0.0041    0.0020 H         1 <0>         0.1406
     48 H13         2.1168    1.2537   -0.0110 H         1 <0>         0.1388
     49 H14        -0.0522    4.9248    0.0267 H         1 <0>         0.1404
     50 H15         8.3897    4.8866    0.7316 H         1 <0>         0.1476
     51 H16         5.2152    2.7099    2.5972 H         1 <0>         0.1514
     52 H17         7.7185    4.0527    3.5232 H         1 <0>         0.4038
     53 H18         6.8797    6.6218   -1.1869 H         1 <0>         0.4044
     54 H19         2.2549    4.9781   -3.1254 H         1 <0>         0.3957
     55 H20        -4.7430    0.6711    1.1260 H         1 <0>         0.0601
     56 H21        -5.7057    1.5190   -0.1079 H         1 <0>         0.0750
     57 H22        -5.6102   -0.8328   -0.5147 H         1 <0>         0.3867
@<TRIPOS>BOND
     1    1    2 1
     2    1   40 1
     3    1   41 1
     4    1   42 1
     5    2    3 1
     6    3    8 ar
     7    3    4 ar
     8    4    5 ar
     9    4   43 1
    10    5    6 ar
    11    5   10 1
    12    6    7 ar
    13    6   44 1
    14    7    8 ar
    15    7   45 1
    16    8    9 1
    17    9   46 1
    18   10   11 1
    19   10   21 1
    20   10   12 1
    21   12   13 1
    22   12   14 1
    23   12   38 1
    24   14   15 1
    25   15   20 ar
    26   15   16 ar
    27   16   17 ar
    28   16   47 1
    29   17   18 ar
    30   17   48 1
    31   18   19 ar
    32   18   22 1
    33   19   20 ar
    34   19   49 1
    35   20   21 1
    36   22   23 1
    37   22   34 1
    38   22   24 1
    39   24   25 1
    40   24   26 1
    41   24   37 1
    42   26   27 2
    43   26   28 1
    44   28   33 ar
    45   28   29 ar
    46   29   30 ar
    47   29   36 1
    48   30   31 ar
    49   30   50 1
    50   31   32 ar
    51   31   35 1
    52   32   33 ar
    53   32   51 1
    54   33   34 1
    55   35   52 1
    56   36   53 1
    57   37   54 1
    58   38   39 1
    59   38   55 1
    60   38   56 1
    61   39   57 1
@<TRIPOS>MOLECULE
ZINC02033588
   57    61     0     0     0
SMALL
USER_CHARGES
3,5,7-trihydroxy-2-[8-(4-hydroxy-3-methoxy-phenyl)-9-(hydroxymethyl)-7,10-dioxabicyclo[4.4.0]deca-2,4,11-trien-4-yl]-chroman-4-one
@<TRIPOS>ATOM
      1 C1          6.8028    4.0795    9.0138 C.3       1 <0>         0.0222
      2 O1          5.4817    4.2482    9.5317 O.3       1 <0>        -0.3041
      3 C2          4.4595    3.7377    8.7942 C.ar      1 <0>         0.1072
      4 C3          4.7230    3.0846    7.6008 C.ar      1 <0>        -0.1760
      5 C4          3.6823    2.5709    6.8497 C.ar      1 <0>        -0.0623
      6 C5          2.3784    2.6978    7.2915 C.ar      1 <0>        -0.1146
      7 C6          2.1091    3.3440    8.4835 C.ar      1 <0>        -0.1058
      8 C7          3.1471    3.8658    9.2386 C.ar      1 <0>         0.0885
      9 O2          2.8838    4.5022   10.4113 O.3       1 <0>        -0.4845
     10 C8          3.9702    1.8655    5.5495 C.3       1 <0>         0.1076
     11 H1          4.9506    2.1638    5.1780 H         1 <0>         0.1019
     12 C9          3.9393    0.3466    5.7667 C.3       1 <0>         0.0641
     13 H2          4.7028    0.0626    6.4909 H         1 <0>         0.1377
     14 O3          4.2026   -0.2913    4.5123 O.3       1 <0>        -0.2864
     15 C10         3.5252    0.1822    3.4309 C.ar      1 <0>         0.0643
     16 C11         3.4524   -0.5903    2.2813 C.ar      1 <0>        -0.1134
     17 C12         2.7721   -0.1211    1.1737 C.ar      1 <0>        -0.0852
     18 C13         2.1629    1.1195    1.2080 C.ar      1 <0>        -0.0851
     19 C14         2.2352    1.8961    2.3488 C.ar      1 <0>        -0.0741
     20 C15         2.9107    1.4282    3.4662 C.ar      1 <0>         0.0469
     21 O4          2.9661    2.2007    4.5855 O.3       1 <0>        -0.2935
     22 C16         1.4239    1.6284   -0.0028 C.3       1 <0>         0.1553
     23 H3          1.4014    2.7180    0.0161 H         1 <0>         0.0996
     24 C17        -0.0127    1.0858    0.0080 C.3       1 <0>         0.0559
     25 H4          0.0087    0.0861    0.0160 H         1 <0>         0.0938
     26 C18        -0.6964    1.6005   -1.2460 C.2       1 <0>         0.3691
     27 O5         -1.8484    1.9825   -1.2335 O.2       1 <0>        -0.4137
     28 C19         0.1063    1.6115   -2.4739 C.ar      1 <0>        -0.2928
     29 C20        -0.4975    1.8282   -3.7226 C.ar      1 <0>         0.2236
     30 C21         0.2847    1.8487   -4.8633 C.ar      1 <0>        -0.2176
     31 C22         1.6574    1.6537   -4.7697 C.ar      1 <0>         0.2003
     32 C23         2.2596    1.4340   -3.5376 C.ar      1 <0>        -0.1979
     33 C24         1.4957    1.4072   -2.3841 C.ar      1 <0>         0.2100
     34 O6          2.0871    1.1854   -1.1867 O.3       1 <0>        -0.2881
     35 O7          2.4173    1.6785   -5.8934 O.3       1 <0>        -0.4895
     36 O8         -1.8378    2.0151   -3.8100 O.3       1 <0>        -0.4752
     37 O9         -0.7019    1.5565    1.1680 O.3       1 <0>        -0.5329
     38 C25         2.5603   -0.0733    6.2796 C.3       1 <0>         0.0481
     39 O10         2.5639   -1.4737    6.5640 O.3       1 <0>        -0.5611
     40 H5          7.5216    4.5314    9.6974 H         1 <0>         0.1049
     41 H6          7.0192    3.0163    8.9097 H         1 <0>         0.0574
     42 H7          6.8753    4.5622    8.0392 H         1 <0>         0.0579
     43 H8          5.7409    2.9805    7.2554 H         1 <0>         0.1379
     44 H9          1.5685    2.2915    6.7039 H         1 <0>         0.1353
     45 H10         1.0897    3.4418    8.8264 H         1 <0>         0.1425
     46 H11         2.8789    3.9192   11.1827 H         1 <0>         0.3905
     47 H12         3.9282   -1.5594    2.2515 H         1 <0>         0.1401
     48 H13         2.7166   -0.7244    0.2796 H         1 <0>         0.1380
     49 H14         1.7621    2.8667    2.3716 H         1 <0>         0.1403
     50 H15        -0.1718    2.0162   -5.8276 H         1 <0>         0.1476
     51 H16         3.3275    1.2831   -3.4796 H         1 <0>         0.1514
     52 H17         2.5209    0.8156   -6.3173 H         1 <0>         0.4038
     53 H18        -2.3418    1.1987   -3.9300 H         1 <0>         0.4008
     54 H19        -1.6212    1.2622    1.2257 H         1 <0>         0.3948
     55 H20         2.3262    0.4814    7.1882 H         1 <0>         0.0742
     56 H21         1.8092    0.1412    5.5194 H         1 <0>         0.0561
     57 H22         1.7196   -1.8102    6.8942 H         1 <0>         0.3843
@<TRIPOS>BOND
     1    1    2 1
     2    1   40 1
     3    1   41 1
     4    1   42 1
     5    2    3 1
     6    3    8 ar
     7    3    4 ar
     8    4    5 ar
     9    4   43 1
    10    5    6 ar
    11    5   10 1
    12    6    7 ar
    13    6   44 1
    14    7    8 ar
    15    7   45 1
    16    8    9 1
    17    9   46 1
    18   10   11 1
    19   10   21 1
    20   10   12 1
    21   12   13 1
    22   12   14 1
    23   12   38 1
    24   14   15 1
    25   15   20 ar
    26   15   16 ar
    27   16   17 ar
    28   16   47 1
    29   17   18 ar
    30   17   48 1
    31   18   19 ar
    32   18   22 1
    33   19   20 ar
    34   19   49 1
    35   20   21 1
    36   22   23 1
    37   22   34 1
    38   22   24 1
    39   24   25 1
    40   24   26 1
    41   24   37 1
    42   26   27 2
    43   26   28 1
    44   28   33 ar
    45   28   29 ar
    46   29   30 ar
    47   29   36 1
    48   30   31 ar
    49   30   50 1
    50   31   32 ar
    51   31   35 1
    52   32   33 ar
    53   32   51 1
    54   33   34 1
    55   35   52 1
    56   36   53 1
    57   37   54 1
    58   38   39 1
    59   38   55 1
    60   38   56 1
    61   39   57 1
@<TRIPOS>MOLECULE
ZINC02033589
   57    61     0     0     0
SMALL
USER_CHARGES

@<TRIPOS>ATOM
      1 C1         -0.0173    1.4248    0.0099 C.3       1 <0>         0.0225
      2 O1          0.0021   -0.0041    0.0020 O.3       1 <0>        -0.3038
      3 C2          0.6062   -0.6075   -1.0564 C.ar      1 <0>         0.1065
      4 C3          1.1729    0.1590   -2.0621 C.ar      1 <0>        -0.1822
      5 C4          1.7870   -0.4560   -3.1371 C.ar      1 <0>        -0.0620
      6 C5          1.8372   -1.8356   -3.2121 C.ar      1 <0>        -0.1086
      7 C6          1.2734   -2.6062   -2.2124 C.ar      1 <0>        -0.1040
      8 C7          0.6617   -1.9961   -1.1290 C.ar      1 <0>         0.0878
      9 O2          0.1119   -2.7526   -0.1417 O.3       1 <0>        -0.4845
     10 C8          2.4028    0.3792   -4.2300 C.3       1 <0>         0.1075
     11 H1          2.6720    1.3592   -3.8361 H         1 <0>         0.0970
     12 C9          1.4028    0.5417   -5.3828 C.3       1 <0>         0.0640
     13 H2          1.1374   -0.4380   -5.7801 H         1 <0>         0.0968
     14 O3          2.0234    1.3263   -6.4071 O.3       1 <0>        -0.2907
     15 C10         3.2959    0.9871   -6.7507 C.ar      1 <0>         0.0642
     16 C11         3.8219    1.4437   -7.9501 C.ar      1 <0>        -0.1132
     17 C12         5.1136    1.1104   -8.3112 C.ar      1 <0>        -0.0849
     18 C13         5.8848    0.3211   -7.4784 C.ar      1 <0>        -0.0844
     19 C14         5.3663   -0.1384   -6.2826 C.ar      1 <0>        -0.0740
     20 C15         4.0700    0.1907   -5.9152 C.ar      1 <0>         0.0473
     21 O4          3.5710   -0.2748   -4.7373 O.3       1 <0>        -0.2911
     22 C16         7.2932   -0.0392   -7.8755 C.3       1 <0>         0.1588
     23 H3          7.5838   -0.9673   -7.3832 H         1 <0>         0.0991
     24 C17         8.2487    1.0861   -7.4527 C.3       1 <0>         0.0431
     25 H4          7.9559    2.0208   -7.9310 H         1 <0>         0.1058
     26 C18         9.6414    0.6873   -7.9067 C.2       1 <0>         0.3741
     27 O5         10.6187    0.8832   -7.2141 O.2       1 <0>        -0.4215
     28 C19         9.7454    0.0524   -9.2252 C.ar      1 <0>        -0.2941
     29 C20        10.9953   -0.1195   -9.8408 C.ar      1 <0>         0.2243
     30 C21        11.0664   -0.7321  -11.0791 C.ar      1 <0>        -0.2184
     31 C22         9.9065   -1.1704  -11.7065 C.ar      1 <0>         0.2003
     32 C23         8.6667   -0.9978  -11.1048 C.ar      1 <0>        -0.1973
     33 C24         8.5725   -0.3856   -9.8674 C.ar      1 <0>         0.2104
     34 O6          7.3601   -0.2098   -9.2911 O.3       1 <0>        -0.2876
     35 O7          9.9860   -1.7729  -12.9195 O.3       1 <0>        -0.4894
     36 O8         12.1246    0.3121   -9.2263 O.3       1 <0>        -0.4789
     37 O9          8.2233    1.2380   -6.0320 O.3       1 <0>        -0.5314
     38 C25         0.1450    1.2519   -4.8784 C.3       1 <0>         0.0859
     39 O10        -0.8281    1.2970   -5.9239 O.3       1 <0>        -0.5609
     40 H5          1.0053    1.8021    0.0021 H         1 <0>         0.0579
     41 H6         -0.5445    1.7859   -0.8732 H         1 <0>         0.0557
     42 H7         -0.5275    1.7763    0.9067 H         1 <0>         0.1049
     43 H8          1.1344    1.2368   -2.0063 H         1 <0>         0.1363
     44 H9          2.3175   -2.3124   -4.0537 H         1 <0>         0.1363
     45 H10         1.3136   -3.6837   -2.2735 H         1 <0>         0.1427
     46 H11        -0.8162   -2.9794   -0.2906 H         1 <0>         0.3903
     47 H12         3.2213    2.0599   -8.6027 H         1 <0>         0.1405
     48 H13         5.5211    1.4669   -9.2457 H         1 <0>         0.1390
     49 H14         5.9709   -0.7547   -5.6338 H         1 <0>         0.1403
     50 H15        12.0242   -0.8694  -11.5588 H         1 <0>         0.1474
     51 H16         7.7733   -1.3421  -11.6045 H         1 <0>         0.1514
     52 H17        10.0920   -2.7330  -12.8756 H         1 <0>         0.4038
     53 H18        12.5380   -0.3487   -8.6541 H         1 <0>         0.4043
     54 H19         8.8065    1.9343   -5.7004 H         1 <0>         0.3950
     55 H20        -0.2624    0.7080   -4.0262 H         1 <0>         0.0750
     56 H21         0.3984    2.2673   -4.5739 H         1 <0>         0.0602
     57 H22        -1.6536    1.7345   -5.6743 H         1 <0>         0.3864
@<TRIPOS>BOND
     1    1    2 1
     2    1   40 1
     3    1   41 1
     4    1   42 1
     5    2    3 1
     6    3    8 ar
     7    3    4 ar
     8    4    5 ar
     9    4   43 1
    10    5    6 ar
    11    5   10 1
    12    6    7 ar
    13    6   44 1
    14    7    8 ar
    15    7   45 1
    16    8    9 1
    17    9   46 1
    18   10   11 1
    19   10   21 1
    20   10   12 1
    21   12   13 1
    22   12   14 1
    23   12   38 1
    24   14   15 1
    25   15   20 ar
    26   15   16 ar
    27   16   17 ar
    28   16   47 1
    29   17   18 ar
    30   17   48 1
    31   18   19 ar
    32   18   22 1
    33   19   20 ar
    34   19   49 1
    35   20   21 1
    36   22   23 1
    37   22   34 1
    38   22   24 1
    39   24   25 1
    40   24   26 1
    41   24   37 1
    42   26   27 2
    43   26   28 1
    44   28   33 ar
    45   28   29 ar
    46   29   30 ar
    47   29   36 1
    48   30   31 ar
    49   30   50 1
    50   31   32 ar
    51   31   35 1
    52   32   33 ar
    53   32   51 1
    54   33   34 1
    55   35   52 1
    56   36   53 1
    57   37   54 1
    58   38   39 1
    59   38   55 1
    60   38   56 1
    61   39   57 1
@<TRIPOS>MOLECULE
ZINC25995973
   57    61     0     0     0
SMALL
USER_CHARGES
(2R,3R)-3,5,7-trihydroxy-2-[(2S,3R)-3-(4-hydroxy-3-methoxy-phenyl)-2-(hydroxymethyl)-2,3-dihydro-1,4-benzodioxin-6-yl]chroman-4-one
@<TRIPOS>ATOM
      1 C1         -7.9682    3.5929    5.8719 C.3       1 <0>         0.0204
      2 O1         -8.2741    4.6102    4.9161 O.3       1 <0>        -0.3039
      3 C2         -7.2505    5.0552    4.1390 C.ar      1 <0>         0.0921
      4 C3         -5.9800    4.5243    4.2934 C.ar      1 <0>        -0.1516
      5 C4         -4.9405    4.9781    3.5030 C.ar      1 <0>        -0.0984
      6 C5         -5.1642    5.9653    2.5613 C.ar      1 <0>        -0.0864
      7 C6         -6.4305    6.4955    2.3986 C.ar      1 <0>        -0.1806
      8 C7         -7.4767    6.0451    3.1875 C.ar      1 <0>         0.1425
      9 O2         -8.7221    6.5690    3.0320 O.3       1 <0>        -0.4972
     10 C8         -3.5592    4.3999    3.6726 C.3       1 <0>         0.1145
     11 H1         -3.6350    3.3623    4.0298 H         1 <0>         0.1014
     12 C9         -2.7391    5.2877    4.6184 C.3       1 <0>         0.0662
     13 H2         -3.1686    5.3202    5.6306 H         1 <0>         0.1371
     14 O3         -1.4315    4.7187    4.7457 O.3       1 <0>        -0.2902
     15 C10        -0.8186    4.3310    3.5940 C.ar      1 <0>         0.0622
     16 C11         0.5516    4.1158    3.5910 C.ar      1 <0>        -0.1144
     17 C12         1.1864    3.7112    2.4320 C.ar      1 <0>        -0.0870
     18 C13         0.4594    3.5295    1.2702 C.ar      1 <0>        -0.0823
     19 C14        -0.9060    3.7431    1.2661 C.ar      1 <0>        -0.0760
     20 C15        -1.5498    4.1458    2.4268 C.ar      1 <0>         0.0480
     21 O4         -2.8938    4.3596    2.4056 O.3       1 <0>        -0.2983
     22 C16         1.1561    3.0919    0.0076 C.3       1 <0>         0.1612
     23 H3          0.6158    3.4652   -0.8748 H         1 <0>         0.0977
     24 C17         1.2864    1.5618   -0.0018 C.3       1 <0>         0.0556
     25 H4          1.7823    1.1668    0.8971 H         1 <0>         0.1018
     26 C18         2.0223    1.1817   -1.2742 C.2       1 <0>         0.3772
     27 O5          1.7022    0.2125   -1.9311 O.2       1 <0>        -0.4257
     28 C19         3.1404    2.0456   -1.6688 C.ar      1 <0>        -0.3360
     29 C20         4.0330    1.6466   -2.6762 C.ar      1 <0>         0.2898
     30 C21         5.0695    2.4873   -3.0403 C.ar      1 <0>        -0.3066
     31 C22         5.2241    3.7156   -2.4089 C.ar      1 <0>         0.2669
     32 C23         4.3475    4.1131   -1.4077 C.ar      1 <0>        -0.2972
     33 C24         3.3046    3.2870   -1.0270 C.ar      1 <0>         0.2528
     34 O6          2.4570    3.6769   -0.0460 O.3       1 <0>        -0.2934
     35 O7          6.2416    4.5350   -2.7746 O.3       1 <0>        -0.4969
     36 O8          3.8804    0.4459   -3.2878 O.3       1 <0>        -0.4744
     37 O9         -0.0110    0.9628    0.0073 O.3       1 <0>        -0.5711
     38 C25        -2.6333    6.6996    4.0387 C.3       1 <0>         0.0620
     39 O10        -1.9450    7.5439    4.9636 O.3       1 <0>        -0.5907
     40 H5         -8.8789    3.3272    6.4288 H         1 <0>         0.1045
     41 H6         -7.2057    3.9650    6.5720 H         1 <0>         0.0566
     42 H7         -7.5846    2.7035    5.3506 H         1 <0>         0.0567
     43 H8         -5.8018    3.7557    5.0309 H         1 <0>         0.1387
     44 H9         -4.3486    6.3201    1.9486 H         1 <0>         0.1317
     45 H10        -6.6034    7.2636    1.6594 H         1 <0>         0.1389
     46 H11        -8.8996    7.3515    2.2795 H         1 <0>         0.4344
     47 H12         1.1224    4.2605    4.4964 H         1 <0>         0.1387
     48 H13         2.2528    3.5405    2.4329 H         1 <0>         0.1371
     49 H14        -1.4722    3.5966    0.3582 H         1 <0>         0.1386
     50 H15         5.7593    2.1887   -3.8157 H         1 <0>         0.1421
     51 H16         4.4799    5.0701   -0.9249 H         1 <0>         0.1451
     52 H17         6.3692    5.5085   -2.2786 H         1 <0>         0.4452
     53 H18         4.5822    0.1373   -4.0767 H         1 <0>         0.4414
     54 H19        -0.1111   -0.1326    0.0024 H         1 <0>         0.4259
     55 H20        -2.0779    6.6657    3.0898 H         1 <0>         0.0512
     56 H21        -3.6424    7.0987    3.8588 H         1 <0>         0.0686
     57 H22        -1.7724    8.6023    4.7188 H         1 <0>         0.4135
@<TRIPOS>BOND
     1    1    2 1
     2    1   40 1
     3    1   41 1
     4    1   42 1
     5    2    3 1
     6    3    8 ar
     7    3    4 ar
     8    4    5 ar
     9    4   43 1
    10    5    6 ar
    11    5   10 1
    12    6    7 ar
    13    6   44 1
    14    7    8 ar
    15    7   45 1
    16    8    9 1
    17    9   46 1
    18   10   11 1
    19   10   21 1
    20   10   12 1
    21   12   13 1
    22   12   14 1
    23   12   38 1
    24   14   15 1
    25   15   20 ar
    26   15   16 ar
    27   16   17 ar
    28   16   47 1
    29   17   18 ar
    30   17   48 1
    31   18   19 ar
    32   18   22 1
    33   19   20 ar
    34   19   49 1
    35   20   21 1
    36   22   23 1
    37   22   34 1
    38   22   24 1
    39   24   25 1
    40   24   26 1
    41   24   37 1
    42   26   27 2
    43   26   28 1
    44   28   33 ar
    45   28   29 ar
    46   29   30 ar
    47   29   36 1
    48   30   31 ar
    49   30   50 1
    50   31   32 ar
    51   31   35 1
    52   32   33 ar
    53   32   51 1
    54   33   34 1
    55   35   52 1
    56   36   53 1
    57   37   54 1
    58   38   39 1
    59   38   55 1
    60   38   56 1
    61   39   57 1
