@<TRIPOS>MOLECULE
ZINC03813042
   19    19     0     0     0
SMALL
USER_CHARGES

@<TRIPOS>ATOM
      1 C1         -0.0184    1.5028    0.0103 C.3       1 <0>        -0.1669
      2 C2          0.0021   -0.0041    0.0020 C.2       1 <0>         0.5048
      3 O1          1.0605   -0.5961   -0.0113 O.2       1 <0>        -0.4597
      4 N1         -1.1558   -0.6938    0.0094 N.am      1 <0>        -0.6127
      5 C3         -1.1370   -2.0844    0.0017 C.2       1 <0>         0.2593
      6 N2         -0.1026   -2.9019   -0.0067 N.2       1 <0>        -0.3105
      7 N3         -0.2439   -4.1575   -0.0130 N.2       1 <0>        -0.1075
      8 C4         -1.4599   -4.6659   -0.0111 C.2       1 <0>        -0.5832
      9 S1         -2.4308   -3.1653    0.0083 S.3       1 <0>         0.2359
     10 S2         -1.9811   -6.3490   -0.0183 S.o2      1 <0>         2.7480
     11 O2         -1.9574   -6.7873    1.3333 O.2       1 <0>        -0.9356
     12 O3         -3.1545   -6.4075   -0.8177 O.2       1 <0>        -0.9350
     13 N4         -0.8199   -7.2178   -0.8179 N.pl3     1 <0>        -1.2313
     14 H1          1.0042    1.8801    0.0026 H         1 <0>         0.1076
     15 H2         -0.5455    1.8639   -0.8728 H         1 <0>         0.1002
     16 H3         -0.5286    1.8543    0.9071 H         1 <0>         0.1002
     17 H4         -2.0023   -0.2203    0.0200 H         1 <0>         0.4348
     18 H5         -0.6611   -8.1456   -0.5837 H         1 <0>         0.4284
     19 H6         -0.2986   -6.7988   -1.5204 H         1 <0>         0.4232
@<TRIPOS>BOND
     1    1    2 1
     2    1   14 1
     3    1   15 1
     4    1   16 1
     5    2    3 2
     6    2    4 am
     7    4    5 1
     8    4   17 1
     9    5    9 1
    10    5    6 2
    11    6    7 1
    12    7    8 2
    13    8    9 1
    14    8   10 1
    15   10   11 2
    16   10   12 2
    17   10   13 1
    18   13   18 1
    19   13   19 1
@<TRIPOS>MOLECULE
ZINC03813042
   18    18     0     0     0
SMALL
USER_CHARGES

@<TRIPOS>ATOM
      1 C1         -0.0184    1.5028    0.0103 C.3       1 <0>        -0.1624
      2 C2          0.0021   -0.0041    0.0020 C.2       1 <0>         0.5010
      3 O1          0.0203   -0.6161    1.0490 O.2       1 <0>        -0.4698
      4 N1          0.0001   -0.6716   -1.1688 N.am      1 <0>        -0.6150
      5 C3          0.0189   -2.0622   -1.1765 C.2       1 <0>         0.2229
      6 N2          0.0342   -2.8992   -0.1578 N.2       1 <0>        -0.3133
      7 N3          0.0506   -4.1518   -0.3231 N.2       1 <0>        -0.1306
      8 C4          0.0525   -4.6369   -1.5486 C.2       1 <0>        -0.4261
      9 S1          0.0209   -3.1183   -2.4906 S.3       1 <0>         0.1375
     10 S2          0.0731   -6.3097   -2.1017 S.o2      1 <0>         2.6009
     11 O2         -1.2748   -6.7592   -2.0864 O.2       1 <0>        -1.0365
     12 O3          0.8728   -6.3393   -3.2760 O.2       1 <0>        -1.0415
     13 N4          0.8799   -7.1939   -0.9573 N.2       1 <0>        -1.3126
     14 H1          1.0042    1.8801    0.0026 H         1 <0>         0.1013
     15 H2         -0.5455    1.8639   -0.8728 H         1 <0>         0.0851
     16 H3         -0.5286    1.8543    0.9071 H         1 <0>         0.1022
     17 H4         -0.0145   -0.1822   -2.0061 H         1 <0>         0.4269
     18 H5          0.9999   -8.1489   -1.0779 H         1 <0>         0.3298
@<TRIPOS>BOND
     1    1    2 1
     2    1   14 1
     3    1   15 1
     4    1   16 1
     5    2    3 2
     6    2    4 am
     7    4    5 1
     8    4   17 1
     9    5    9 1
    10    5    6 2
    11    6    7 1
    12    7    8 2
    13    8    9 1
    14    8   10 1
    15   10   11 2
    16   10   12 2
    17   10   13 1
    18   13   18 1
@<TRIPOS>MOLECULE
ZINC29134554
   19    19     0     0     0
SMALL
USER_CHARGES

@<TRIPOS>ATOM
      1 C1          0.0180   -1.1779   -0.0044 C.1       1 <0>        -0.1360
      2 C2          0.0021   -0.0041    0.0020 C.1       1 <0>        -0.1766
      3 C3         -0.0173    1.4278    0.0099 C.ar      1 <0>         0.0766
      4 C4         -1.2333    2.1119    0.0310 C.ar      1 <0>        -0.1201
      5 C5         -1.2452    3.4915    0.0390 C.ar      1 <0>        -0.0155
      6 C6         -0.0549    4.1966    0.0261 C.ar      1 <0>        -0.6733
      7 C7          1.1540    3.5243    0.0051 C.ar      1 <0>        -0.0154
      8 C8          1.1797    2.1448    0.0023 C.ar      1 <0>        -0.1201
      9 S1         -0.0788    5.9584    0.0358 S.o2      1 <0>         2.7028
     10 O1          1.1531    6.3844   -0.5301 O.2       1 <0>        -0.9609
     11 O2         -1.3371    6.3504   -0.4954 O.2       1 <0>        -0.9609
     12 N1         -0.0633    6.4395    1.6203 N.pl3     1 <0>        -1.2495
     13 H1          0.0322   -2.2278   -0.0102 H         1 <0>         0.2301
     14 H2         -2.1632    1.5626    0.0407 H         1 <0>         0.1398
     15 H3         -2.1856    4.0223    0.0550 H         1 <0>         0.1499
     16 H4          2.0798    4.0805   -0.0049 H         1 <0>         0.1499
     17 H5          2.1242    1.6211   -0.0095 H         1 <0>         0.1398
     18 H6         -0.0444    5.7767    2.3283 H         1 <0>         0.4171
     19 H7         -0.0731    7.3842    1.8404 H         1 <0>         0.4222
@<TRIPOS>BOND
     1    1    2 3
     2    1   13 1
     3    2    3 1
     4    3    8 ar
     5    3    4 ar
     6    4    5 ar
     7    4   14 1
     8    5    6 ar
     9    5   15 1
    10    6    7 ar
    11    6    9 1
    12    7    8 ar
    13    7   16 1
    14    8   17 1
    15    9   10 2
    16    9   11 2
    17    9   12 1
    18   12   18 1
    19   12   19 1
@<TRIPOS>MOLECULE
ZINC00001099
   19    19     0     0     0
SMALL
USER_CHARGES

@<TRIPOS>ATOM
      1 C1         -0.0169    1.3930    0.0097 C.ar      1 <0>        -0.1090
      2 C2          1.1700    2.0954    0.0021 C.ar      1 <0>        -0.0380
      3 C3          2.3776    1.4198   -0.0135 C.ar      1 <0>        -0.6857
      4 C4          2.4041    0.0362   -0.0212 C.ar      1 <0>        -0.0380
      5 C5          1.2251   -0.6794   -0.0133 C.ar      1 <0>        -0.1090
      6 C6          0.0021   -0.0041    0.0020 C.ar      1 <0>        -0.0699
      7 C7         -1.2634   -0.7626    0.0105 C.2       1 <0>         0.5141
      8 O1         -2.3322   -0.1685    0.0243 O.co2     1 <0>        -0.6763
      9 O2         -1.2434   -1.9853    0.0038 O.co2     1 <0>        -0.6763
     10 S1          3.8889    2.3257   -0.0242 S.o2      1 <0>         2.7042
     11 O3          4.8718    1.4691   -0.5893 O.2       1 <0>        -0.9724
     12 O4          3.5915    3.6054   -0.5656 O.2       1 <0>        -0.9724
     13 N1          4.3249    2.5694    1.5547 N.pl3     1 <0>        -1.2522
     14 H1         -0.9586    1.9215    0.0260 H         1 <0>         0.1382
     15 H2          1.1569    3.1753    0.0081 H         1 <0>         0.1354
     16 H3          3.3502   -0.4844   -0.0337 H         1 <0>         0.1355
     17 H4          1.2472   -1.7591   -0.0197 H         1 <0>         0.1382
     18 H5          3.7668    2.2270    2.2703 H         1 <0>         0.4174
     19 H6          5.1384    3.0546    1.7638 H         1 <0>         0.4162
@<TRIPOS>BOND
     1    1    6 ar
     2    1    2 ar
     3    1   14 1
     4    2    3 ar
     5    2   15 1
     6    3    4 ar
     7    3   10 1
     8    4    5 ar
     9    4   16 1
    10    5    6 ar
    11    5   17 1
    12    6    7 1
    13    7    8 2
    14    7    9 1
    15   10   11 2
    16   10   12 2
    17   10   13 1
    18   13   18 1
    19   13   19 1
