@<TRIPOS>MOLECULE
ZINC00896918
   22    22     0     0     0
SMALL
USER_CHARGES

@<TRIPOS>ATOM
      1 C1         -0.0167    1.3778    0.0096 C.ar      1 <0>         0.0974
      2 C2          1.1707    2.0862    0.0021 C.ar      1 <0>        -0.6868
      3 C3          2.3777    1.4131   -0.0135 C.ar      1 <0>         0.0588
      4 C4          2.3983    0.0299   -0.0210 C.ar      1 <0>        -0.0734
      5 C5          1.2094   -0.6794   -0.0130 C.ar      1 <0>         0.1016
      6 C6          0.0021   -0.0041    0.0020 C.ar      1 <0>        -0.6843
      7 S1         -1.5117   -0.9057    0.0122 S.o2      1 <0>         2.7000
      8 O1         -1.3921   -1.8888    1.0313 O.2       1 <0>        -0.9349
      9 O2         -2.5575    0.0562    0.0006 O.2       1 <0>        -0.9450
     10 N1         -1.6044   -1.7230   -1.4251 N.pl3     1 <0>        -1.2435
     11 Cl1         1.2335   -2.4152   -0.0231 Cl        1 <0>         0.0087
     12 Cl2         3.9142   -0.8161   -0.0412 Cl        1 <0>        -0.0140
     13 S2          1.1451    3.8480    0.0117 S.o2      1 <0>         2.7054
     14 O3          2.3791    4.2752   -0.5486 O.2       1 <0>        -0.9481
     15 O4         -0.1113    4.2388   -0.5251 O.2       1 <0>        -0.9447
     16 N2          1.1530    4.3291    1.5963 N.pl3     1 <0>        -1.2462
     17 H1         -0.9593    1.9047    0.0259 H         1 <0>         0.1825
     18 H2          3.3048    1.9671   -0.0201 H         1 <0>         0.1751
     19 H3         -0.8907   -1.6407   -2.0768 H         1 <0>         0.4176
     20 H4         -2.3725   -2.2840   -1.6154 H         1 <0>         0.4278
     21 H5          1.1694    3.6663    2.3043 H         1 <0>         0.4190
     22 H6          1.1413    5.2737    1.8164 H         1 <0>         0.4268
@<TRIPOS>BOND
     1    1    6 ar
     2    1    2 ar
     3    1   17 1
     4    2    3 ar
     5    2   13 1
     6    3    4 ar
     7    3   18 1
     8    4    5 ar
     9    4   12 1
    10    5    6 ar
    11    5   11 1
    12    6    7 1
    13    7    8 2
    14    7    9 2
    15    7   10 1
    16   10   19 1
    17   10   20 1
    18   13   14 2
    19   13   15 2
    20   13   16 1
    21   16   21 1
    22   16   22 1
@<TRIPOS>MOLECULE
ZINC00056721
   26    27     0     0     0
SMALL
USER_CHARGES

@<TRIPOS>ATOM
      1 C1         -0.0187    1.5258    0.0104 C.3       1 <0>        -0.1547
      2 C2          0.0021   -0.0041    0.0020 C.3       1 <0>         0.0492
      3 O1          0.6932   -0.4774    1.1597 O.3       1 <0>        -0.3006
      4 C3          0.8020   -1.8247    1.3057 C.ar      1 <0>         0.1921
      5 C4          0.2604   -2.6828    0.3521 C.ar      1 <0>        -0.2018
      6 C5          0.3546   -4.0332    0.4731 C.ar      1 <0>         0.0140
      7 C6          1.0107   -4.6197    1.5806 C.ar      1 <0>        -0.0020
      8 C7          1.5510   -3.7250    2.5328 C.ar      1 <0>        -0.0796
      9 C8          1.4586   -2.3607    2.4030 C.ar      1 <0>        -0.1219
     10 S1          2.2658   -4.8318    3.7244 S.3       1 <0>         0.1249
     11 C9          1.8165   -6.3576    2.9091 C.2       1 <0>        -0.4422
     12 N1          1.1890   -5.9318    1.8469 N.2       1 <0>        -0.3736
     13 S2          2.1387   -8.0154    3.4117 S.o2      1 <0>         2.7381
     14 O2          3.5473   -8.1923    3.3489 O.2       1 <0>        -0.9371
     15 O3          1.3964   -8.2298    4.6043 O.2       1 <0>        -0.9317
     16 N2          1.4848   -9.0116    2.2617 N.pl3     1 <0>        -1.2315
     17 H1          1.0039    1.9031    0.0027 H         1 <0>         0.0693
     18 H2         -0.5459    1.8868   -0.8726 H         1 <0>         0.0837
     19 H3         -0.5289    1.8773    0.9072 H         1 <0>         0.0693
     20 H4         -1.0205   -0.3814    0.0098 H         1 <0>         0.0697
     21 H5          0.5123   -0.3556   -0.8948 H         1 <0>         0.0697
     22 H6         -0.2474   -2.2649   -0.5046 H         1 <0>         0.1477
     23 H7         -0.0778   -4.6673   -0.2867 H         1 <0>         0.1464
     24 H8          1.8895   -1.7116    3.1509 H         1 <0>         0.1511
     25 H9          1.8842   -9.8780    2.0868 H         1 <0>         0.4270
     26 H10         0.7024   -8.7286    1.7631 H         1 <0>         0.4245
@<TRIPOS>BOND
     1    1    2 1
     2    1   17 1
     3    1   18 1
     4    1   19 1
     5    2    3 1
     6    2   20 1
     7    2   21 1
     8    3    4 1
     9    4    9 ar
    10    4    5 ar
    11    5    6 ar
    12    5   22 1
    13    6    7 ar
    14    6   23 1
    15    7   12 1
    16    7    8 ar
    17    8    9 ar
    18    8   10 1
    19    9   24 1
    20   10   11 1
    21   11   12 2
    22   11   13 1
    23   13   14 2
    24   13   15 2
    25   13   16 1
    26   16   25 1
    27   16   26 1
@<TRIPOS>MOLECULE
ZINC12503151
   23    23     0     0     0
SMALL
NO_CHARGES

@<TRIPOS>ATOM
      1 C1         -0.3789    1.0705    0.3515 C.3       1 <0>        -0.1347
      2 C2          0.5076   -0.1196    0.0888 C.2       1 <0>         0.4551
      3 O1          1.3641   -0.4298    0.8951 O.3       1 <0>        -0.3923
      4 N1          0.3540   -0.8288   -1.0216 N.2       1 <0>        -0.6178
      5 C3         -0.0468   -2.1007   -0.9514 C.2       1 <0>         0.3126
      6 N2         -0.4722   -2.7924    0.1303 N.pl3     1 <0>        -0.4005
      7 N3         -0.8397   -4.1105   -0.0380 N.pl3     1 <0>        -0.2827
      8 C4         -0.7560   -4.6173   -1.2349 C.2       1 <0>        -0.3295
      9 S1         -0.1544   -3.2357   -2.1872 S.3       1 <0>         0.3047
     10 S2         -1.1447   -6.2486   -1.7756 S.o2      1 <0>         2.5478
     11 O2         -0.0915   -6.6516   -2.6403 O.2       1 <0>        -0.9992
     12 O3         -1.5023   -6.9867   -0.6152 O.2       1 <0>        -1.0188
     13 N4         -2.5089   -6.1432   -2.7085 N.2       1 <0>        -1.2921
     14 C5         -0.5404   -2.1568    1.4485 C.3       1 <0>        -0.0096
     15 H1          0.0812    1.9657   -0.0669 H         1 <0>         0.1260
     16 H2         -1.3508    0.9096   -0.1151 H         1 <0>         0.1164
     17 H3         -0.5083    1.1970    1.4263 H         1 <0>         0.1126
     18 H4         -2.8882   -6.9430   -3.1051 H         1 <0>         0.3463
     19 H5         -0.8348   -1.1136    1.3340 H         1 <0>         0.0956
     20 H6         -1.2744   -2.6760    2.0647 H         1 <0>         0.1123
     21 H7          0.4374   -2.2079    1.9275 H         1 <0>         0.0918
     22 H8         -1.1502   -4.6433    0.7107 H         1 <0>         0.4270
     23 H9          1.8975   -1.1912    0.6290 H         1 <0>         0.4290
@<TRIPOS>BOND
     1    1    2 1
     2    1   15 1
     3    1   16 1
     4    1   17 1
     5    2    3 2
     6    2    4 1
     7    3   23 1
     8    4    5 2
     9    5    9 1
    10    5    6 1
    11    6    7 1
    12    6   14 1
    13    7    8 2
    14    7   22 1
    15    8    9 1
    16    8   10 1
    17   10   11 2
    18   10   12 2
    19   10   13 1
    20   13   18 1
    21   14   19 1
    22   14   20 1
    23   14   21 1
@<TRIPOS>MOLECULE
ZINC12503151
   23    23     0     0     0
SMALL
NO_CHARGES

@<TRIPOS>ATOM
      1 C1         -1.1346    0.9241    0.3407 C.3       1 <0>        -0.1307
      2 C2          0.0031   -0.0044    0.0020 C.2       1 <0>         0.4894
      3 O1          0.9224   -0.1509    0.7852 O.3       1 <0>        -0.3736
      4 N1          0.0020   -0.6621   -1.1500 N.2       1 <0>        -0.6464
      5 C3         -0.0802   -1.9949   -1.1578 C.2       1 <0>         0.3469
      6 N2          0.0027   -2.8388   -2.2117 N.pl3     1 <0>        -0.3538
      7 N3         -0.1119   -4.1925   -1.9774 N.pl3     1 <0>        -0.2782
      8 C4         -0.2944   -4.5840   -0.7486 C.2       1 <0>        -0.3302
      9 S1         -0.3048   -3.0391    0.1407 S.3       1 <0>         0.0989
     10 S2         -0.4768   -6.2215   -0.1244 S.o2      1 <0>         2.5579
     11 O2         -1.5476   -6.1834    0.8090 O.2       1 <0>        -1.0001
     12 O3         -0.4786   -7.0877   -1.2508 O.2       1 <0>        -1.0219
     13 N4          0.8919   -6.5715    0.7396 N.2       1 <0>        -1.2976
     14 C5          0.2086   -2.3268   -3.5688 C.3       1 <0>         0.0360
     15 H1         -0.9060    1.9262   -0.0224 H         1 <0>         0.1254
     16 H2         -2.0490    0.5661   -0.1324 H         1 <0>         0.1183
     17 H3         -1.2715    0.9518    1.4217 H         1 <0>         0.1209
     18 H4          0.9868   -7.4364    1.1685 H         1 <0>         0.3466
     19 H5          1.2771   -2.2630   -3.7748 H         1 <0>         0.0931
     20 H6         -0.2601   -3.0003   -4.2862 H         1 <0>         0.0994
     21 H7         -0.2378   -1.3362   -3.6550 H         1 <0>         0.1167
     22 H8         -0.0588   -4.8327   -2.7042 H         1 <0>         0.4514
     23 H9          1.5651   -0.8215    0.5163 H         1 <0>         0.4315
@<TRIPOS>BOND
     1    1    2 1
     2    1   15 1
     3    1   16 1
     4    1   17 1
     5    2    3 2
     6    2    4 1
     7    3   23 1
     8    4    5 2
     9    5    9 1
    10    5    6 1
    11    6    7 1
    12    6   14 1
    13    7    8 2
    14    7   22 1
    15    8    9 1
    16    8   10 1
    17   10   11 2
    18   10   12 2
    19   10   13 1
    20   13   18 1
    21   14   19 1
    22   14   20 1
    23   14   21 1
@<TRIPOS>MOLECULE
ZINC03813042
   19    19     0     0     0
SMALL
USER_CHARGES

@<TRIPOS>ATOM
      1 C1         -0.0184    1.5028    0.0103 C.3       1 <0>        -0.1669
      2 C2          0.0021   -0.0041    0.0020 C.2       1 <0>         0.5048
      3 O1          1.0605   -0.5961   -0.0113 O.2       1 <0>        -0.4597
      4 N1         -1.1558   -0.6938    0.0094 N.am      1 <0>        -0.6127
      5 C3         -1.1370   -2.0844    0.0017 C.2       1 <0>         0.2593
      6 N2         -0.1026   -2.9019   -0.0067 N.2       1 <0>        -0.3105
      7 N3         -0.2439   -4.1575   -0.0130 N.2       1 <0>        -0.1075
      8 C4         -1.4599   -4.6659   -0.0111 C.2       1 <0>        -0.5832
      9 S1         -2.4308   -3.1653    0.0083 S.3       1 <0>         0.2359
     10 S2         -1.9811   -6.3490   -0.0183 S.o2      1 <0>         2.7480
     11 O2         -1.9574   -6.7873    1.3333 O.2       1 <0>        -0.9356
     12 O3         -3.1545   -6.4075   -0.8177 O.2       1 <0>        -0.9350
     13 N4         -0.8199   -7.2178   -0.8179 N.pl3     1 <0>        -1.2313
     14 H1          1.0042    1.8801    0.0026 H         1 <0>         0.1076
     15 H2         -0.5455    1.8639   -0.8728 H         1 <0>         0.1002
     16 H3         -0.5286    1.8543    0.9071 H         1 <0>         0.1002
     17 H4         -2.0023   -0.2203    0.0200 H         1 <0>         0.4348
     18 H5         -0.6611   -8.1456   -0.5837 H         1 <0>         0.4284
     19 H6         -0.2986   -6.7988   -1.5204 H         1 <0>         0.4232
@<TRIPOS>BOND
     1    1    2 1
     2    1   14 1
     3    1   15 1
     4    1   16 1
     5    2    3 2
     6    2    4 am
     7    4    5 1
     8    4   17 1
     9    5    9 1
    10    5    6 2
    11    6    7 1
    12    7    8 2
    13    8    9 1
    14    8   10 1
    15   10   11 2
    16   10   12 2
    17   10   13 1
    18   13   18 1
    19   13   19 1
@<TRIPOS>MOLECULE
ZINC03813042
   18    18     0     0     0
SMALL
USER_CHARGES

@<TRIPOS>ATOM
      1 C1         -0.0184    1.5028    0.0103 C.3       1 <0>        -0.1624
      2 C2          0.0021   -0.0041    0.0020 C.2       1 <0>         0.5010
      3 O1          0.0203   -0.6161    1.0490 O.2       1 <0>        -0.4698
      4 N1          0.0001   -0.6716   -1.1688 N.am      1 <0>        -0.6150
      5 C3          0.0189   -2.0622   -1.1765 C.2       1 <0>         0.2229
      6 N2          0.0342   -2.8992   -0.1578 N.2       1 <0>        -0.3133
      7 N3          0.0506   -4.1518   -0.3231 N.2       1 <0>        -0.1306
      8 C4          0.0525   -4.6369   -1.5486 C.2       1 <0>        -0.4261
      9 S1          0.0209   -3.1183   -2.4906 S.3       1 <0>         0.1375
     10 S2          0.0731   -6.3097   -2.1017 S.o2      1 <0>         2.6009
     11 O2         -1.2748   -6.7592   -2.0864 O.2       1 <0>        -1.0365
     12 O3          0.8728   -6.3393   -3.2760 O.2       1 <0>        -1.0415
     13 N4          0.8799   -7.1939   -0.9573 N.2       1 <0>        -1.3126
     14 H1          1.0042    1.8801    0.0026 H         1 <0>         0.1013
     15 H2         -0.5455    1.8639   -0.8728 H         1 <0>         0.0851
     16 H3         -0.5286    1.8543    0.9071 H         1 <0>         0.1022
     17 H4         -0.0145   -0.1822   -2.0061 H         1 <0>         0.4269
     18 H5          0.9999   -8.1489   -1.0779 H         1 <0>         0.3298
@<TRIPOS>BOND
     1    1    2 1
     2    1   14 1
     3    1   15 1
     4    1   16 1
     5    2    3 2
     6    2    4 am
     7    4    5 1
     8    4   17 1
     9    5    9 1
    10    5    6 2
    11    6    7 1
    12    7    8 2
    13    8    9 1
    14    8   10 1
    15   10   11 2
    16   10   12 2
    17   10   13 1
    18   13   18 1
@<TRIPOS>MOLECULE
ZINC00002101
   19    19     0     0     0
SMALL
USER_CHARGES

@<TRIPOS>ATOM
      1 C1         -0.0168    1.3849    0.0097 C.ar      1 <0>        -0.2192
      2 C2          1.1707    2.0901    0.0021 C.ar      1 <0>         0.0295
      3 C3          2.3774    1.4150   -0.0135 C.ar      1 <0>        -0.7336
      4 C4          2.3998    0.0323   -0.0211 C.ar      1 <0>         0.0295
      5 C5          1.2161   -0.6790   -0.0137 C.ar      1 <0>        -0.2192
      6 C6          0.0021   -0.0041    0.0020 C.ar      1 <0>         0.2713
      7 N1         -1.1970   -0.7204    0.0101 N.pl3     1 <0>        -0.8647
      8 S1          3.8900    2.3186   -0.0243 S.o2      1 <0>         2.7050
      9 O1          4.8717    1.4606   -0.5894 O.2       1 <0>        -0.9693
     10 O2          3.5945    3.5988   -0.5657 O.2       1 <0>        -0.9693
     11 N2          4.3264    2.5618    1.5546 N.pl3     1 <0>        -1.2522
     12 H1         -0.9589    1.9127    0.0260 H         1 <0>         0.1318
     13 H2          1.1567    3.1700    0.0080 H         1 <0>         0.1423
     14 H3          3.3440   -0.4918   -0.0333 H         1 <0>         0.1423
     15 H4          1.2342   -1.7588   -0.0200 H         1 <0>         0.1318
     16 H5         -2.0441   -0.2480    0.0210 H         1 <0>         0.4043
     17 H6         -1.1825   -1.6903    0.0047 H         1 <0>         0.4042
     18 H7          3.7678    2.2202    2.2703 H         1 <0>         0.4159
     19 H8          5.1405    3.0458    1.7638 H         1 <0>         0.4195
@<TRIPOS>BOND
     1    1    6 ar
     2    1    2 ar
     3    1   12 1
     4    2    3 ar
     5    2   13 1
     6    3    4 ar
     7    3    8 1
     8    4    5 ar
     9    4   14 1
    10    5    6 ar
    11    5   15 1
    12    6    7 1
    13    7   16 1
    14    7   17 1
    15    8    9 2
    16    8   10 2
    17    8   11 1
    18   11   18 1
    19   11   19 1
@<TRIPOS>MOLECULE
ZINC01530621
   36    37     0     0     0
SMALL
USER_CHARGES

@<TRIPOS>ATOM
      1 C1         -0.1492    1.5288   -2.3323 C.3       1 <0>        -0.1908
      2 C2         -0.1164   -0.0009   -2.3383 C.3       1 <0>        -0.0181
      3 N1          0.6897   -0.4778   -1.2066 N.4       1 <0>        -0.5107
      4 C3          0.6171   -1.9434   -1.1370 C.3       1 <0>         0.0811
      5 H1         -0.4294   -2.2430   -1.0818 H         1 <0>         0.1707
      6 C4          1.2315   -2.5278   -2.3982 C.3       1 <0>        -0.1422
      7 C5          1.0962   -4.0576   -2.4201 C.3       1 <0>        -0.5404
      8 H2          1.3613   -4.4411   -3.4054 H         1 <0>         0.1747
      9 S1          2.2539   -4.7069   -1.1650 S.o2      1 <0>         2.5047
     10 O1          3.5991   -4.5241   -1.5850 O.2       1 <0>        -0.8957
     11 O2          1.8041   -5.9618   -0.6729 O.2       1 <0>        -0.8922
     12 C6          2.0269   -3.5802    0.1606 C.2       1 <0>        -0.7063
     13 C7          1.3317   -2.4135    0.1206 C.2       1 <0>        -0.0916
     14 C8          1.3152   -1.6792    1.3120 C.2       1 <0>        -0.0530
     15 C9          1.9529   -2.1428    2.4103 C.2       1 <0>        -0.7342
     16 S2          2.6320   -3.6831    1.8188 S.3       1 <0>         0.4502
     17 S3          2.0784   -1.4167    4.0108 S.o2      1 <0>         2.7294
     18 O3          3.2503   -1.9529    4.6093 O.2       1 <0>        -0.9323
     19 O4          1.8813   -0.0198    3.8397 O.2       1 <0>        -0.9386
     20 N2          0.7966   -1.9699    4.9014 N.pl3     1 <0>        -1.2425
     21 C10        -0.3376   -4.4611   -2.0706 C.3       1 <0>        -0.1547
     22 H3         -0.5902    1.8790   -1.3990 H         1 <0>         0.0836
     23 H4          0.8664    1.9144   -2.4215 H         1 <0>         0.0841
     24 H5         -0.7473    1.8826   -3.1720 H         1 <0>         0.1120
     25 H6         -1.1320   -0.3865   -2.2491 H         1 <0>         0.1372
     26 H7          0.3246   -0.3511   -3.2716 H         1 <0>         0.1380
     27 H8          1.6496   -0.1943   -1.3342 H         1 <0>         0.4338
     28 H9          0.7251   -2.1113   -3.2689 H         1 <0>         0.1303
     29 H10         2.2877   -2.2615   -2.4382 H         1 <0>         0.1132
     30 H11         0.7901   -0.7364    1.3541 H         1 <0>         0.1546
     31 H12         0.1572   -2.5812    4.5032 H         1 <0>         0.4194
     32 H13         0.6850   -1.6827    5.8211 H         1 <0>         0.4322
     33 H14        -1.0243   -4.0299   -2.7990 H         1 <0>         0.0942
     34 H15        -0.4240   -5.5475   -2.0887 H         1 <0>         0.0985
     35 H16        -0.5861   -4.0934   -1.0750 H         1 <0>         0.0698
     36 H17         0.3332   -0.0823   -0.3495 H         1 <0>         0.4317
@<TRIPOS>BOND
     1    1    2 1
     2    1   22 1
     3    1   23 1
     4    1   24 1
     5    2    3 1
     6    2   25 1
     7    2   26 1
     8    3    4 1
     9    3   27 1
    10    3   36 1
    11    4    5 1
    12    4   13 1
    13    4    6 1
    14    6    7 1
    15    6   28 1
    16    6   29 1
    17    7    8 1
    18    7    9 1
    19    7   21 1
    20    9   10 2
    21    9   11 2
    22    9   12 1
    23   12   16 1
    24   12   13 2
    25   13   14 1
    26   14   15 2
    27   14   30 1
    28   15   16 1
    29   15   17 1
    30   17   18 2
    31   17   19 2
    32   17   20 1
    33   20   31 1
    34   20   32 1
    35   21   33 1
    36   21   34 1
    37   21   35 1
@<TRIPOS>MOLECULE
ZINC01530621
   35    36     0     0     0
SMALL
USER_CHARGES

@<TRIPOS>ATOM
      1 C1         -0.1492    1.5288   -2.3323 C.3       1 <0>        -0.1899
      2 C2         -0.1164   -0.0009   -2.3383 C.3       1 <0>        -0.0168
      3 N1          0.6897   -0.4778   -1.2066 N.4       1 <0>        -0.5101
      4 C3          0.6171   -1.9434   -1.1370 C.3       1 <0>         0.0836
      5 H1         -0.4294   -2.2430   -1.0818 H         1 <0>         0.1646
      6 C4          1.2315   -2.5278   -2.3982 C.3       1 <0>        -0.1369
      7 C5          1.0962   -4.0576   -2.4201 C.3       1 <0>        -0.5464
      8 H2          1.3613   -4.4411   -3.4054 H         1 <0>         0.1665
      9 S1          2.2539   -4.7069   -1.1650 S.o2      1 <0>         2.5192
     10 O1          3.5991   -4.5241   -1.5850 O.2       1 <0>        -0.9107
     11 O2          1.8041   -5.9618   -0.6729 O.2       1 <0>        -0.9035
     12 C6          2.0269   -3.5802    0.1606 C.2       1 <0>        -0.7471
     13 C7          1.3317   -2.4135    0.1206 C.2       1 <0>        -0.0802
     14 C8          1.3152   -1.6792    1.3120 C.2       1 <0>        -0.1090
     15 C9          1.9529   -2.1428    2.4103 C.2       1 <0>        -0.5881
     16 S2          2.6320   -3.6831    1.8188 S.3       1 <0>         0.3963
     17 S3          2.0784   -1.4167    4.0108 S.o2      1 <0>         2.5827
     18 O3          3.2503   -1.9529    4.6093 O.2       1 <0>        -1.0359
     19 O4          1.8813   -0.0198    3.8397 O.2       1 <0>        -1.0427
     20 N2          0.7966   -1.9699    4.9014 N.2       1 <0>        -1.3223
     21 C10        -0.3376   -4.4611   -2.0706 C.3       1 <0>        -0.1530
     22 H3         -0.5902    1.8790   -1.3990 H         1 <0>         0.0843
     23 H4          0.8664    1.9144   -2.4215 H         1 <0>         0.0823
     24 H5         -0.7473    1.8826   -3.1720 H         1 <0>         0.1074
     25 H6         -1.1320   -0.3865   -2.2491 H         1 <0>         0.1347
     26 H7          0.3246   -0.3511   -3.2716 H         1 <0>         0.1340
     27 H8          1.6496   -0.1943   -1.3342 H         1 <0>         0.4317
     28 H9          0.7251   -2.1113   -3.2689 H         1 <0>         0.1221
     29 H10         2.2877   -2.2615   -2.4382 H         1 <0>         0.1096
     30 H11         0.7901   -0.7364    1.3541 H         1 <0>         0.1443
     31 H12         0.6850   -1.6827    5.8211 H         1 <0>         0.3366
     32 H13        -1.0243   -4.0299   -2.7990 H         1 <0>         0.0883
     33 H14        -0.4240   -5.5475   -2.0887 H         1 <0>         0.0947
     34 H15        -0.5861   -4.0934   -1.0750 H         1 <0>         0.0739
     35 H16         0.3332   -0.0823   -0.3495 H         1 <0>         0.4358
@<TRIPOS>BOND
     1    1    2 1
     2    1   22 1
     3    1   23 1
     4    1   24 1
     5    2    3 1
     6    2   25 1
     7    2   26 1
     8    3    4 1
     9    3   27 1
    10    3   35 1
    11    4    5 1
    12    4   13 1
    13    4    6 1
    14    6    7 1
    15    6   28 1
    16    6   29 1
    17    7    8 1
    18    7    9 1
    19    7   21 1
    20    9   10 2
    21    9   11 2
    22    9   12 1
    23   12   16 1
    24   12   13 2
    25   13   14 1
    26   14   15 2
    27   14   30 1
    28   15   16 1
    29   15   17 1
    30   17   18 2
    31   17   19 2
    32   17   20 1
    33   20   31 1
    34   21   32 1
    35   21   33 1
    36   21   34 1
@<TRIPOS>MOLECULE
ZINC01530804
   42    44     0     0     0
SMALL
USER_CHARGES

@<TRIPOS>ATOM
      1 C1         -0.1414    1.1782    1.1025 C.3       1 <0>        -0.1657
      2 C2         -0.0047   -0.3406    0.9788 C.3       1 <0>         0.2393
      3 O1          0.4336   -0.6809   -0.3520 O.3       1 <0>        -0.3486
      4 C3          1.8586   -0.8253   -0.2194 C.3       1 <0>         0.0180
      5 H1          2.3279    0.1582   -0.1959 H         1 <0>         0.0955
      6 C4          2.4671   -1.6561   -1.3282 C.3       1 <0>         0.0615
      7 O2          1.9135   -2.9701   -1.3154 O.3       1 <0>        -0.3068
      8 C5          2.1315   -3.6952   -0.1268 C.3       1 <0>         0.2582
      9 C6          1.5886   -2.9749    1.1170 C.3       1 <0>         0.0223
     10 H2          0.5124   -3.1112    1.2238 H         1 <0>         0.1391
     11 C7          1.9968   -1.5000    1.1552 C.3       1 <0>         0.0492
     12 H3          2.9929   -1.3657    1.5768 H         1 <0>         0.1317
     13 O3          0.9684   -0.8158    1.9209 O.3       1 <0>        -0.3662
     14 O4          2.3254   -3.6306    2.1835 O.3       1 <0>        -0.3622
     15 C8          3.5307   -4.1478    1.6005 C.3       1 <0>         0.2431
     16 O5          3.5253   -3.8561    0.1888 O.3       1 <0>        -0.3666
     17 C9          4.7443   -3.4871    2.2574 C.3       1 <0>        -0.1505
     18 C10         3.5958   -5.6617    1.8124 C.3       1 <0>        -0.1864
     19 C11         1.4685   -5.0698   -0.2356 C.3       1 <0>         0.0825
     20 O6          2.1389   -5.8445   -1.2317 O.3       1 <0>        -0.7265
     21 S1          1.5597   -7.2386   -1.4254 S.o2      1 <0>         2.6826
     22 O7          2.4548   -7.9350   -2.2815 O.2       1 <0>        -1.0652
     23 O8          1.2135   -7.7177   -0.1332 O.2       1 <0>        -1.0999
     24 N1          0.1411   -7.0674   -2.2625 N.2       1 <0>        -1.3687
     25 C12        -1.3558   -1.0027    1.2569 C.3       1 <0>        -0.1582
     26 H4          0.8207    1.6475    0.8968 H         1 <0>         0.0616
     27 H5         -0.8808    1.5361    0.3860 H         1 <0>         0.0773
     28 H6         -0.4614    1.4331    2.1128 H         1 <0>         0.0749
     29 H7          2.2585   -1.1852   -2.2889 H         1 <0>         0.1202
     30 H8          3.5458   -1.7168   -1.1842 H         1 <0>         0.0862
     31 H9          4.7535   -3.7210    3.3219 H         1 <0>         0.0808
     32 H10         5.6571   -3.8626    1.7950 H         1 <0>         0.0792
     33 H11         4.6869   -2.4069    2.1231 H         1 <0>         0.0625
     34 H12         2.5933   -6.0827    1.7363 H         1 <0>         0.0832
     35 H13         4.2360   -6.1079    1.0514 H         1 <0>         0.0832
     36 H14         4.0046   -5.8730    2.8005 H         1 <0>         0.0768
     37 H15         1.5314   -5.5806    0.7253 H         1 <0>         0.1099
     38 H16         0.4218   -4.9473   -0.5141 H         1 <0>         0.1013
     39 H17        -0.3863   -7.8495   -2.4881 H         1 <0>         0.3260
     40 H18        -2.0938   -0.6361    0.5434 H         1 <0>         0.0779
     41 H19        -1.2583   -2.0836    1.1559 H         1 <0>         0.0696
     42 H20        -1.6777   -0.7600    2.2696 H         1 <0>         0.0781
@<TRIPOS>BOND
     1    1    2 1
     2    1   26 1
     3    1   27 1
     4    1   28 1
     5    2   13 1
     6    2    3 1
     7    2   25 1
     8    3    4 1
     9    4    5 1
    10    4   11 1
    11    4    6 1
    12    6    7 1
    13    6   29 1
    14    6   30 1
    15    7    8 1
    16    8   16 1
    17    8    9 1
    18    8   19 1
    19    9   10 1
    20    9   11 1
    21    9   14 1
    22   11   12 1
    23   11   13 1
    24   14   15 1
    25   15   16 1
    26   15   17 1
    27   15   18 1
    28   17   31 1
    29   17   32 1
    30   17   33 1
    31   18   34 1
    32   18   35 1
    33   18   36 1
    34   19   20 1
    35   19   37 1
    36   19   38 1
    37   20   21 1
    38   21   22 2
    39   21   23 2
    40   21   24 1
    41   24   39 1
    42   25   40 1
    43   25   41 1
    44   25   42 1
@<TRIPOS>MOLECULE
ZINC01530804
   43    45     0     0     0
SMALL
USER_CHARGES

@<TRIPOS>ATOM
      1 C1         -0.1414    1.1782    1.1025 C.3       1 <0>        -0.1689
      2 C2         -0.0047   -0.3406    0.9788 C.3       1 <0>         0.2400
      3 O1          0.4336   -0.6809   -0.3520 O.3       1 <0>        -0.3516
      4 C3          1.8586   -0.8253   -0.2194 C.3       1 <0>         0.0156
      5 H1          2.3279    0.1582   -0.1959 H         1 <0>         0.1022
      6 C4          2.4671   -1.6561   -1.3282 C.3       1 <0>         0.0660
      7 O2          1.9135   -2.9701   -1.3154 O.3       1 <0>        -0.3195
      8 C5          2.1315   -3.6952   -0.1268 C.3       1 <0>         0.2579
      9 C6          1.5886   -2.9749    1.1170 C.3       1 <0>         0.0224
     10 H2          0.5124   -3.1112    1.2238 H         1 <0>         0.1406
     11 C7          1.9968   -1.5000    1.1552 C.3       1 <0>         0.0483
     12 H3          2.9929   -1.3657    1.5768 H         1 <0>         0.1355
     13 O3          0.9684   -0.8158    1.9209 O.3       1 <0>        -0.3615
     14 O4          2.3254   -3.6306    2.1835 O.3       1 <0>        -0.3573
     15 C8          3.5307   -4.1478    1.6005 C.3       1 <0>         0.2406
     16 O5          3.5253   -3.8561    0.1888 O.3       1 <0>        -0.3608
     17 C9          4.7443   -3.4871    2.2574 C.3       1 <0>        -0.1549
     18 C10         3.5958   -5.6617    1.8124 C.3       1 <0>        -0.1875
     19 C11         1.4685   -5.0698   -0.2356 C.3       1 <0>         0.0540
     20 O6          2.1389   -5.8445   -1.2317 O.3       1 <0>        -0.7190
     21 S1          1.5597   -7.2386   -1.4254 S.o2      1 <0>         2.7922
     22 O7          2.4548   -7.9350   -2.2815 O.2       1 <0>        -0.9521
     23 O8          1.2135   -7.7177   -0.1332 O.2       1 <0>        -0.9902
     24 N1          0.1411   -7.0674   -2.2625 N.pl3     1 <0>        -1.2682
     25 C12        -1.3558   -1.0027    1.2569 C.3       1 <0>        -0.1570
     26 H4          0.8207    1.6475    0.8968 H         1 <0>         0.0640
     27 H5         -0.8808    1.5361    0.3860 H         1 <0>         0.0795
     28 H6         -0.4614    1.4331    2.1128 H         1 <0>         0.0783
     29 H7          2.2585   -1.1852   -2.2889 H         1 <0>         0.1264
     30 H8          3.5458   -1.7168   -1.1842 H         1 <0>         0.0924
     31 H9          4.7535   -3.7210    3.3219 H         1 <0>         0.0862
     32 H10         5.6571   -3.8626    1.7950 H         1 <0>         0.0829
     33 H11         4.6869   -2.4069    2.1231 H         1 <0>         0.0666
     34 H12         2.5933   -6.0827    1.7363 H         1 <0>         0.0754
     35 H13         4.2360   -6.1079    1.0514 H         1 <0>         0.0857
     36 H14         4.0046   -5.8730    2.8005 H         1 <0>         0.0871
     37 H15         1.5314   -5.5806    0.7253 H         1 <0>         0.1339
     38 H16         0.4218   -4.9473   -0.5141 H         1 <0>         0.1071
     39 H17        -0.1624   -6.1849   -2.5271 H         1 <0>         0.4163
     40 H18        -2.0938   -0.6361    0.5434 H         1 <0>         0.0797
     41 H19        -1.2583   -2.0836    1.1559 H         1 <0>         0.0641
     42 H20        -1.6777   -0.7600    2.2696 H         1 <0>         0.0821
     43 H21        -0.3863   -7.8495   -2.4881 H         1 <0>         0.4258
@<TRIPOS>BOND
     1    1    2 1
     2    1   26 1
     3    1   27 1
     4    1   28 1
     5    2   13 1
     6    2    3 1
     7    2   25 1
     8    3    4 1
     9    4    5 1
    10    4   11 1
    11    4    6 1
    12    6    7 1
    13    6   29 1
    14    6   30 1
    15    7    8 1
    16    8   16 1
    17    8    9 1
    18    8   19 1
    19    9   10 1
    20    9   11 1
    21    9   14 1
    22   11   12 1
    23   11   13 1
    24   14   15 1
    25   15   16 1
    26   15   17 1
    27   15   18 1
    28   17   31 1
    29   17   32 1
    30   17   33 1
    31   18   34 1
    32   18   35 1
    33   18   36 1
    34   19   20 1
    35   19   37 1
    36   19   38 1
    37   20   21 1
    38   21   22 2
    39   21   23 2
    40   21   24 1
    41   24   39 1
    42   24   43 1
    43   25   40 1
    44   25   41 1
    45   25   42 1
@<TRIPOS>MOLECULE
ZINC06344454
   39    40     0     0     0
SMALL
USER_CHARGES

@<TRIPOS>ATOM
      1 C1         -0.0153    1.3805    0.0311 C.ar      1 <0>        -0.1366
      2 C2          0.1397    0.2186    0.7646 C.ar      1 <0>        -0.0999
      3 C3          1.3441   -0.4572    0.7442 C.ar      1 <0>        -0.1211
      4 C4          2.3999    0.0314   -0.0139 C.ar      1 <0>         0.1626
      5 C5          2.2411    1.1985   -0.7495 C.ar      1 <0>        -0.1486
      6 C6          1.0342    1.8696   -0.7249 C.ar      1 <0>        -0.0998
      7 N1          3.6217   -0.6508   -0.0363 N.am      1 <0>        -0.6863
      8 C7          3.6448   -1.9950    0.0580 C.2       1 <0>         0.7038
      9 O1          2.6030   -2.6219    0.0652 O.2       1 <0>        -0.5685
     10 N2          4.8227   -2.6444    0.1444 N.am      1 <0>        -0.7429
     11 C8          4.8478   -4.1055    0.2469 C.3       1 <0>         0.1432
     12 C9          6.2979   -4.5860    0.3311 C.3       1 <0>        -0.1020
     13 C10         6.3238   -6.0891    0.4366 C.ar      1 <0>        -0.0225
     14 C11         6.2881   -6.6956    1.6783 C.ar      1 <0>        -0.1341
     15 C12         6.3118   -8.0743    1.7751 C.ar      1 <0>        -0.0150
     16 C13         6.3707   -8.8466    0.6301 C.ar      1 <0>        -0.6766
     17 C14         6.4054   -8.2402   -0.6116 C.ar      1 <0>        -0.0149
     18 C15         6.3774   -6.8615   -0.7085 C.ar      1 <0>        -0.1342
     19 S1          6.4021  -10.6040    0.7535 S.o2      1 <0>         2.7013
     20 O2          7.0081  -11.0841   -0.4388 O.2       1 <0>        -0.9625
     21 O3          6.9112  -10.9115    2.0441 O.2       1 <0>        -0.9625
     22 N3          4.8303  -11.1248    0.7284 N.pl3     1 <0>        -1.2497
     23 H1         -0.9595    1.9047    0.0451 H         1 <0>         0.1237
     24 H2         -0.6817   -0.1607    1.3543 H         1 <0>         0.1257
     25 H3          1.4646   -1.3645    1.3176 H         1 <0>         0.1347
     26 H4          3.0605    1.5812   -1.3398 H         1 <0>         0.1244
     27 H5          0.9101    2.7774   -1.2967 H         1 <0>         0.1266
     28 H6          4.4519   -0.1561   -0.1198 H         1 <0>         0.4072
     29 H7          5.6538   -2.1442    0.1387 H         1 <0>         0.3994
     30 H8          4.3095   -4.4162    1.1424 H         1 <0>         0.0733
     31 H9          4.3716   -4.5397   -0.6322 H         1 <0>         0.0731
     32 H10         6.8362   -4.2754   -0.5643 H         1 <0>         0.0882
     33 H11         6.7741   -4.1519    1.2103 H         1 <0>         0.0884
     34 H12         6.2421   -6.0922    2.5729 H         1 <0>         0.1363
     35 H13         6.2847   -8.5481    2.7453 H         1 <0>         0.1453
     36 H14         6.4517   -8.8436   -1.5061 H         1 <0>         0.1453
     37 H15         6.4007   -6.3878   -1.6788 H         1 <0>         0.1362
     38 H16         4.1075  -10.4820    0.6555 H         1 <0>         0.4172
     39 H17         4.6324  -12.0726    0.7866 H         1 <0>         0.4219
@<TRIPOS>BOND
     1    1    6 ar
     2    1    2 ar
     3    1   23 1
     4    2    3 ar
     5    2   24 1
     6    3    4 ar
     7    3   25 1
     8    4    5 ar
     9    4    7 1
    10    5    6 ar
    11    5   26 1
    12    6   27 1
    13    7    8 am
    14    7   28 1
    15    8    9 2
    16    8   10 am
    17   10   11 1
    18   10   29 1
    19   11   12 1
    20   11   30 1
    21   11   31 1
    22   12   13 1
    23   12   32 1
    24   12   33 1
    25   13   18 ar
    26   13   14 ar
    27   14   15 ar
    28   14   34 1
    29   15   16 ar
    30   15   35 1
    31   16   17 ar
    32   16   19 1
    33   17   18 ar
    34   17   36 1
    35   18   37 1
    36   19   20 2
    37   19   21 2
    38   19   22 1
    39   22   38 1
    40   22   39 1
@<TRIPOS>MOLECULE
ZINC01689018
   36    36     0     0     0
SMALL
USER_CHARGES

@<TRIPOS>ATOM
      1 C1         -0.0325    1.5260    0.0019 C.3       1 <0>        -0.1543
      2 C2         -0.0042   -0.0037   -0.0021 C.3       1 <0>        -0.1260
      3 C3          0.7084   -0.4973   -1.2628 C.3       1 <0>        -0.1208
      4 C4          0.7366   -2.0271   -1.2668 C.3       1 <0>        -0.1071
      5 C5          1.4493   -2.5207   -2.5276 C.3       1 <0>        -0.1393
      6 C6          1.4771   -4.0274   -2.5315 C.2       1 <0>         0.5136
      7 O1          0.9763   -4.6456   -1.6160 O.2       1 <0>        -0.5108
      8 N1          2.0585   -4.6880   -3.5523 N.am      1 <0>        -0.6801
      9 C7          2.1706   -6.0821   -3.5100 C.ar      1 <0>         0.2058
     10 C8          3.2871   -6.7072   -4.0496 C.ar      1 <0>        -0.1682
     11 C9          3.3947   -8.0834   -4.0063 C.ar      1 <0>         0.0022
     12 C10         2.3920   -8.8389   -3.4266 C.ar      1 <0>        -0.6937
     13 C11         1.2787   -8.2196   -2.8888 C.ar      1 <0>         0.0019
     14 C12         1.1681   -6.8433   -2.9234 C.ar      1 <0>        -0.1452
     15 S1          2.5330  -10.5944   -3.3734 S.o2      1 <0>         2.7037
     16 O2          1.2112  -11.1050   -3.2672 O.2       1 <0>        -0.9633
     17 O3          3.4098  -10.9636   -4.4290 O.2       1 <0>        -0.9642
     18 N2          3.3047  -10.9811   -1.9601 N.pl3     1 <0>        -1.2503
     19 H1          0.9882    1.9083   -0.0118 H         1 <0>         0.0536
     20 H2         -0.5656    1.8819   -0.8797 H         1 <0>         0.0537
     21 H3         -0.5402    1.8777    0.9000 H         1 <0>         0.0546
     22 H4          0.5289   -0.3596    0.8795 H         1 <0>         0.0623
     23 H5         -1.0249   -0.3860    0.0116 H         1 <0>         0.0624
     24 H6          0.1753   -0.1415   -2.1445 H         1 <0>         0.0634
     25 H7          1.7291   -0.1150   -1.2765 H         1 <0>         0.0632
     26 H8          1.2698   -2.3829   -0.3852 H         1 <0>         0.0715
     27 H9         -0.2840   -2.4094   -1.2532 H         1 <0>         0.0718
     28 H10         0.9161   -2.1648   -3.4092 H         1 <0>         0.1000
     29 H11         2.4699   -2.1384   -2.5412 H         1 <0>         0.0999
     30 H12         2.3994   -4.1970   -4.3163 H         1 <0>         0.4169
     31 H13         4.0704   -6.1177   -4.5029 H         1 <0>         0.1384
     32 H14         4.2626   -8.5701   -4.4261 H         1 <0>         0.1482
     33 H15         0.4972   -8.8124   -2.4370 H         1 <0>         0.1473
     34 H16         0.3007   -6.3599   -2.4986 H         1 <0>         0.1504
     35 H17         3.5815  -10.2789   -1.3508 H         1 <0>         0.4169
     36 H18         3.4799  -11.9097   -1.7416 H         1 <0>         0.4213
@<TRIPOS>BOND
     1    1    2 1
     2    1   19 1
     3    1   20 1
     4    1   21 1
     5    2    3 1
     6    2   22 1
     7    2   23 1
     8    3    4 1
     9    3   24 1
    10    3   25 1
    11    4    5 1
    12    4   26 1
    13    4   27 1
    14    5    6 1
    15    5   28 1
    16    5   29 1
    17    6    7 2
    18    6    8 am
    19    8    9 1
    20    8   30 1
    21    9   14 ar
    22    9   10 ar
    23   10   11 ar
    24   10   31 1
    25   11   12 ar
    26   11   32 1
    27   12   13 ar
    28   12   15 1
    29   13   14 ar
    30   13   33 1
    31   14   34 1
    32   15   16 2
    33   15   17 2
    34   15   18 1
    35   18   35 1
    36   18   36 1
@<TRIPOS>MOLECULE
ZINC04749745
   42    44     0     0     0
SMALL
USER_CHARGES

@<TRIPOS>ATOM
      1 C1         -0.0164    1.3611    0.0095 C.ar      1 <0>        -0.1415
      2 C2          1.1690    2.0834    0.0021 C.ar      1 <0>        -0.0486
      3 C3          2.3865    1.4353   -0.0257 C.ar      1 <0>        -0.1357
      4 C4          2.4302    0.0476   -0.0395 C.ar      1 <0>         0.1506
      5 C5          1.2287   -0.6841   -0.0031 C.ar      1 <0>        -0.1700
      6 C6          0.0021   -0.0041    0.0020 C.ar      1 <0>        -0.0405
      7 C7          1.2660   -2.1015    0.0478 C.2       1 <0>         0.0835
      8 C8          2.4936   -2.7155    0.2555 C.2       1 <0>        -0.2812
      9 C9          3.6656   -1.8409    0.4424 C.2       1 <0>         0.5269
     10 O1          4.6423   -2.2218    1.0600 O.2       1 <0>        -0.4400
     11 O2          3.6186   -0.6003   -0.0955 O.3       1 <0>        -0.2688
     12 C10         2.6201   -4.1824    0.2885 C.2       1 <0>         0.5817
     13 O3          1.6370   -4.8811    0.1319 O.2       1 <0>        -0.5341
     14 N1          3.8252   -4.7504    0.4922 N.am      1 <0>        -0.7220
     15 C11         3.9510   -6.2097    0.5250 C.3       1 <0>         0.1255
     16 C12         5.4126   -6.5902    0.7695 C.3       1 <0>        -0.1039
     17 C13         5.5420   -8.0912    0.8032 C.ar      1 <0>        -0.0214
     18 C14         5.4007   -8.7705    1.9989 C.ar      1 <0>        -0.1341
     19 C15         5.5194  -10.1474    2.0298 C.ar      1 <0>        -0.0183
     20 C16         5.7789  -10.8451    0.8651 C.ar      1 <0>        -0.6790
     21 C17         5.9193  -10.1659   -0.3308 C.ar      1 <0>        -0.0133
     22 C18         5.7964   -8.7894   -0.3624 C.ar      1 <0>        -0.1347
     23 S1          5.9314  -12.6000    0.9047 S.o2      1 <0>         2.7020
     24 O4          6.7153  -12.9652   -0.2228 O.2       1 <0>        -0.9623
     25 O5          6.2997  -12.9458    2.2329 O.2       1 <0>        -0.9602
     26 N2          4.4200  -13.2286    0.6539 N.pl3     1 <0>        -1.2479
     27 H1         -0.9615    1.8835    0.0259 H         1 <0>         0.1406
     28 H2          1.1378    3.1628    0.0179 H         1 <0>         0.1450
     29 H3          3.3033    2.0059   -0.0372 H         1 <0>         0.1484
     30 H4         -0.9248   -0.5585    0.0004 H         1 <0>         0.1454
     31 H5          0.3655   -2.6858   -0.0714 H         1 <0>         0.1676
     32 H6          4.6092   -4.1931    0.6171 H         1 <0>         0.4113
     33 H7          3.3321   -6.6097    1.3282 H         1 <0>         0.0753
     34 H8          3.6221   -6.6242   -0.4280 H         1 <0>         0.0749
     35 H9          6.0314   -6.1901   -0.0337 H         1 <0>         0.0884
     36 H10         5.7414   -6.1757    1.7224 H         1 <0>         0.0900
     37 H11         5.1979   -8.2253    2.9089 H         1 <0>         0.1361
     38 H12         5.4097  -10.6779    2.9641 H         1 <0>         0.1445
     39 H13         6.1224  -10.7110   -1.2407 H         1 <0>         0.1443
     40 H14         5.9024   -8.2592   -1.2973 H         1 <0>         0.1358
     41 H15         4.3188  -14.0890    0.2175 H         1 <0>         0.4223
     42 H16         3.6358  -12.7363    0.9433 H         1 <0>         0.4175
@<TRIPOS>BOND
     1    1    6 ar
     2    1    2 ar
     3    1   27 1
     4    2    3 ar
     5    2   28 1
     6    3    4 ar
     7    3   29 1
     8    4   11 1
     9    4    5 ar
    10    5    6 ar
    11    5    7 1
    12    6   30 1
    13    7    8 2
    14    7   31 1
    15    8    9 1
    16    8   12 1
    17    9   10 2
    18    9   11 1
    19   12   13 2
    20   12   14 am
    21   14   15 1
    22   14   32 1
    23   15   16 1
    24   15   33 1
    25   15   34 1
    26   16   17 1
    27   16   35 1
    28   16   36 1
    29   17   22 ar
    30   17   18 ar
    31   18   19 ar
    32   18   37 1
    33   19   20 ar
    34   19   38 1
    35   20   21 ar
    36   20   23 1
    37   21   22 ar
    38   21   39 1
    39   22   40 1
    40   23   24 2
    41   23   25 2
    42   23   26 1
    43   26   41 1
    44   26   42 1
@<TRIPOS>MOLECULE
ZINC00131170
   35    36     0     0     0
SMALL
USER_CHARGES

@<TRIPOS>ATOM
      1 C1         -0.0167    1.3781    0.0096 C.ar      1 <0>        -0.0610
      2 C2          1.1709    2.0855    0.0021 C.ar      1 <0>        -0.1395
      3 C3          2.3773    1.4107   -0.0130 C.ar      1 <0>        -0.0192
      4 C4          2.3960    0.0285   -0.0201 C.ar      1 <0>        -0.6791
      5 C5          1.2084   -0.6789   -0.0117 C.ar      1 <0>        -0.0237
      6 C6          0.0021   -0.0041    0.0020 C.ar      1 <0>        -0.1392
      7 S1          3.9337   -0.8316   -0.0405 S.o2      1 <0>         2.6949
      8 O1          3.6744   -2.1140   -0.5951 O.2       1 <0>        -0.9517
      9 O2          4.8903    0.0598   -0.5970 O.2       1 <0>        -0.9526
     10 N1          4.3776   -1.0785    1.5357 N.pl3     1 <0>        -1.1138
     11 C7          3.5672   -1.9420    2.3982 C.3       1 <0>         0.1491
     12 C8          4.3534   -2.2979    3.6337 C.ar      1 <0>        -0.0436
     13 C9          5.1553   -3.4238    3.6421 C.ar      1 <0>        -0.1205
     14 C10         5.8764   -3.7503    4.7754 C.ar      1 <0>        -0.0214
     15 C11         5.7959   -2.9506    5.9001 C.ar      1 <0>        -0.6709
     16 C12         4.9947   -1.8242    5.8913 C.ar      1 <0>        -0.0171
     17 C13         4.2769   -1.4954    4.7566 C.ar      1 <0>        -0.1236
     18 S2          6.7142   -3.3673    7.3450 S.o2      1 <0>         2.7013
     19 O3          6.0432   -2.7615    8.4414 O.2       1 <0>        -0.9607
     20 O4          6.9601   -4.7654    7.2807 O.2       1 <0>        -0.9580
     21 N2          8.1874   -2.6214    7.2209 N.pl3     1 <0>        -1.2475
     22 H1         -0.9591    1.9053    0.0259 H         1 <0>         0.1329
     23 H2          1.1563    3.1654    0.0076 H         1 <0>         0.1347
     24 H3          3.3051    1.9634   -0.0196 H         1 <0>         0.1408
     25 H4          1.2231   -1.7588   -0.0176 H         1 <0>         0.1410
     26 H5         -0.9258   -0.5567    0.0082 H         1 <0>         0.1349
     27 H6          5.1741   -0.6514    1.8878 H         1 <0>         0.4220
     28 H7          2.6566   -1.4166    2.6858 H         1 <0>         0.0822
     29 H8          3.3064   -2.8525    1.8587 H         1 <0>         0.0975
     30 H9          5.2182   -4.0486    2.7634 H         1 <0>         0.1404
     31 H10         6.5024   -4.6303    4.7822 H         1 <0>         0.1470
     32 H11         4.9315   -1.1996    6.7701 H         1 <0>         0.1460
     33 H12         3.6538   -0.6133    4.7485 H         1 <0>         0.1379
     34 H13         8.6608   -2.3465    8.0217 H         1 <0>         0.4229
     35 H14         8.5770   -2.4593    6.3475 H         1 <0>         0.4176
@<TRIPOS>BOND
     1    1    6 ar
     2    1    2 ar
     3    1   22 1
     4    2    3 ar
     5    2   23 1
     6    3    4 ar
     7    3   24 1
     8    4    5 ar
     9    4    7 1
    10    5    6 ar
    11    5   25 1
    12    6   26 1
    13    7    8 2
    14    7    9 2
    15    7   10 1
    16   10   11 1
    17   10   27 1
    18   11   12 1
    19   11   28 1
    20   11   29 1
    21   12   17 ar
    22   12   13 ar
    23   13   14 ar
    24   13   30 1
    25   14   15 ar
    26   14   31 1
    27   15   16 ar
    28   15   18 1
    29   16   17 ar
    30   16   32 1
    31   17   33 1
    32   18   19 2
    33   18   20 2
    34   18   21 1
    35   21   34 1
    36   21   35 1
@<TRIPOS>MOLECULE
ZINC00073524
   33    33     0     0     0
SMALL
USER_CHARGES

@<TRIPOS>ATOM
      1 C1         -0.0164    1.5256    0.0121 C.3       1 <0>        -0.1310
      2 C2          0.0080   -0.0042    0.0055 C.3       1 <0>        -0.0834
      3 C3          0.7577   -0.5077    1.2405 C.3       1 <0>        -0.1448
      4 C4         -1.4261   -0.5371    0.0271 C.3       1 <0>        -0.1437
      5 C5          0.7058   -0.4901   -1.2386 C.2       1 <0>         0.5244
      6 O1          1.1410    0.3085   -2.0410 O.2       1 <0>        -0.5089
      7 N1          0.8465   -1.8122   -1.4596 N.am      1 <0>        -0.6764
      8 C6          1.4073   -2.2653   -2.6588 C.ar      1 <0>         0.2053
      9 C7          0.9449   -3.4366   -3.2443 C.ar      1 <0>        -0.1678
     10 C8          1.5006   -3.8812   -4.4280 C.ar      1 <0>        -0.0009
     11 C9          2.5162   -3.1613   -5.0301 C.ar      1 <0>        -0.6950
     12 C10         2.9791   -1.9949   -4.4494 C.ar      1 <0>         0.0039
     13 C11         2.4234   -1.5416   -3.2690 C.ar      1 <0>        -0.1452
     14 S1          3.2224   -3.7319   -6.5402 S.o2      1 <0>         2.7041
     15 O2          4.5264   -3.1724   -6.6157 O.2       1 <0>        -0.9627
     16 O3          2.9903   -5.1329   -6.5933 O.2       1 <0>        -0.9616
     17 N2          2.3468   -3.0600   -7.7748 N.pl3     1 <0>        -1.2483
     18 H1          1.0052    1.9053   -0.0032 H         1 <0>         0.0647
     19 H2         -0.5505    1.8843   -0.8677 H         1 <0>         0.0644
     20 H3         -0.5212    1.8771    0.9120 H         1 <0>         0.0675
     21 H4          0.2530   -0.1562    2.1404 H         1 <0>         0.0756
     22 H5          0.7751   -1.5975    1.2358 H         1 <0>         0.0600
     23 H6          1.7794   -0.1280    1.2252 H         1 <0>         0.0645
     24 H7         -1.9602   -0.1785   -0.8528 H         1 <0>         0.0635
     25 H8         -1.4087   -1.6270    0.0223 H         1 <0>         0.0603
     26 H9         -1.9308   -0.1857    0.9269 H         1 <0>         0.0751
     27 H10         0.5590   -2.4496   -0.7873 H         1 <0>         0.4155
     28 H11         0.1520   -3.9994   -2.7744 H         1 <0>         0.1379
     29 H12         1.1417   -4.7922   -4.8837 H         1 <0>         0.1477
     30 H13         3.7727   -1.4351   -4.9219 H         1 <0>         0.1466
     31 H14         2.7819   -0.6278   -2.8186 H         1 <0>         0.1498
     32 H15         2.7737   -2.8706   -8.6250 H         1 <0>         0.4220
     33 H16         1.4071   -2.8559   -7.6478 H         1 <0>         0.4171
@<TRIPOS>BOND
     1    1    2 1
     2    1   18 1
     3    1   19 1
     4    1   20 1
     5    2    3 1
     6    2    4 1
     7    2    5 1
     8    3   21 1
     9    3   22 1
    10    3   23 1
    11    4   24 1
    12    4   25 1
    13    4   26 1
    14    5    6 2
    15    5    7 am
    16    7    8 1
    17    7   27 1
    18    8   13 ar
    19    8    9 ar
    20    9   10 ar
    21    9   28 1
    22   10   11 ar
    23   10   29 1
    24   11   12 ar
    25   11   14 1
    26   12   13 ar
    27   12   30 1
    28   13   31 1
    29   14   15 2
    30   14   16 2
    31   14   17 1
    32   17   32 1
    33   17   33 1
@<TRIPOS>MOLECULE
ZINC02366077
   45    46     0     0     0
SMALL
USER_CHARGES

@<TRIPOS>ATOM
      1 C1         -2.1938    1.4701    0.6085 C.3       1 <0>        -0.1743
      2 C2         -2.1691   -0.0367    0.6077 C.2       1 <0>         0.5126
      3 O1         -3.0611   -0.6581    1.1455 O.2       1 <0>        -0.5185
      4 N1         -1.1558   -0.6938    0.0094 N.am      1 <0>        -0.6796
      5 C3         -1.0812   -2.0886    0.0915 C.ar      1 <0>         0.2023
      6 C4          0.1549   -2.7155    0.1777 C.ar      1 <0>        -0.1667
      7 C5          0.2252   -4.0924    0.2586 C.ar      1 <0>         0.0024
      8 C6         -0.9337   -4.8468    0.2538 C.ar      1 <0>        -0.6956
      9 C7         -2.1662   -4.2257    0.1675 C.ar      1 <0>        -0.0019
     10 C8         -2.2435   -2.8487    0.0926 C.ar      1 <0>        -0.1437
     11 S1         -0.8398   -6.6033    0.3571 S.o2      1 <0>         2.6974
     12 O2         -2.0382   -7.1084   -0.2156 O.2       1 <0>        -0.9535
     13 O3          0.4469   -6.9700   -0.1215 O.2       1 <0>        -0.9557
     14 N2         -0.8785   -7.0020    1.9639 N.pl3     1 <0>        -1.1178
     15 C9         -2.0766   -6.7227    2.7593 C.3       1 <0>         0.1196
     16 C10        -2.0095   -7.5028    4.0738 C.3       1 <0>        -0.0967
     17 C11        -3.2420   -7.2155    4.8920 C.ar      1 <0>        -0.0259
     18 C12        -3.2497   -6.1578    5.7820 C.ar      1 <0>        -0.1349
     19 C13        -4.3802   -5.8943    6.5325 C.ar      1 <0>        -0.0187
     20 C14        -5.5032   -6.6881    6.3927 C.ar      1 <0>        -0.6785
     21 C15        -5.4958   -7.7452    5.5020 C.ar      1 <0>        -0.0129
     22 C16        -4.3668   -8.0062    4.7483 C.ar      1 <0>        -0.1346
     23 S2         -6.9439   -6.3529    7.3502 S.o2      1 <0>         2.7013
     24 O4         -7.6701   -7.5716    7.4316 O.2       1 <0>        -0.9619
     25 O5         -6.5094   -5.6464    8.5040 O.2       1 <0>        -0.9604
     26 N3         -7.8791   -5.3022    6.4762 N.pl3     1 <0>        -1.2478
     27 H1         -3.0822    1.8186    1.1352 H         1 <0>         0.1002
     28 H2         -1.3026    1.8478    1.1098 H         1 <0>         0.0947
     29 H3         -2.2144    1.8337   -0.4188 H         1 <0>         0.0949
     30 H4         -0.4782   -0.1997   -0.4782 H         1 <0>         0.4173
     31 H5          1.0605   -2.1269    0.1812 H         1 <0>         0.1377
     32 H6          1.1863   -4.5806    0.3253 H         1 <0>         0.1456
     33 H7         -3.0695   -4.8176    0.1637 H         1 <0>         0.1438
     34 H8         -3.2065   -2.3639    0.0305 H         1 <0>         0.1492
     35 H9         -0.1078   -7.4204    2.3785 H         1 <0>         0.4208
     36 H10        -2.1303   -5.6551    2.9728 H         1 <0>         0.0710
     37 H11        -2.9622   -7.0266    2.2013 H         1 <0>         0.0862
     38 H12        -1.9558   -8.5703    3.8603 H         1 <0>         0.0916
     39 H13        -1.1239   -7.1988    4.6318 H         1 <0>         0.0893
     40 H14        -2.3723   -5.5376    5.8913 H         1 <0>         0.1353
     41 H15        -4.3860   -5.0684    7.2284 H         1 <0>         0.1439
     42 H16        -6.3731   -8.3657    5.3930 H         1 <0>         0.1447
     43 H17        -4.3622   -8.8298    4.0497 H         1 <0>         0.1377
     44 H18        -8.8442   -5.3172    6.5721 H         1 <0>         0.4224
     45 H19        -7.4618   -4.6719    5.8684 H         1 <0>         0.4175
@<TRIPOS>BOND
     1    1    2 1
     2    1   27 1
     3    1   28 1
     4    1   29 1
     5    2    3 2
     6    2    4 am
     7    4    5 1
     8    4   30 1
     9    5   10 ar
    10    5    6 ar
    11    6    7 ar
    12    6   31 1
    13    7    8 ar
    14    7   32 1
    15    8    9 ar
    16    8   11 1
    17    9   10 ar
    18    9   33 1
    19   10   34 1
    20   11   12 2
    21   11   13 2
    22   11   14 1
    23   14   15 1
    24   14   35 1
    25   15   16 1
    26   15   36 1
    27   15   37 1
    28   16   17 1
    29   16   38 1
    30   16   39 1
    31   17   22 ar
    32   17   18 ar
    33   18   19 ar
    34   18   40 1
    35   19   20 ar
    36   19   41 1
    37   20   21 ar
    38   20   23 1
    39   21   22 ar
    40   21   42 1
    41   22   43 1
    42   23   24 2
    43   23   25 2
    44   23   26 1
    45   26   44 1
    46   26   45 1
@<TRIPOS>MOLECULE
ZINC05384022
   30    30     0     0     0
SMALL
USER_CHARGES

@<TRIPOS>ATOM
      1 C1         -2.1940    0.4528    0.8793 C.3       1 <0>        -0.1486
      2 C2         -1.1270    1.4735    1.2801 C.3       1 <0>        -0.1121
      3 C3         -1.7959    2.8125    1.5972 C.3       1 <0>        -0.1363
      4 C4         -0.3910    0.9787    2.4985 C.2       1 <0>         0.5178
      5 O1         -0.4004    1.6327    3.5199 O.2       1 <0>        -0.5096
      6 N1          0.2778   -0.1906    2.4531 N.am      1 <0>        -0.6781
      7 C5          1.0404   -0.6035    3.5512 C.ar      1 <0>         0.2058
      8 C6          2.2275   -1.2962    3.3530 C.ar      1 <0>        -0.1682
      9 C7          2.9779   -1.7024    4.4391 C.ar      1 <0>         0.0024
     10 C8          2.5482   -1.4201    5.7227 C.ar      1 <0>        -0.6936
     11 C9          1.3663   -0.7309    5.9235 C.ar      1 <0>         0.0020
     12 C10         0.6145   -0.3165    4.8415 C.ar      1 <0>        -0.1452
     13 S1          3.5084   -1.9401    7.1056 S.o2      1 <0>         2.7037
     14 O2          2.6164   -2.0315    8.2080 O.2       1 <0>        -0.9633
     15 O3          4.2910   -3.0415    6.6654 O.2       1 <0>        -0.9642
     16 N2          4.5678   -0.7160    7.4541 N.pl3     1 <0>        -1.2503
     17 H1         -2.8982    0.3216    1.7009 H         1 <0>         0.0643
     18 H2         -2.7263    0.8107   -0.0019 H         1 <0>         0.0751
     19 H3         -1.7175   -0.5012    0.6534 H         1 <0>         0.0598
     20 H4         -0.4228    1.6047    0.4585 H         1 <0>         0.1038
     21 H5         -2.5001    2.6814    2.4188 H         1 <0>         0.0647
     22 H6         -1.0358    3.5397    1.8828 H         1 <0>         0.0640
     23 H7         -2.3282    3.1705    0.7160 H         1 <0>         0.0672
     24 H8          0.2305   -0.7458    1.6592 H         1 <0>         0.4163
     25 H9          2.5635   -1.5173    2.3507 H         1 <0>         0.1384
     26 H10         3.9011   -2.2415    4.2856 H         1 <0>         0.1483
     27 H11         1.0332   -0.5122    6.9273 H         1 <0>         0.1474
     28 H12        -0.3059    0.2262    4.9988 H         1 <0>         0.1502
     29 H13         4.5652    0.0942    6.9208 H         1 <0>         0.4170
     30 H14         5.1910   -0.8092    8.1916 H         1 <0>         0.4213
@<TRIPOS>BOND
     1    1    2 1
     2    1   17 1
     3    1   18 1
     4    1   19 1
     5    2    3 1
     6    2    4 1
     7    2   20 1
     8    3   21 1
     9    3   22 1
    10    3   23 1
    11    4    5 2
    12    4    6 am
    13    6    7 1
    14    6   24 1
    15    7   12 ar
    16    7    8 ar
    17    8    9 ar
    18    8   25 1
    19    9   10 ar
    20    9   26 1
    21   10   11 ar
    22   10   13 1
    23   11   12 ar
    24   11   27 1
    25   12   28 1
    26   13   14 2
    27   13   15 2
    28   13   16 1
    29   16   29 1
    30   16   30 1
@<TRIPOS>MOLECULE
ZINC00125245
   31    32     0     0     0
SMALL
USER_CHARGES

@<TRIPOS>ATOM
      1 C1         -1.0743   -0.5357    0.5764 C.ar      1 <0>        -0.0865
      2 C2         -0.9693   -1.7779    1.1767 C.ar      1 <0>        -0.1257
      3 C3          0.2351   -2.4506    1.1710 C.ar      1 <0>        -0.0545
      4 C4          1.3493   -1.8753    0.5578 C.ar      1 <0>        -0.1427
      5 C5          1.2365   -0.6218   -0.0460 C.ar      1 <0>        -0.0851
      6 C6          0.0263    0.0401   -0.0331 C.ar      1 <0>        -0.1258
      7 C7          2.6431   -2.5902    0.5483 C.2       1 <0>         0.5634
      8 O1          2.7384   -3.6815    1.0752 O.2       1 <0>        -0.5082
      9 N1          3.7170   -2.0320   -0.0446 N.am      1 <0>        -0.6737
     10 C8          4.9632   -2.6622    0.0299 C.ar      1 <0>         0.2054
     11 C9          6.1225   -1.9030    0.1240 C.ar      1 <0>        -0.1664
     12 C10         7.3516   -2.5285    0.1979 C.ar      1 <0>        -0.0008
     13 C11         7.4289   -3.9091    0.1779 C.ar      1 <0>        -0.6943
     14 C12         6.2766   -4.6678    0.0839 C.ar      1 <0>         0.0042
     15 C13         5.0439   -4.0487    0.0159 C.ar      1 <0>        -0.1439
     16 S1          8.9990   -4.7031    0.2719 S.o2      1 <0>         2.7043
     17 O2          8.8404   -5.9875   -0.3149 O.2       1 <0>        -0.9625
     18 O3          9.9574   -3.7645   -0.1969 O.2       1 <0>        -0.9614
     19 N2          9.3263   -4.9526    1.8759 N.pl3     1 <0>        -1.2483
     20 H1         -2.0206   -0.0153    0.5797 H         1 <0>         0.1313
     21 H2         -1.8321   -2.2217    1.6511 H         1 <0>         0.1341
     22 H3          0.3157   -3.4200    1.6402 H         1 <0>         0.1387
     23 H4          2.0949   -0.1711   -0.5218 H         1 <0>         0.1258
     24 H5         -0.0623    1.0100   -0.4999 H         1 <0>         0.1327
     25 H6          3.6256   -1.1932   -0.5231 H         1 <0>         0.4155
     26 H7          6.0629   -0.8248    0.1389 H         1 <0>         0.1386
     27 H8          8.2534   -1.9388    0.2710 H         1 <0>         0.1483
     28 H9          6.3404   -5.7458    0.0682 H         1 <0>         0.1473
     29 H10         4.1441   -4.6419   -0.0531 H         1 <0>         0.1509
     30 H11         9.8679   -5.7098    2.1483 H         1 <0>         0.4220
     31 H12         8.9764   -4.3416    2.5431 H         1 <0>         0.4173
@<TRIPOS>BOND
     1    1    6 ar
     2    1    2 ar
     3    1   20 1
     4    2    3 ar
     5    2   21 1
     6    3    4 ar
     7    3   22 1
     8    4    5 ar
     9    4    7 1
    10    5    6 ar
    11    5   23 1
    12    6   24 1
    13    7    8 2
    14    7    9 am
    15    9   10 1
    16    9   25 1
    17   10   15 ar
    18   10   11 ar
    19   11   12 ar
    20   11   26 1
    21   12   13 ar
    22   12   27 1
    23   13   14 ar
    24   13   16 1
    25   14   15 ar
    26   14   28 1
    27   15   29 1
    28   16   17 2
    29   16   18 2
    30   16   19 1
    31   19   30 1
    32   19   31 1
@<TRIPOS>MOLECULE
ZINC06039278
   30    30     0     0     0
SMALL
USER_CHARGES

@<TRIPOS>ATOM
      1 C1         -4.8808    1.4527    1.3512 C.3       1 <0>        -0.1545
      2 C2         -4.8557   -0.0771    1.3503 C.3       1 <0>        -0.1114
      3 C3         -3.6087   -0.5663    0.6111 C.3       1 <0>        -0.1394
      4 C4         -3.5841   -2.0731    0.6103 C.2       1 <0>         0.5131
      5 O1         -4.4761   -2.6945    1.1480 O.2       1 <0>        -0.5113
      6 N1         -2.5708   -2.7302    0.0119 N.am      1 <0>        -0.6801
      7 C5         -2.4962   -4.1250    0.0941 C.ar      1 <0>         0.2045
      8 C6         -1.2600   -4.7519    0.1803 C.ar      1 <0>        -0.1678
      9 C7         -1.1898   -6.1289    0.2612 C.ar      1 <0>        -0.0012
     10 C8         -2.3487   -6.8832    0.2563 C.ar      1 <0>        -0.6949
     11 C9         -3.5812   -6.2621    0.1701 C.ar      1 <0>         0.0036
     12 C10        -3.6584   -4.8851    0.0952 C.ar      1 <0>        -0.1452
     13 S1         -2.2548   -8.6397    0.3597 S.o2      1 <0>         2.7042
     14 O2         -3.4531   -9.1449   -0.2131 O.2       1 <0>        -0.9627
     15 O3         -0.9680   -9.0064   -0.1189 O.2       1 <0>        -0.9616
     16 N2         -2.2934   -9.0384    1.9665 N.pl3     1 <0>        -1.2483
     17 H1         -5.7692    1.8013    1.8778 H         1 <0>         0.0608
     18 H2         -3.9896    1.8304    1.8525 H         1 <0>         0.0558
     19 H3         -4.9014    1.8163    0.3238 H         1 <0>         0.0560
     20 H4         -4.8351   -0.4407    2.3777 H         1 <0>         0.0710
     21 H5         -5.7469   -0.4548    0.8491 H         1 <0>         0.0713
     22 H6         -3.6293   -0.2027   -0.4163 H         1 <0>         0.1000
     23 H7         -2.7176   -0.1886    1.1124 H         1 <0>         0.0999
     24 H8         -1.8932   -2.2361   -0.4756 H         1 <0>         0.4168
     25 H9         -0.3545   -4.1633    0.1838 H         1 <0>         0.1381
     26 H10        -0.2287   -6.6170    0.3279 H         1 <0>         0.1477
     27 H11        -4.4845   -6.8541    0.1662 H         1 <0>         0.1466
     28 H12        -4.6215   -4.4003    0.0331 H         1 <0>         0.1500
     29 H13        -2.6780   -9.8834    2.2474 H         1 <0>         0.4220
     30 H14        -1.9315   -8.4269    2.6268 H         1 <0>         0.4172
@<TRIPOS>BOND
     1    1    2 1
     2    1   17 1
     3    1   18 1
     4    1   19 1
     5    2    3 1
     6    2   20 1
     7    2   21 1
     8    3    4 1
     9    3   22 1
    10    3   23 1
    11    4    5 2
    12    4    6 am
    13    6    7 1
    14    6   24 1
    15    7   12 ar
    16    7    8 ar
    17    8    9 ar
    18    8   25 1
    19    9   10 ar
    20    9   26 1
    21   10   11 ar
    22   10   13 1
    23   11   12 ar
    24   11   27 1
    25   12   28 1
    26   13   14 2
    27   13   15 2
    28   13   16 1
    29   16   29 1
    30   16   30 1
@<TRIPOS>MOLECULE
ZINC02864099
   38    39     0     0     0
SMALL
USER_CHARGES

@<TRIPOS>ATOM
      1 C1         -0.0167    1.3781    0.0096 C.ar      1 <0>        -0.0616
      2 C2          1.1709    2.0855    0.0021 C.ar      1 <0>        -0.1396
      3 C3          2.3773    1.4107   -0.0130 C.ar      1 <0>        -0.0194
      4 C4          2.3960    0.0285   -0.0201 C.ar      1 <0>        -0.6786
      5 C5          1.2084   -0.6789   -0.0117 C.ar      1 <0>        -0.0235
      6 C6          0.0021   -0.0041    0.0020 C.ar      1 <0>        -0.1396
      7 S1          3.9337   -0.8316   -0.0405 S.o2      1 <0>         2.6951
      8 O1          3.6744   -2.1140   -0.5951 O.2       1 <0>        -0.9530
      9 O2          4.8903    0.0598   -0.5970 O.2       1 <0>        -0.9543
     10 N1          4.3776   -1.0785    1.5357 N.pl3     1 <0>        -1.1176
     11 C7          3.5672   -1.9420    2.3982 C.3       1 <0>         0.1202
     12 C8          4.3654   -2.3033    3.6525 C.3       1 <0>        -0.0974
     13 C9          3.5318   -3.1916    4.5398 C.ar      1 <0>        -0.0249
     14 C10         2.7082   -2.6330    5.4992 C.ar      1 <0>        -0.1356
     15 C11         1.9436   -3.4477    6.3131 C.ar      1 <0>        -0.0156
     16 C12         2.0022   -4.8211    6.1672 C.ar      1 <0>        -0.6772
     17 C13         2.8251   -5.3797    5.2072 C.ar      1 <0>        -0.0145
     18 C14         3.5865   -4.5648    4.3904 C.ar      1 <0>        -0.1346
     19 S2          1.0285   -5.8597    7.2054 S.o2      1 <0>         2.7007
     20 O3          1.6742   -7.1252    7.2344 O.2       1 <0>        -0.9619
     21 O4          0.7576   -5.1154    8.3851 O.2       1 <0>        -0.9626
     22 N2         -0.4250   -6.0874    6.4452 N.pl3     1 <0>        -1.2498
     23 H1         -0.9591    1.9053    0.0259 H         1 <0>         0.1326
     24 H2          1.1563    3.1654    0.0076 H         1 <0>         0.1346
     25 H3          3.3051    1.9634   -0.0196 H         1 <0>         0.1409
     26 H4          1.2231   -1.7588   -0.0176 H         1 <0>         0.1401
     27 H5         -0.9258   -0.5567    0.0082 H         1 <0>         0.1343
     28 H6          5.1741   -0.6514    1.8878 H         1 <0>         0.4213
     29 H7          2.6566   -1.4166    2.6858 H         1 <0>         0.0704
     30 H8          3.3064   -2.8525    1.8587 H         1 <0>         0.0861
     31 H9          5.2760   -2.8288    3.3649 H         1 <0>         0.0920
     32 H10         4.6262   -1.3928    4.1920 H         1 <0>         0.0898
     33 H11         2.6624   -1.5600    5.6132 H         1 <0>         0.1360
     34 H12         1.3006   -3.0113    7.0631 H         1 <0>         0.1447
     35 H13         2.8712   -6.4527    5.0934 H         1 <0>         0.1456
     36 H14         4.2266   -5.0010    3.6379 H         1 <0>         0.1382
     37 H15        -0.5930   -5.6716    5.5851 H         1 <0>         0.4167
     38 H16        -1.1085   -6.6367    6.8601 H         1 <0>         0.4219
@<TRIPOS>BOND
     1    1    6 ar
     2    1    2 ar
     3    1   23 1
     4    2    3 ar
     5    2   24 1
     6    3    4 ar
     7    3   25 1
     8    4    5 ar
     9    4    7 1
    10    5    6 ar
    11    5   26 1
    12    6   27 1
    13    7    8 2
    14    7    9 2
    15    7   10 1
    16   10   11 1
    17   10   28 1
    18   11   12 1
    19   11   29 1
    20   11   30 1
    21   12   13 1
    22   12   31 1
    23   12   32 1
    24   13   18 ar
    25   13   14 ar
    26   14   15 ar
    27   14   33 1
    28   15   16 ar
    29   15   34 1
    30   16   17 ar
    31   16   19 1
    32   17   18 ar
    33   17   35 1
    34   18   36 1
    35   19   20 2
    36   19   21 2
    37   19   22 1
    38   22   37 1
    39   22   38 1
@<TRIPOS>MOLECULE
ZINC01595221
   33    34     0     0     0
SMALL
USER_CHARGES

@<TRIPOS>ATOM
      1 C1         -0.0168    1.3849    0.0097 C.ar      1 <0>        -0.1930
      2 C2          1.1707    2.0901    0.0021 C.ar      1 <0>         0.0140
      3 C3          2.3774    1.4150   -0.0135 C.ar      1 <0>        -0.7673
      4 C4          2.3998    0.0323   -0.0211 C.ar      1 <0>         0.0330
      5 C5          1.2161   -0.6790   -0.0137 C.ar      1 <0>        -0.2791
      6 C6          0.0021   -0.0041    0.0020 C.ar      1 <0>         0.3261
      7 N1         -1.1970   -0.7204    0.0101 N.2       1 <0>        -1.0734
      8 S1         -1.1724   -2.3762    0.0010 S.o2      1 <0>         2.5984
      9 O1         -0.6279   -2.7674   -1.2520 O.2       1 <0>        -1.0105
     10 O2         -0.6032   -2.7807    1.2386 O.2       1 <0>        -1.0117
     11 C7         -2.8476   -2.9222    0.0147 C.ar      1 <0>        -0.5735
     12 C8         -3.4946   -3.1374    1.2171 C.ar      1 <0>        -0.0223
     13 C9         -4.8088   -3.5657    1.2279 C.ar      1 <0>        -0.0790
     14 C10        -5.4762   -3.7785    0.0362 C.ar      1 <0>        -0.0158
     15 C11        -4.8295   -3.5624   -1.1663 C.ar      1 <0>        -0.0787
     16 C12        -3.5166   -3.1299   -1.1770 C.ar      1 <0>        -0.0222
     17 N2         -6.8832   -4.2381    0.0477 N.pl3     1 <0>         0.0320
     18 O3         -7.4487   -4.4274    1.0994 O.2       1 <0>        -0.1562
     19 O4         -7.4669   -4.4241   -0.9946 O.3       1 <0>        -0.1561
     20 S2          3.8900    2.3186   -0.0243 S.o2      1 <0>         2.7042
     21 O5          4.8717    1.4606   -0.5894 O.2       1 <0>        -0.9835
     22 O6          3.5945    3.5988   -0.5657 O.2       1 <0>        -0.9832
     23 N3          4.3264    2.5618    1.5546 N.pl3     1 <0>        -1.2560
     24 H1         -0.9589    1.9127    0.0260 H         1 <0>         0.1243
     25 H2          1.1567    3.1700    0.0080 H         1 <0>         0.1273
     26 H3          3.3440   -0.4918   -0.0333 H         1 <0>         0.1247
     27 H4          1.2342   -1.7588   -0.0200 H         1 <0>         0.1074
     28 H5         -2.9731   -2.9711    2.1482 H         1 <0>         0.1620
     29 H6         -5.3141   -3.7345    2.1674 H         1 <0>         0.1590
     30 H7         -5.3508   -3.7290   -2.0974 H         1 <0>         0.1591
     31 H8         -3.0125   -2.9576   -2.1165 H         1 <0>         0.1623
     32 H9          3.7678    2.2202    2.2703 H         1 <0>         0.4160
     33 H10         5.1405    3.0458    1.7638 H         1 <0>         0.4119
@<TRIPOS>BOND
     1    1    6 ar
     2    1    2 ar
     3    1   24 1
     4    2    3 ar
     5    2   25 1
     6    3    4 ar
     7    3   20 1
     8    4    5 ar
     9    4   26 1
    10    5    6 ar
    11    5   27 1
    12    6    7 1
    13    7    8 1
    14    8    9 2
    15    8   10 2
    16    8   11 1
    17   11   16 ar
    18   11   12 ar
    19   12   13 ar
    20   12   28 1
    21   13   14 ar
    22   13   29 1
    23   14   15 ar
    24   14   17 1
    25   15   16 ar
    26   15   30 1
    27   16   31 1
    28   17   18 2
    29   17   19 1
    30   20   21 2
    31   20   22 2
    32   20   23 1
    33   23   32 1
    34   23   33 1
@<TRIPOS>MOLECULE
ZINC06342342
   39    41     0     0     0
SMALL
USER_CHARGES

@<TRIPOS>ATOM
      1 C1         -0.0164    1.3611    0.0095 C.ar      1 <0>        -0.1415
      2 C2          1.1690    2.0834    0.0021 C.ar      1 <0>        -0.0482
      3 C3          2.3865    1.4353   -0.0257 C.ar      1 <0>        -0.1359
      4 C4          2.4302    0.0476   -0.0395 C.ar      1 <0>         0.1509
      5 C5          1.2287   -0.6841   -0.0031 C.ar      1 <0>        -0.1705
      6 C6          0.0021   -0.0041    0.0020 C.ar      1 <0>        -0.0401
      7 C7          1.2660   -2.1015    0.0478 C.2       1 <0>         0.0850
      8 C8          2.4936   -2.7155    0.2555 C.2       1 <0>        -0.2817
      9 C9          3.6656   -1.8409    0.4424 C.2       1 <0>         0.5268
     10 O1          4.6423   -2.2218    1.0600 O.2       1 <0>        -0.4399
     11 O2          3.6186   -0.6003   -0.0955 O.3       1 <0>        -0.2688
     12 C10         2.6201   -4.1824    0.2885 C.2       1 <0>         0.5826
     13 O3          1.6370   -4.8811    0.1319 O.2       1 <0>        -0.5322
     14 N1          3.8252   -4.7504    0.4922 N.am      1 <0>        -0.7181
     15 C11         3.9510   -6.2097    0.5250 C.3       1 <0>         0.1528
     16 C12         5.3906   -6.5845    0.7658 C.ar      1 <0>        -0.0507
     17 C13         6.2473   -6.7606   -0.3046 C.ar      1 <0>        -0.1211
     18 C14         7.5679   -7.1044   -0.0838 C.ar      1 <0>        -0.0185
     19 C15         8.0319   -7.2716    1.2076 C.ar      1 <0>        -0.6688
     20 C16         7.1753   -7.0946    2.2781 C.ar      1 <0>        -0.0180
     21 C17         5.8559   -6.7466    2.0574 C.ar      1 <0>        -0.1187
     22 S1          9.7148   -7.7110    1.4892 S.o2      1 <0>         2.7018
     23 O4          9.7627   -8.3404    2.7623 O.2       1 <0>        -0.9611
     24 O5         10.1710   -8.3510    0.3053 O.2       1 <0>        -0.9613
     25 N2         10.5727   -6.3011    1.6256 N.pl3     1 <0>        -1.2494
     26 H1         -0.9615    1.8835    0.0259 H         1 <0>         0.1408
     27 H2          1.1378    3.1628    0.0179 H         1 <0>         0.1451
     28 H3          3.3033    2.0059   -0.0372 H         1 <0>         0.1484
     29 H4         -0.9248   -0.5585    0.0004 H         1 <0>         0.1456
     30 H5          0.3655   -2.6858   -0.0714 H         1 <0>         0.1680
     31 H6          4.6092   -4.1931    0.6171 H         1 <0>         0.4123
     32 H7          3.3321   -6.6097    1.3282 H         1 <0>         0.0873
     33 H8          3.6221   -6.6242   -0.4280 H         1 <0>         0.0870
     34 H9          5.8849   -6.6299   -1.3136 H         1 <0>         0.1379
     35 H10         8.2371   -7.2427   -0.9201 H         1 <0>         0.1471
     36 H11         7.5377   -7.2256    3.2871 H         1 <0>         0.1473
     37 H12         5.1876   -6.6047    2.8939 H         1 <0>         0.1384
     38 H13        10.1187   -5.4476    1.5465 H         1 <0>         0.4174
     39 H14        11.5291   -6.3288    1.7847 H         1 <0>         0.4221
@<TRIPOS>BOND
     1    1    6 ar
     2    1    2 ar
     3    1   26 1
     4    2    3 ar
     5    2   27 1
     6    3    4 ar
     7    3   28 1
     8    4   11 1
     9    4    5 ar
    10    5    6 ar
    11    5    7 1
    12    6   29 1
    13    7    8 2
    14    7   30 1
    15    8    9 1
    16    8   12 1
    17    9   10 2
    18    9   11 1
    19   12   13 2
    20   12   14 am
    21   14   15 1
    22   14   31 1
    23   15   16 1
    24   15   32 1
    25   15   33 1
    26   16   21 ar
    27   16   17 ar
    28   17   18 ar
    29   17   34 1
    30   18   19 ar
    31   18   35 1
    32   19   20 ar
    33   19   22 1
    34   20   21 ar
    35   20   36 1
    36   21   37 1
    37   22   23 2
    38   22   24 2
    39   22   25 1
    40   25   38 1
    41   25   39 1
@<TRIPOS>MOLECULE
ZINC00340351
   31    32     0     0     0
SMALL
USER_CHARGES

@<TRIPOS>ATOM
      1 C1         -0.0167    1.3781    0.0096 C.ar      1 <0>        -0.0823
      2 C2          1.1709    2.0855    0.0021 C.ar      1 <0>        -0.1470
      3 C3          2.3773    1.4107   -0.0130 C.ar      1 <0>        -0.0246
      4 C4          2.3960    0.0285   -0.0201 C.ar      1 <0>        -0.6176
      5 C5          1.2084   -0.6789   -0.0117 C.ar      1 <0>        -0.0244
      6 C6          0.0021   -0.0041    0.0020 C.ar      1 <0>        -0.1467
      7 S1          3.9337   -0.8316   -0.0405 S.o2      1 <0>         2.6054
      8 O1          3.6744   -2.1140   -0.5951 O.2       1 <0>        -1.0224
      9 O2          4.8903    0.0598   -0.5970 O.2       1 <0>        -1.0236
     10 N1          4.3776   -1.0785    1.5357 N.2       1 <0>        -1.0769
     11 C7          5.5694   -1.7449    1.8294 C.ar      1 <0>         0.3269
     12 C8          6.3864   -2.1962    0.8005 C.ar      1 <0>        -0.2798
     13 C9          7.5645   -2.8543    1.0944 C.ar      1 <0>         0.0292
     14 C10         7.9308   -3.0647    2.4112 C.ar      1 <0>        -0.7728
     15 C11         7.1198   -2.6168    3.4378 C.ar      1 <0>         0.0152
     16 C12         5.9433   -1.9529    3.1510 C.ar      1 <0>        -0.1963
     17 S2          9.4341   -3.9059    2.7817 S.o2      1 <0>         2.7054
     18 O3          9.2811   -4.4571    4.0825 O.2       1 <0>        -0.9836
     19 O4          9.7429   -4.7043    1.6475 O.2       1 <0>        -0.9831
     20 N2         10.6231   -2.7585    2.8907 N.pl3     1 <0>        -1.2552
     21 H1         -0.9591    1.9053    0.0259 H         1 <0>         0.1240
     22 H2          1.1563    3.1654    0.0076 H         1 <0>         0.1266
     23 H3          3.3051    1.9634   -0.0196 H         1 <0>         0.1363
     24 H4          1.2231   -1.7588   -0.0176 H         1 <0>         0.1365
     25 H5         -0.9258   -0.5567    0.0082 H         1 <0>         0.1268
     26 H6          6.1006   -2.0328   -0.2281 H         1 <0>         0.1066
     27 H7          8.2001   -3.2054    0.2950 H         1 <0>         0.1224
     28 H8          7.4088   -2.7827    4.4651 H         1 <0>         0.1247
     29 H9          5.3126   -1.5994    3.9532 H         1 <0>         0.1225
     30 H10        11.3816   -2.9003    3.4786 H         1 <0>         0.4122
     31 H11        10.5612   -1.9446    2.3667 H         1 <0>         0.4156
@<TRIPOS>BOND
     1    1    6 ar
     2    1    2 ar
     3    1   21 1
     4    2    3 ar
     5    2   22 1
     6    3    4 ar
     7    3   23 1
     8    4    5 ar
     9    4    7 1
    10    5    6 ar
    11    5   24 1
    12    6   25 1
    13    7    8 2
    14    7    9 2
    15    7   10 1
    16   10   11 1
    17   11   16 ar
    18   11   12 ar
    19   12   13 ar
    20   12   26 1
    21   13   14 ar
    22   13   27 1
    23   14   15 ar
    24   14   17 1
    25   15   16 ar
    26   15   28 1
    27   16   29 1
    28   17   18 2
    29   17   19 2
    30   17   20 1
    31   20   30 1
    32   20   31 1
@<TRIPOS>MOLECULE
ZINC00340351
   32    33     0     0     0
SMALL
USER_CHARGES

@<TRIPOS>ATOM
      1 C1          6.8707   -5.3144   -0.1838 C.ar      1 <0>        -0.0584
      2 C2          5.5009   -5.3100   -0.3697 C.ar      1 <0>        -0.1388
      3 C3          4.8008   -4.1190   -0.3223 C.ar      1 <0>        -0.0188
      4 C4          5.4704   -2.9325   -0.0885 C.ar      1 <0>        -0.6781
      5 C5          6.8401   -2.9370    0.0983 C.ar      1 <0>        -0.0183
      6 C6          7.5404   -4.1278    0.0494 C.ar      1 <0>        -0.1389
      7 S1          4.5782   -1.4143   -0.0292 S.o2      1 <0>         2.6880
      8 O1          5.4741   -0.3995   -0.4616 O.2       1 <0>        -0.9450
      9 O2          3.3305   -1.6512   -0.6667 O.2       1 <0>        -0.9432
     10 N1          4.2448   -1.1042    1.5630 N.pl3     1 <0>        -1.0701
     11 C7          3.4385   -1.9818    2.2914 C.ar      1 <0>         0.1848
     12 C8          2.0644   -1.9961    2.0881 C.ar      1 <0>        -0.1269
     13 C9          1.2702   -2.8655    2.8097 C.ar      1 <0>        -0.0072
     14 C10         1.8413   -3.7208    3.7341 C.ar      1 <0>        -0.6717
     15 C11         3.2089   -3.7091    3.9391 C.ar      1 <0>        -0.0102
     16 C12         4.0096   -2.8463    3.2168 C.ar      1 <0>        -0.1336
     17 S2          0.8242   -4.8275    4.6535 S.o2      1 <0>         2.7015
     18 O3          1.5352   -5.1388    5.8438 O.2       1 <0>        -0.9600
     19 O4         -0.4793   -4.2619    4.6705 O.2       1 <0>        -0.9587
     20 N2          0.7190   -6.2328    3.7837 N.pl3     1 <0>        -1.2493
     21 H1          7.4171   -6.2455   -0.2165 H         1 <0>         0.1337
     22 H2          4.9778   -6.2370   -0.5523 H         1 <0>         0.1354
     23 H3          3.7307   -4.1155   -0.4682 H         1 <0>         0.1412
     24 H4          7.3633   -2.0099    0.2805 H         1 <0>         0.1399
     25 H5          8.6106   -4.1313    0.1949 H         1 <0>         0.1356
     26 H6          1.6177   -1.3280    1.3667 H         1 <0>         0.1496
     27 H7          0.2018   -2.8772    2.6520 H         1 <0>         0.1531
     28 H8          3.6517   -4.3783    4.6618 H         1 <0>         0.1506
     29 H9          5.0780   -2.8408    3.3740 H         1 <0>         0.1418
     30 H10         1.1793   -6.3127    2.9337 H         1 <0>         0.4171
     31 H11         0.1970   -6.9761    4.1244 H         1 <0>         0.4227
     32 H12         4.6094   -0.3131    1.9897 H         1 <0>         0.4322
@<TRIPOS>BOND
     1    1    6 ar
     2    1    2 ar
     3    1   21 1
     4    2    3 ar
     5    2   22 1
     6    3    4 ar
     7    3   23 1
     8    4    5 ar
     9    4    7 1
    10    5    6 ar
    11    5   24 1
    12    6   25 1
    13    7    8 2
    14    7    9 2
    15    7   10 1
    16   10   11 1
    17   10   32 1
    18   11   16 ar
    19   11   12 ar
    20   12   13 ar
    21   12   26 1
    22   13   14 ar
    23   13   27 1
    24   14   15 ar
    25   14   17 1
    26   15   16 ar
    27   15   28 1
    28   16   29 1
    29   17   18 2
    30   17   19 2
    31   17   20 1
    32   20   30 1
    33   20   31 1
@<TRIPOS>MOLECULE
ZINC00184018
   31    32     0     0     0
SMALL
USER_CHARGES

@<TRIPOS>ATOM
      1 C1         -0.0168    1.3849    0.0097 C.ar      1 <0>        -0.1951
      2 C2          1.1707    2.0901    0.0021 C.ar      1 <0>         0.0132
      3 C3          2.3774    1.4150   -0.0135 C.ar      1 <0>        -0.7703
      4 C4          2.3998    0.0323   -0.0211 C.ar      1 <0>         0.0324
      5 C5          1.2161   -0.6790   -0.0137 C.ar      1 <0>        -0.2798
      6 C6          0.0021   -0.0041    0.0020 C.ar      1 <0>         0.3273
      7 N1         -1.1970   -0.7204    0.0101 N.2       1 <0>        -1.0763
      8 S1         -1.1724   -2.3762    0.0010 S.o2      1 <0>         2.6066
      9 O1         -0.6279   -2.7674   -1.2520 O.2       1 <0>        -1.0195
     10 O2         -0.6032   -2.7807    1.2386 O.2       1 <0>        -1.0207
     11 C7         -2.8476   -2.9222    0.0147 C.ar      1 <0>        -0.6307
     12 C8         -3.4941   -3.1371    1.2175 C.ar      1 <0>         0.0056
     13 C9         -4.8082   -3.5650    1.2295 C.ar      1 <0>        -0.1788
     14 C10        -5.4771   -3.7783    0.0362 C.ar      1 <0>         0.1349
     15 C11        -4.8285   -3.5627   -1.1679 C.ar      1 <0>        -0.1786
     16 C12        -3.5161   -3.1298   -1.1774 C.ar      1 <0>         0.0057
     17 F1         -6.7616   -4.1969    0.0467 F         1 <0>        -0.1383
     18 S2          3.8900    2.3186   -0.0243 S.o2      1 <0>         2.7040
     19 O3          4.8717    1.4606   -0.5894 O.2       1 <0>        -0.9847
     20 O4          3.5945    3.5988   -0.5657 O.2       1 <0>        -0.9845
     21 N2          4.3264    2.5618    1.5546 N.pl3     1 <0>        -1.2564
     22 H1         -0.9589    1.9127    0.0260 H         1 <0>         0.1233
     23 H2          1.1567    3.1700    0.0080 H         1 <0>         0.1257
     24 H3          3.3440   -0.4918   -0.0333 H         1 <0>         0.1233
     25 H4          1.2342   -1.7588   -0.0200 H         1 <0>         0.1072
     26 H5         -2.9720   -2.9710    2.1482 H         1 <0>         0.1477
     27 H6         -5.3130   -3.7332    2.1694 H         1 <0>         0.1407
     28 H7         -5.3493   -3.7290   -2.0994 H         1 <0>         0.1408
     29 H8         -3.0114   -2.9572   -2.1165 H         1 <0>         0.1480
     30 H9          3.7678    2.2202    2.2703 H         1 <0>         0.4159
     31 H10         5.1405    3.0458    1.7638 H         1 <0>         0.4112
@<TRIPOS>BOND
     1    1    6 ar
     2    1    2 ar
     3    1   22 1
     4    2    3 ar
     5    2   23 1
     6    3    4 ar
     7    3   18 1
     8    4    5 ar
     9    4   24 1
    10    5    6 ar
    11    5   25 1
    12    6    7 1
    13    7    8 1
    14    8    9 2
    15    8   10 2
    16    8   11 1
    17   11   16 ar
    18   11   12 ar
    19   12   13 ar
    20   12   26 1
    21   13   14 ar
    22   13   27 1
    23   14   15 ar
    24   14   17 1
    25   15   16 ar
    26   15   28 1
    27   16   29 1
    28   18   19 2
    29   18   20 2
    30   18   21 1
    31   21   30 1
    32   21   31 1
@<TRIPOS>MOLECULE
ZINC00184018
   32    33     0     0     0
SMALL
USER_CHARGES

@<TRIPOS>ATOM
      1 C1          0.0154    1.3627    0.1070 C.ar      1 <0>        -0.1507
      2 C2          1.2147    2.0473    0.1230 C.ar      1 <0>         0.0022
      3 C3          2.4094    1.3539    0.0582 C.ar      1 <0>        -0.6872
      4 C4          2.4077   -0.0266   -0.0224 C.ar      1 <0>         0.0077
      5 C5          1.2120   -0.7175   -0.0389 C.ar      1 <0>        -0.1762
      6 C6          0.0101   -0.0241    0.0261 C.ar      1 <0>         0.2042
      7 N1         -1.2010   -0.7196    0.0102 N.pl3     1 <0>        -1.0595
      8 S1         -1.4460   -1.9305   -1.0926 S.o2      1 <0>         2.6925
      9 O1         -0.3397   -2.8149   -0.9772 O.2       1 <0>        -0.9399
     10 O2         -2.7889   -2.3647   -0.9274 O.2       1 <0>        -0.9393
     11 C7         -1.3450   -1.2042   -2.6948 C.ar      1 <0>        -0.6961
     12 C8         -2.4582   -0.6030   -3.2520 C.ar      1 <0>         0.0133
     13 C9         -2.3801   -0.0326   -4.5083 C.ar      1 <0>        -0.1743
     14 C10        -1.1864   -0.0635   -5.2091 C.ar      1 <0>         0.1646
     15 C11        -0.0721   -0.6660   -4.6500 C.ar      1 <0>        -0.1730
     16 C12        -0.1512   -1.2311   -3.3913 C.ar      1 <0>         0.0130
     17 F1         -1.1090    0.4933   -6.4375 F         1 <0>        -0.1249
     18 S2          3.9372    2.2314    0.0777 S.o2      1 <0>         2.7017
     19 O3          4.8979    1.3880   -0.5429 O.2       1 <0>        -0.9603
     20 O4          3.6582    3.5431   -0.3923 O.2       1 <0>        -0.9616
     21 N2          4.3943    2.3835    1.6621 N.pl3     1 <0>        -1.2496
     22 H1         -0.9172    1.9046    0.1618 H         1 <0>         0.1426
     23 H2          1.2196    3.1254    0.1859 H         1 <0>         0.1503
     24 H3          3.3425   -0.5651   -0.0729 H         1 <0>         0.1533
     25 H4          1.2114   -1.7956   -0.1022 H         1 <0>         0.1685
     26 H5         -3.3894   -0.5793   -2.7053 H         1 <0>         0.1512
     27 H6         -3.2500    0.4367   -4.9435 H         1 <0>         0.1499
     28 H7          0.8595   -0.6910   -5.1959 H         1 <0>         0.1508
     29 H8          0.7190   -1.6971   -2.9532 H         1 <0>         0.1537
     30 H9          3.8374    2.0140    2.3651 H         1 <0>         0.4173
     31 H10         5.2188    2.8421    1.8871 H         1 <0>         0.4222
     32 H11        -1.8986   -0.4934    0.6450 H         1 <0>         0.4335
@<TRIPOS>BOND
     1    1    6 ar
     2    1    2 ar
     3    1   22 1
     4    2    3 ar
     5    2   23 1
     6    3    4 ar
     7    3   18 1
     8    4    5 ar
     9    4   24 1
    10    5    6 ar
    11    5   25 1
    12    6    7 1
    13    7    8 1
    14    7   32 1
    15    8    9 2
    16    8   10 2
    17    8   11 1
    18   11   16 ar
    19   11   12 ar
    20   12   13 ar
    21   12   26 1
    22   13   14 ar
    23   13   27 1
    24   14   15 ar
    25   14   17 1
    26   15   16 ar
    27   15   28 1
    28   16   29 1
    29   18   19 2
    30   18   20 2
    31   18   21 1
    32   21   30 1
    33   21   31 1
@<TRIPOS>MOLECULE
ZINC00503623
   36    38     0     0     0
SMALL
USER_CHARGES

@<TRIPOS>ATOM
      1 C1         -0.0131    1.3623   -0.0018 C.ar      1 <0>        -0.1417
      2 C2          1.1730    2.0835   -0.0165 C.ar      1 <0>        -0.0446
      3 C3          2.3898    1.4343   -0.0457 C.ar      1 <0>        -0.1362
      4 C4          2.4323    0.0466   -0.0539 C.ar      1 <0>         0.1538
      5 C5          1.2303   -0.6840   -0.0106 C.ar      1 <0>        -0.1745
      6 C6          0.0043   -0.0029   -0.0037 C.ar      1 <0>        -0.0375
      7 C7          1.2665   -2.1012    0.0459 C.2       1 <0>         0.0966
      8 C8          2.4944   -2.7154    0.2522 C.2       1 <0>        -0.2895
      9 C9          3.6678   -1.8410    0.4316 C.2       1 <0>         0.5278
     10 O1          4.6466   -2.2204    1.0469 O.2       1 <0>        -0.4392
     11 O2          3.6200   -0.6026   -0.1113 O.3       1 <0>        -0.2664
     12 C10         2.6197   -4.1819    0.2908 C.2       1 <0>         0.5867
     13 O3          1.6355   -4.8806    0.1403 O.2       1 <0>        -0.5100
     14 N1          3.8250   -4.7502    0.4929 N.am      1 <0>        -0.6668
     15 C11         3.9298   -6.1381    0.6286 C.ar      1 <0>         0.2071
     16 C12         4.8649   -6.6837    1.4987 C.ar      1 <0>        -0.1636
     17 C13         4.9654   -8.0547    1.6308 C.ar      1 <0>         0.0029
     18 C14         4.1364   -8.8841    0.8979 C.ar      1 <0>        -0.6931
     19 C15         3.2044   -8.3442    0.0308 C.ar      1 <0>         0.0018
     20 C16         3.0951   -6.9738   -0.1021 C.ar      1 <0>        -0.1450
     21 S1          4.2684  -10.6329    1.0690 S.o2      1 <0>         2.7040
     22 O4          3.7550  -11.1980   -0.1294 O.2       1 <0>        -0.9635
     23 O5          5.5853  -10.8973    1.5328 O.2       1 <0>        -0.9639
     24 N2          3.2387  -11.0850    2.2846 N.pl3     1 <0>        -1.2503
     25 H1         -0.9576    1.8856    0.0159 H         1 <0>         0.1418
     26 H2          1.1427    3.1631   -0.0053 H         1 <0>         0.1463
     27 H3          3.3071    2.0041   -0.0624 H         1 <0>         0.1496
     28 H4         -0.9230   -0.5565   -0.0003 H         1 <0>         0.1464
     29 H5          0.3652   -2.6851   -0.0678 H         1 <0>         0.1697
     30 H6          4.6198   -4.1965    0.5441 H         1 <0>         0.4239
     31 H7          5.5129   -6.0365    2.0711 H         1 <0>         0.1405
     32 H8          5.6926   -8.4796    2.3069 H         1 <0>         0.1493
     33 H9          2.5586   -8.9947   -0.5404 H         1 <0>         0.1481
     34 H10         2.3641   -6.5526   -0.7764 H         1 <0>         0.1514
     35 H11         2.7096  -10.4157    2.7460 H         1 <0>         0.4170
     36 H12         3.1647  -12.0192    2.5351 H         1 <0>         0.4211
@<TRIPOS>BOND
     1    1    6 ar
     2    1    2 ar
     3    1   25 1
     4    2    3 ar
     5    2   26 1
     6    3    4 ar
     7    3   27 1
     8    4   11 1
     9    4    5 ar
    10    5    6 ar
    11    5    7 1
    12    6   28 1
    13    7    8 2
    14    7   29 1
    15    8    9 1
    16    8   12 1
    17    9   10 2
    18    9   11 1
    19   12   13 2
    20   12   14 am
    21   14   15 1
    22   14   30 1
    23   15   20 ar
    24   15   16 ar
    25   16   17 ar
    26   16   31 1
    27   17   18 ar
    28   17   32 1
    29   18   19 ar
    30   18   21 1
    31   19   20 ar
    32   19   33 1
    33   20   34 1
    34   21   22 2
    35   21   23 2
    36   21   24 1
    37   24   35 1
    38   24   36 1
@<TRIPOS>MOLECULE
ZINC00154151
   33    34     0     0     0
SMALL
USER_CHARGES

@<TRIPOS>ATOM
      1 C1          0.0096    1.3775    0.6728 C.ar      1 <0>        -0.1326
      2 C2          0.2636    0.2183    1.3826 C.ar      1 <0>        -0.0989
      3 C3          1.4547   -0.4570    1.2018 C.ar      1 <0>        -0.1198
      4 C4          2.3979    0.0294    0.3061 C.ar      1 <0>         0.1564
      5 C5          2.1398    1.1938   -0.4052 C.ar      1 <0>        -0.1446
      6 C6          0.9467    1.8645   -0.2199 C.ar      1 <0>        -0.0996
      7 N1          3.6059   -0.6522    0.1209 N.am      1 <0>        -0.6783
      8 C7          3.6434   -1.9959    0.2187 C.2       1 <0>         0.7040
      9 O1          2.6134   -2.6231    0.3739 O.2       1 <0>        -0.5456
     10 N2          4.8226   -2.6443    0.1444 N.am      1 <0>        -0.6839
     11 C8          4.8525   -4.0433    0.1369 C.ar      1 <0>         0.2255
     12 C9          3.8236   -4.7580   -0.4623 C.ar      1 <0>        -0.1439
     13 C10         3.8561   -6.1388   -0.4680 C.ar      1 <0>         0.0014
     14 C11         4.9116   -6.8095    0.1220 C.ar      1 <0>        -0.6960
     15 C12         5.9375   -6.1007    0.7198 C.ar      1 <0>         0.0068
     16 C13         5.9140   -4.7198    0.7235 C.ar      1 <0>        -0.1691
     17 S1          4.9492   -8.5711    0.1125 S.o2      1 <0>         2.7038
     18 O2          5.7667   -8.9657    1.2058 O.2       1 <0>        -0.9633
     19 O3          3.6035   -9.0053   -0.0282 O.2       1 <0>        -0.9600
     20 N3          5.7431   -9.0365   -1.2642 N.pl3     1 <0>        -1.2485
     21 H1         -0.9245    1.9013    0.8126 H         1 <0>         0.1252
     22 H2         -0.4702   -0.1593    2.0794 H         1 <0>         0.1273
     23 H3          1.6526   -1.3621    1.7568 H         1 <0>         0.1355
     24 H4          2.8715    1.5748   -1.1023 H         1 <0>         0.1257
     25 H5          0.7455    2.7701   -0.7727 H         1 <0>         0.1281
     26 H6          4.4163   -0.1575   -0.0777 H         1 <0>         0.4100
     27 H7          5.6505   -2.1412    0.0962 H         1 <0>         0.4135
     28 H8          2.9988   -4.2348   -0.9230 H         1 <0>         0.1477
     29 H9          3.0560   -6.6952   -0.9335 H         1 <0>         0.1474
     30 H10         6.7603   -6.6275    1.1801 H         1 <0>         0.1482
     31 H11         6.7180   -4.1666    1.1861 H         1 <0>         0.1385
     32 H12         6.2488   -9.8642   -1.2763 H         1 <0>         0.4218
     33 H13         5.7025   -8.4814   -2.0587 H         1 <0>         0.4170
@<TRIPOS>BOND
     1    1    6 ar
     2    1    2 ar
     3    1   21 1
     4    2    3 ar
     5    2   22 1
     6    3    4 ar
     7    3   23 1
     8    4    5 ar
     9    4    7 1
    10    5    6 ar
    11    5   24 1
    12    6   25 1
    13    7    8 am
    14    7   26 1
    15    8    9 2
    16    8   10 am
    17   10   11 1
    18   10   27 1
    19   11   16 ar
    20   11   12 ar
    21   12   13 ar
    22   12   28 1
    23   13   14 ar
    24   13   29 1
    25   14   15 ar
    26   14   17 1
    27   15   16 ar
    28   15   30 1
    29   16   31 1
    30   17   18 2
    31   17   19 2
    32   17   20 1
    33   20   32 1
    34   20   33 1
@<TRIPOS>MOLECULE
ZINC02890656
   39    40     0     0     0
SMALL
USER_CHARGES

@<TRIPOS>ATOM
      1 C1         -0.0127    1.3677    0.0191 C.ar      1 <0>        -0.1337
      2 C2          1.1739    2.0768    0.0118 C.ar      1 <0>        -0.0184
      3 C3          2.3811    1.4037   -0.0122 C.ar      1 <0>        -0.6774
      4 C4          2.4017    0.0216   -0.0283 C.ar      1 <0>        -0.0132
      5 C5          1.2151   -0.6874   -0.0200 C.ar      1 <0>        -0.1339
      6 C6          0.0079   -0.0144    0.0025 C.ar      1 <0>        -0.0246
      7 C7         -1.2858   -0.7873    0.0110 C.3       1 <0>        -0.1007
      8 C8         -1.7432   -1.0319   -1.4284 C.3       1 <0>         0.1411
      9 N1         -3.0008   -1.7833   -1.4202 N.am      1 <0>        -0.7395
     10 C9         -3.5951   -2.1152   -2.5834 C.2       1 <0>         0.7039
     11 O1         -3.0876   -1.7909   -3.6397 O.2       1 <0>        -0.5643
     12 N2         -4.7520   -2.8065   -2.5759 N.am      1 <0>        -0.6841
     13 C10        -5.4194   -3.0674   -3.7785 C.ar      1 <0>         0.1803
     14 C11        -6.8077   -3.0776   -3.8155 C.ar      1 <0>        -0.1308
     15 C12        -7.4643   -3.3352   -5.0028 C.ar      1 <0>        -0.0777
     16 C13        -6.7405   -3.5838   -6.1556 C.ar      1 <0>        -0.0486
     17 C14        -5.3561   -3.5744   -6.1221 C.ar      1 <0>        -0.0117
     18 C15        -4.6946   -3.3108   -4.9371 C.ar      1 <0>        -0.1025
     19 Cl1        -4.4510   -3.8866   -7.5702 Cl        1 <0>        -0.0406
     20 Cl2        -7.5691   -3.9084   -7.6462 Cl        1 <0>        -0.0470
     21 S1          3.8936    2.3075   -0.0227 S.o2      1 <0>         2.7009
     22 O2          4.8734    1.4530   -0.5965 O.2       1 <0>        -0.9611
     23 O3          3.5962    3.5909   -0.5553 O.2       1 <0>        -0.9591
     24 N3          4.3355    2.5411    1.5561 N.pl3     1 <0>        -1.2478
     25 H1         -0.9558    1.8935    0.0423 H         1 <0>         0.1359
     26 H2          1.1579    3.1566    0.0244 H         1 <0>         0.1448
     27 H3          3.3448   -0.5042   -0.0477 H         1 <0>         0.1446
     28 H4          1.2311   -1.7672   -0.0333 H         1 <0>         0.1359
     29 H5         -1.1343   -1.7437    0.5115 H         1 <0>         0.0881
     30 H6         -2.0470   -0.2159    0.5420 H         1 <0>         0.0881
     31 H7         -1.8946   -0.0755   -1.9290 H         1 <0>         0.0750
     32 H8         -0.9819   -1.6034   -1.9595 H         1 <0>         0.0750
     33 H9         -3.4057   -2.0420   -0.5776 H         1 <0>         0.4002
     34 H10        -5.1223   -3.1232   -1.7371 H         1 <0>         0.4119
     35 H11        -7.3735   -2.8844   -2.9161 H         1 <0>         0.1422
     36 H12        -8.5439   -3.3431   -5.0315 H         1 <0>         0.1484
     37 H13        -3.6149   -3.2987   -4.9119 H         1 <0>         0.1609
     38 H14         5.2739    2.6078    1.7923 H         1 <0>         0.4225
     39 H15         3.6559    2.6111    2.2446 H         1 <0>         0.4170
@<TRIPOS>BOND
     1    1    6 ar
     2    1    2 ar
     3    1   25 1
     4    2    3 ar
     5    2   26 1
     6    3    4 ar
     7    3   21 1
     8    4    5 ar
     9    4   27 1
    10    5    6 ar
    11    5   28 1
    12    6    7 1
    13    7    8 1
    14    7   29 1
    15    7   30 1
    16    8    9 1
    17    8   31 1
    18    8   32 1
    19    9   10 am
    20    9   33 1
    21   10   11 2
    22   10   12 am
    23   12   13 1
    24   12   34 1
    25   13   18 ar
    26   13   14 ar
    27   14   15 ar
    28   14   35 1
    29   15   16 ar
    30   15   36 1
    31   16   17 ar
    32   16   20 1
    33   17   18 ar
    34   17   19 1
    35   18   37 1
    36   21   22 2
    37   21   23 2
    38   21   24 1
    39   24   38 1
    40   24   39 1
@<TRIPOS>MOLECULE
ZINC00381801
   27    27     0     0     0
SMALL
USER_CHARGES

@<TRIPOS>ATOM
      1 C1          0.3790   -3.0727    2.0395 C.3       1 <0>        -0.1407
      2 C2          0.1753   -2.0634    0.9079 C.3       1 <0>        -0.1423
      3 C3          0.8878   -2.5454   -0.3295 C.2       1 <0>         0.5122
      4 O1          1.4985   -3.5931   -0.3083 O.2       1 <0>        -0.5113
      5 N1          0.8465   -1.8122   -1.4596 N.am      1 <0>        -0.6800
      6 C4          1.5865   -2.2094   -2.5787 C.ar      1 <0>         0.2054
      7 C5          2.1611   -1.2548   -3.4076 C.ar      1 <0>        -0.1681
      8 C6          2.8909   -1.6502   -4.5115 C.ar      1 <0>         0.0022
      9 C7          3.0497   -2.9950   -4.7918 C.ar      1 <0>        -0.6937
     10 C8          2.4784   -3.9480   -3.9687 C.ar      1 <0>         0.0020
     11 C9          1.7526   -3.5593   -2.8598 C.ar      1 <0>        -0.1453
     12 S1          3.9814   -3.4952   -6.2011 S.o2      1 <0>         2.7039
     13 O2          3.5242   -4.7947   -6.5499 O.2       1 <0>        -0.9633
     14 O3          3.9525   -2.4069   -7.1143 O.2       1 <0>        -0.9642
     15 N2          5.5552   -3.6623   -5.7135 N.pl3     1 <0>        -1.2503
     16 H1         -0.0253   -4.0399    1.7409 H         1 <0>         0.0639
     17 H2          1.4439   -3.1733    2.2494 H         1 <0>         0.0635
     18 H3         -0.1363   -2.7241    2.9345 H         1 <0>         0.0668
     19 H4         -0.8896   -1.9628    0.6981 H         1 <0>         0.0998
     20 H5          0.5797   -1.0962    1.2065 H         1 <0>         0.0997
     21 H6          0.3038   -1.0091   -1.4971 H         1 <0>         0.4170
     22 H7          2.0372   -0.2044   -3.1895 H         1 <0>         0.1385
     23 H8          3.3377   -0.9083   -5.1567 H         1 <0>         0.1483
     24 H9          2.6039   -4.9975   -4.1905 H         1 <0>         0.1474
     25 H10         1.3110   -4.3041   -2.2144 H         1 <0>         0.1504
     26 H11         5.7982   -3.4878   -4.7908 H         1 <0>         0.4169
     27 H12         6.2340   -3.9346   -6.3506 H         1 <0>         0.4213
@<TRIPOS>BOND
     1    1    2 1
     2    1   16 1
     3    1   17 1
     4    1   18 1
     5    2    3 1
     6    2   19 1
     7    2   20 1
     8    3    4 2
     9    3    5 am
    10    5    6 1
    11    5   21 1
    12    6   11 ar
    13    6    7 ar
    14    7    8 ar
    15    7   22 1
    16    8    9 ar
    17    8   23 1
    18    9   10 ar
    19    9   12 1
    20   10   11 ar
    21   10   24 1
    22   11   25 1
    23   12   13 2
    24   12   14 2
    25   12   15 1
    26   15   26 1
    27   15   27 1
@<TRIPOS>MOLECULE
ZINC06241125
   36    37     0     0     0
SMALL
USER_CHARGES

@<TRIPOS>ATOM
      1 C1         -0.0153    1.3805    0.0311 C.ar      1 <0>        -0.1362
      2 C2          0.1397    0.2186    0.7646 C.ar      1 <0>        -0.0997
      3 C3          1.3441   -0.4572    0.7442 C.ar      1 <0>        -0.1208
      4 C4          2.3999    0.0314   -0.0139 C.ar      1 <0>         0.1622
      5 C5          2.2411    1.1985   -0.7495 C.ar      1 <0>        -0.1484
      6 C6          1.0342    1.8696   -0.7249 C.ar      1 <0>        -0.0998
      7 N1          3.6217   -0.6508   -0.0363 N.am      1 <0>        -0.6855
      8 C7          3.6448   -1.9950    0.0580 C.2       1 <0>         0.7048
      9 O1          2.6030   -2.6219    0.0652 O.2       1 <0>        -0.5671
     10 N2          4.8227   -2.6444    0.1444 N.am      1 <0>        -0.7386
     11 C8          4.8478   -4.1055    0.2469 C.3       1 <0>         0.1717
     12 C9          6.2761   -4.5788    0.3299 C.ar      1 <0>        -0.0525
     13 C10         6.9748   -4.8735   -0.8259 C.ar      1 <0>        -0.1199
     14 C11         8.2850   -5.3076   -0.7499 C.ar      1 <0>        -0.0223
     15 C12         8.8967   -5.4466    0.4820 C.ar      1 <0>        -0.6693
     16 C13         8.1983   -5.1511    1.6377 C.ar      1 <0>        -0.0171
     17 C14         6.8895   -4.7128    1.5614 C.ar      1 <0>        -0.1199
     18 S1         10.5664   -6.0011    0.5790 S.o2      1 <0>         2.7011
     19 O2         10.7313   -6.5688    1.8711 O.2       1 <0>        -0.9598
     20 O3         10.8214   -6.7322   -0.6126 O.2       1 <0>        -0.9577
     21 N3         11.5324   -4.6572    0.5256 N.pl3     1 <0>        -1.2474
     22 H1         -0.9595    1.9047    0.0451 H         1 <0>         0.1238
     23 H2         -0.6817   -0.1607    1.3543 H         1 <0>         0.1260
     24 H3          1.4646   -1.3645    1.3176 H         1 <0>         0.1349
     25 H4          3.0605    1.5812   -1.3398 H         1 <0>         0.1244
     26 H5          0.9101    2.7774   -1.2967 H         1 <0>         0.1266
     27 H6          4.4519   -0.1561   -0.1198 H         1 <0>         0.4071
     28 H7          5.6538   -2.1442    0.1387 H         1 <0>         0.3998
     29 H8          4.3095   -4.4162    1.1424 H         1 <0>         0.0850
     30 H9          4.3716   -4.5397   -0.6322 H         1 <0>         0.0850
     31 H10         6.4969   -4.7649   -1.7883 H         1 <0>         0.1380
     32 H11         8.8306   -5.5386   -1.6528 H         1 <0>         0.1466
     33 H12         8.6761   -5.2600    2.6002 H         1 <0>         0.1465
     34 H13         6.3450   -4.4784    2.4642 H         1 <0>         0.1381
     35 H14        12.3905   -4.6584    0.9780 H         1 <0>         0.4231
     36 H15        11.2403   -3.8687    0.0420 H         1 <0>         0.4171
@<TRIPOS>BOND
     1    1    6 ar
     2    1    2 ar
     3    1   22 1
     4    2    3 ar
     5    2   23 1
     6    3    4 ar
     7    3   24 1
     8    4    5 ar
     9    4    7 1
    10    5    6 ar
    11    5   25 1
    12    6   26 1
    13    7    8 am
    14    7   27 1
    15    8    9 2
    16    8   10 am
    17   10   11 1
    18   10   28 1
    19   11   12 1
    20   11   29 1
    21   11   30 1
    22   12   17 ar
    23   12   13 ar
    24   13   14 ar
    25   13   31 1
    26   14   15 ar
    27   14   32 1
    28   15   16 ar
    29   15   18 1
    30   16   17 ar
    31   16   33 1
    32   17   34 1
    33   18   19 2
    34   18   20 2
    35   18   21 1
    36   21   35 1
    37   21   36 1
@<TRIPOS>MOLECULE
ZINC13559595
   29    30     0     0     0
SMALL
USER_CHARGES

@<TRIPOS>ATOM
      1 C1         -0.0178    1.4608    0.0101 C.3       1 <0>         0.0880
      2 N1          0.0021   -0.0041    0.0020 N.pl3     1 <0>        -0.3923
      3 C2         -1.1508   -0.7136    0.0040 C.2       1 <0>         0.3503
      4 N2         -2.4047   -0.2618    0.0129 N.2       1 <0>        -0.5763
      5 C3         -3.4241   -1.1229    0.0134 C.2       1 <0>         0.5329
      6 O1         -3.2085   -2.3229    0.0057 O.2       1 <0>        -0.5214
      7 C4         -4.8178   -0.6207    0.0232 C.ar      1 <0>        -0.1193
      8 C5         -5.0677    0.7514    0.0261 C.ar      1 <0>        -0.0581
      9 C6         -6.3679    1.2130    0.0348 C.ar      1 <0>        -0.1366
     10 C7         -7.4227    0.3178    0.0406 C.ar      1 <0>        -0.0873
     11 C8         -7.1813   -1.0444    0.0382 C.ar      1 <0>        -0.1328
     12 C9         -5.8854   -1.5182    0.0237 C.ar      1 <0>        -0.0612
     13 S1         -0.6101   -2.3056   -0.0080 S.3       1 <0>         0.2654
     14 C10         1.1453   -1.9959   -0.0155 C.2       1 <0>        -0.5480
     15 N3          1.1953   -0.6945   -0.0136 N.2       1 <0>        -0.0826
     16 S2          2.4732   -3.1541   -0.0292 S.o2      1 <0>         2.7423
     17 O2          2.1291   -4.1552   -0.9772 O.2       1 <0>        -0.9239
     18 O3          3.6718   -2.3966   -0.1223 O.2       1 <0>        -0.9173
     19 N4          2.4939   -3.8927    1.4528 N.pl3     1 <0>        -1.2343
     20 H1          1.0048    1.8381    0.0023 H         1 <0>         0.1057
     21 H2         -0.5450    1.8219   -0.8730 H         1 <0>         0.0950
     22 H3         -0.5280    1.8123    0.9069 H         1 <0>         0.0958
     23 H4         -4.2450    1.4512    0.0220 H         1 <0>         0.1377
     24 H5         -6.5627    2.2753    0.0375 H         1 <0>         0.1299
     25 H6         -8.4388    0.6839    0.0474 H         1 <0>         0.1284
     26 H7         -8.0088   -1.7384    0.0435 H         1 <0>         0.1313
     27 H8         -5.6982   -2.5818    0.0170 H         1 <0>         0.1352
     28 H9          2.8109   -4.8058    1.5352 H         1 <0>         0.4315
     29 H10         2.1891   -3.4124    2.2384 H         1 <0>         0.4219
@<TRIPOS>BOND
     1    1    2 1
     2    1   20 1
     3    1   21 1
     4    1   22 1
     5    2   15 1
     6    2    3 1
     7    3    4 2
     8    3   13 1
     9    4    5 1
    10    5    6 2
    11    5    7 1
    12    7   12 ar
    13    7    8 ar
    14    8    9 ar
    15    8   23 1
    16    9   10 ar
    17    9   24 1
    18   10   11 ar
    19   10   25 1
    20   11   12 ar
    21   11   26 1
    22   12   27 1
    23   13   14 1
    24   14   15 2
    25   14   16 1
    26   16   17 2
    27   16   18 2
    28   16   19 1
    29   19   28 1
    30   19   29 1
@<TRIPOS>MOLECULE
ZINC13559595
   29    30     0     0     0
SMALL
USER_CHARGES

@<TRIPOS>ATOM
      1 C1         -0.0203    1.4569   -0.0429 C.3       1 <0>         0.0355
      2 N1         -0.0027   -0.0080   -0.0487 N.pl3     1 <0>        -0.4305
      3 C2         -1.1493   -0.7161    0.0800 C.2       1 <0>         0.3198
      4 N2         -2.3945   -0.2629    0.2229 N.2       1 <0>        -0.4963
      5 C3         -2.6403    1.0467    0.1501 C.2       1 <0>         0.5399
      6 O1         -2.6245    1.7271    1.1617 O.2       1 <0>        -0.4586
      7 C4         -2.9323    1.6738   -1.1599 C.ar      1 <0>        -0.1737
      8 C5         -2.9568    0.8971   -2.3180 C.ar      1 <0>        -0.0740
      9 C6         -3.2299    1.4869   -3.5352 C.ar      1 <0>        -0.1264
     10 C7         -3.4791    2.8458   -3.6082 C.ar      1 <0>        -0.0759
     11 C8         -3.4558    3.6215   -2.4629 C.ar      1 <0>        -0.1263
     12 C9         -3.1896    3.0423   -1.2392 C.ar      1 <0>        -0.0545
     13 S1         -0.6144   -2.3088    0.0144 S.3       1 <0>         0.4778
     14 C10         1.1302   -2.0013   -0.1836 C.2       1 <0>        -0.2503
     15 N3          1.1812   -0.6998   -0.1910 N.pl3     1 <0>        -0.2620
     16 S2          2.4478   -3.1610   -0.3372 S.o2      1 <0>         2.5136
     17 O2          2.0025   -4.1645   -1.2394 O.2       1 <0>        -0.9692
     18 O3          3.6300   -2.4053   -0.5615 O.2       1 <0>        -0.9917
     19 N4          2.6279   -3.8954    1.1361 N.2       1 <0>        -1.2656
     20 H1          1.0023    1.8327   -0.0757 H         1 <0>         0.1216
     21 H2         -0.5678    1.8171   -0.9139 H         1 <0>         0.1109
     22 H3         -0.5086    1.8108    0.8650 H         1 <0>         0.1237
     23 H4         -2.7620   -0.1637   -2.2624 H         1 <0>         0.1284
     24 H5         -3.2487    0.8866   -4.4328 H         1 <0>         0.1362
     25 H6         -3.6924    3.3029   -4.5631 H         1 <0>         0.1353
     26 H7         -3.6505    4.6820   -2.5262 H         1 <0>         0.1376
     27 H8         -3.1765    3.6480   -0.3451 H         1 <0>         0.1398
     28 H9          3.3099   -4.5740    1.2597 H         1 <0>         0.3570
     29 H10         2.0254   -0.2324   -0.2901 H         1 <0>         0.4779
@<TRIPOS>BOND
     1    1    2 1
     2    1   20 1
     3    1   21 1
     4    1   22 1
     5    2   15 1
     6    2    3 1
     7    3    4 2
     8    3   13 1
     9    4    5 1
    10    5    6 2
    11    5    7 1
    12    7   12 ar
    13    7    8 ar
    14    8    9 ar
    15    8   23 1
    16    9   10 ar
    17    9   24 1
    18   10   11 ar
    19   10   25 1
    20   11   12 ar
    21   11   26 1
    22   12   27 1
    23   13   14 1
    24   14   15 2
    25   14   16 1
    26   15   29 1
    27   16   17 2
    28   16   18 2
    29   16   19 1
    30   19   28 1
@<TRIPOS>MOLECULE
ZINC13559595
   29    30     0     0     0
SMALL
USER_CHARGES

@<TRIPOS>ATOM
      1 C1         -0.0178    1.4608    0.0101 C.3       1 <0>         0.0675
      2 N1          0.0021   -0.0041    0.0020 N.pl3     1 <0>        -0.3875
      3 C2         -1.1508   -0.7136    0.0040 C.2       1 <0>         0.3509
      4 N2         -2.4047   -0.2618    0.0129 N.2       1 <0>        -0.5398
      5 C3         -3.4241   -1.1229    0.0134 C.2       1 <0>         0.5391
      6 O1         -3.2085   -2.3229    0.0057 O.2       1 <0>        -0.5017
      7 C4         -4.8178   -0.6207    0.0232 C.ar      1 <0>        -0.1269
      8 C5         -5.0677    0.7514    0.0261 C.ar      1 <0>        -0.0558
      9 C6         -6.3679    1.2130    0.0348 C.ar      1 <0>        -0.1360
     10 C7         -7.4227    0.3178    0.0406 C.ar      1 <0>        -0.0792
     11 C8         -7.1813   -1.0444    0.0382 C.ar      1 <0>        -0.1309
     12 C9         -5.8854   -1.5182    0.0237 C.ar      1 <0>        -0.0547
     13 S1         -0.6101   -2.3056   -0.0080 S.3       1 <0>         0.4492
     14 C10         1.1453   -1.9959   -0.0155 C.2       1 <0>        -0.2787
     15 N3          1.1953   -0.6945   -0.0136 N.pl3     1 <0>        -0.2601
     16 S2          2.4732   -3.1541   -0.0292 S.o2      1 <0>         2.5177
     17 O2          2.1291   -4.1552   -0.9772 O.2       1 <0>        -0.9706
     18 O3          3.6718   -2.3966   -0.1223 O.2       1 <0>        -0.9954
     19 N4          2.4939   -3.8927    1.4528 N.2       1 <0>        -1.2682
     20 H1          1.0048    1.8381    0.0023 H         1 <0>         0.1109
     21 H2         -0.5450    1.8219   -0.8730 H         1 <0>         0.1179
     22 H3         -0.5280    1.8123    0.9069 H         1 <0>         0.1192
     23 H4         -4.2450    1.4512    0.0220 H         1 <0>         0.1379
     24 H5         -6.5627    2.2753    0.0375 H         1 <0>         0.1325
     25 H6         -8.4388    0.6839    0.0474 H         1 <0>         0.1315
     26 H7         -8.0088   -1.7384    0.0435 H         1 <0>         0.1350
     27 H8         -5.6982   -2.5818    0.0170 H         1 <0>         0.1389
     28 H9          3.1594   -4.5711    1.6473 H         1 <0>         0.3562
     29 H10         2.0446   -0.2260   -0.0195 H         1 <0>         0.4810
@<TRIPOS>BOND
     1    1    2 1
     2    1   20 1
     3    1   21 1
     4    1   22 1
     5    2   15 1
     6    2    3 1
     7    3    4 2
     8    3   13 1
     9    4    5 1
    10    5    6 2
    11    5    7 1
    12    7   12 ar
    13    7    8 ar
    14    8    9 ar
    15    8   23 1
    16    9   10 ar
    17    9   24 1
    18   10   11 ar
    19   10   25 1
    20   11   12 ar
    21   11   26 1
    22   12   27 1
    23   13   14 1
    24   14   15 2
    25   14   16 1
    26   15   29 1
    27   16   17 2
    28   16   18 2
    29   16   19 1
    30   19   28 1
@<TRIPOS>MOLECULE
ZINC05925092
   26    27     0     0     0
SMALL
USER_CHARGES

@<TRIPOS>ATOM
      1 C1         -0.0167    1.3794    0.0096 C.ar      1 <0>        -0.0817
      2 C2          1.1683    2.0936    0.0021 C.ar      1 <0>        -0.1231
      3 C3          2.3774    1.4295   -0.0134 C.ar      1 <0>        -0.0494
      4 C4          2.4035    0.0338   -0.0212 C.ar      1 <0>        -0.1401
      5 C5          1.2042   -0.6806   -0.0131 C.ar      1 <0>        -0.0854
      6 C6          0.0021   -0.0041    0.0020 C.ar      1 <0>        -0.1234
      7 C7          3.6952   -0.6843   -0.0384 C.2       1 <0>         0.5582
      8 O1          4.7379   -0.0595   -0.0458 O.2       1 <0>        -0.4494
      9 N1          3.7170   -2.0319   -0.0459 N.am      1 <0>        -0.6052
     10 C8          4.9315   -2.7071   -0.0620 C.2       1 <0>         0.3237
     11 N2          6.1704   -2.2346   -0.0664 N.2       1 <0>        -0.2919
     12 N3          7.1738   -2.9986   -0.0819 N.2       1 <0>        -0.1257
     13 C9          7.0562   -4.3116   -0.0947 C.2       1 <0>        -0.5449
     14 S1          5.2723   -4.4650   -0.0750 S.3       1 <0>         0.1313
     15 S2          8.2998   -5.5596   -0.1171 S.o2      1 <0>         2.7471
     16 O2          8.6994   -5.7590    1.2319 O.2       1 <0>        -0.9344
     17 O3          7.8016   -6.6148   -0.9280 O.2       1 <0>        -0.9337
     18 N4          9.6102   -4.9309   -0.9109 N.pl3     1 <0>        -1.2308
     19 H1         -0.9605    1.9041    0.0260 H         1 <0>         0.1337
     20 H2          1.1467    3.1734    0.0082 H         1 <0>         0.1370
     21 H3          3.3017    1.9882   -0.0200 H         1 <0>         0.1416
     22 H4          1.2175   -1.7605   -0.0194 H         1 <0>         0.1258
     23 H5         -0.9265   -0.5555    0.0079 H         1 <0>         0.1353
     24 H6          2.8849   -2.5304   -0.0400 H         1 <0>         0.4336
     25 H7         10.5047   -5.2273   -0.6809 H         1 <0>         0.4285
     26 H8          9.4832   -4.2662   -1.6058 H         1 <0>         0.4234
@<TRIPOS>BOND
     1    1    6 ar
     2    1    2 ar
     3    1   19 1
     4    2    3 ar
     5    2   20 1
     6    3    4 ar
     7    3   21 1
     8    4    5 ar
     9    4    7 1
    10    5    6 ar
    11    5   22 1
    12    6   23 1
    13    7    8 2
    14    7    9 am
    15    9   10 1
    16    9   24 1
    17   10   14 1
    18   10   11 2
    19   11   12 1
    20   12   13 2
    21   13   14 1
    22   13   15 1
    23   15   16 2
    24   15   17 2
    25   15   18 1
    26   18   25 1
    27   18   26 1
@<TRIPOS>MOLECULE
ZINC05925092
   25    26     0     0     0
SMALL
USER_CHARGES

@<TRIPOS>ATOM
      1 C1         -0.0167    1.3794    0.0096 C.ar      1 <0>        -0.0905
      2 C2          1.1683    2.0936    0.0021 C.ar      1 <0>        -0.1253
      3 C3          2.3774    1.4295   -0.0134 C.ar      1 <0>        -0.0532
      4 C4          2.4035    0.0338   -0.0212 C.ar      1 <0>        -0.1294
      5 C5          1.2042   -0.6806   -0.0131 C.ar      1 <0>        -0.0867
      6 C6          0.0021   -0.0041    0.0020 C.ar      1 <0>        -0.1253
      7 C7          3.6952   -0.6843   -0.0384 C.2       1 <0>         0.5527
      8 O1          4.7379   -0.0595   -0.0458 O.2       1 <0>        -0.4569
      9 N1          3.7170   -2.0319   -0.0459 N.am      1 <0>        -0.6078
     10 C8          4.9315   -2.7071   -0.0620 C.2       1 <0>         0.2814
     11 N2          6.1704   -2.2346   -0.0664 N.2       1 <0>        -0.2909
     12 N3          7.1738   -2.9986   -0.0819 N.2       1 <0>        -0.1513
     13 C9          7.0562   -4.3116   -0.0947 C.2       1 <0>        -0.3856
     14 S1          5.2723   -4.4650   -0.0750 S.3       1 <0>         0.0374
     15 S2          8.2998   -5.5596   -0.1171 S.o2      1 <0>         2.5986
     16 O2          8.6994   -5.7590    1.2319 O.2       1 <0>        -1.0349
     17 O3          7.8016   -6.6148   -0.9280 O.2       1 <0>        -1.0400
     18 N4          9.6102   -4.9309   -0.9109 N.2       1 <0>        -1.3105
     19 H1         -0.9605    1.9041    0.0260 H         1 <0>         0.1294
     20 H2          1.1467    3.1734    0.0082 H         1 <0>         0.1333
     21 H3          3.3017    1.9882   -0.0200 H         1 <0>         0.1410
     22 H4          1.2175   -1.7605   -0.0194 H         1 <0>         0.1267
     23 H5         -0.9265   -0.5555    0.0079 H         1 <0>         0.1319
     24 H6          2.8849   -2.5304   -0.0400 H         1 <0>         0.4260
     25 H7         10.4089   -5.4683   -1.0299 H         1 <0>         0.3301
@<TRIPOS>BOND
     1    1    6 ar
     2    1    2 ar
     3    1   19 1
     4    2    3 ar
     5    2   20 1
     6    3    4 ar
     7    3   21 1
     8    4    5 ar
     9    4    7 1
    10    5    6 ar
    11    5   22 1
    12    6   23 1
    13    7    8 2
    14    7    9 am
    15    9   10 1
    16    9   24 1
    17   10   14 1
    18   10   11 2
    19   11   12 1
    20   12   13 2
    21   13   14 1
    22   13   15 1
    23   15   16 2
    24   15   17 2
    25   15   18 1
    26   18   25 1
@<TRIPOS>MOLECULE
ZINC05417663
   33    33     0     0     0
SMALL
USER_CHARGES

@<TRIPOS>ATOM
      1 C1         -0.0124    1.5255    0.0146 C.3       1 <0>        -0.1545
      2 C2          0.0119   -0.0043    0.0080 C.3       1 <0>        -0.1251
      3 C3          0.7205   -0.4976   -1.2551 C.3       1 <0>        -0.1073
      4 C4          0.7448   -2.0274   -1.2617 C.3       1 <0>        -0.1396
      5 C5          1.4427   -2.5134   -2.5058 C.2       1 <0>         0.5135
      6 O1          1.8779   -1.7147   -3.3082 O.2       1 <0>        -0.5109
      7 N1          1.5834   -3.8354   -2.7268 N.am      1 <0>        -0.6800
      8 C6          2.1442   -4.2885   -3.9260 C.ar      1 <0>         0.2057
      9 C7          1.6818   -5.4598   -4.5116 C.ar      1 <0>        -0.1682
     10 C8          2.2374   -5.9044   -5.6952 C.ar      1 <0>         0.0022
     11 C9          3.2531   -5.1846   -6.2973 C.ar      1 <0>        -0.6936
     12 C10         3.7160   -4.0181   -5.7166 C.ar      1 <0>         0.0020
     13 C11         3.1603   -3.5649   -4.5362 C.ar      1 <0>        -0.1452
     14 S1          3.9592   -5.7552   -7.8074 S.o2      1 <0>         2.7038
     15 O2          5.2633   -5.1957   -7.8829 O.2       1 <0>        -0.9633
     16 O3          3.7271   -7.1561   -7.8605 O.2       1 <0>        -0.9642
     17 N2          3.0837   -5.0833   -9.0421 N.pl3     1 <0>        -1.2503
     18 H1          1.0092    1.9052   -0.0007 H         1 <0>         0.0554
     19 H2         -0.5465    1.8842   -0.8652 H         1 <0>         0.0552
     20 H3         -0.5172    1.8770    0.9145 H         1 <0>         0.0558
     21 H4          0.5461   -0.3630    0.8879 H         1 <0>         0.0630
     22 H5         -1.0097   -0.3840    0.0233 H         1 <0>         0.0628
     23 H6          0.1863   -0.1390   -2.1349 H         1 <0>         0.0715
     24 H7          1.7421   -0.1180   -1.2704 H         1 <0>         0.0718
     25 H8          1.2790   -2.3861   -0.3818 H         1 <0>         0.1000
     26 H9         -0.2768   -2.4071   -1.2464 H         1 <0>         0.0999
     27 H10         1.2959   -4.4728   -2.0545 H         1 <0>         0.4169
     28 H11         0.8889   -6.0227   -4.0416 H         1 <0>         0.1385
     29 H12         1.8786   -6.8155   -6.1509 H         1 <0>         0.1482
     30 H13         4.5096   -3.4583   -6.1891 H         1 <0>         0.1473
     31 H14         3.5188   -2.6511   -4.0858 H         1 <0>         0.1504
     32 H15         2.3374   -4.4963   -8.8438 H         1 <0>         0.4169
     33 H16         3.3172   -5.2768   -9.9634 H         1 <0>         0.4213
@<TRIPOS>BOND
     1    1    2 1
     2    1   18 1
     3    1   19 1
     4    1   20 1
     5    2    3 1
     6    2   21 1
     7    2   22 1
     8    3    4 1
     9    3   23 1
    10    3   24 1
    11    4    5 1
    12    4   25 1
    13    4   26 1
    14    5    6 2
    15    5    7 am
    16    7    8 1
    17    7   27 1
    18    8   13 ar
    19    8    9 ar
    20    9   10 ar
    21    9   28 1
    22   10   11 ar
    23   10   29 1
    24   11   12 ar
    25   11   14 1
    26   12   13 ar
    27   12   30 1
    28   13   31 1
    29   14   15 2
    30   14   16 2
    31   14   17 1
    32   17   32 1
    33   17   33 1
@<TRIPOS>MOLECULE
ZINC00993502
   24    24     0     0     0
SMALL
USER_CHARGES

@<TRIPOS>ATOM
      1 C1         -0.0126    1.3742    0.1927 C.ar      1 <0>        -0.1417
      2 C2          1.1737    2.0815    0.1899 C.ar      1 <0>         0.0027
      3 C3          2.3739    1.4208    0.0022 C.ar      1 <0>        -0.6877
      4 C4          2.3906    0.0505   -0.1827 C.ar      1 <0>         0.0065
      5 C5          1.2079   -0.6626   -0.1805 C.ar      1 <0>        -0.1557
      6 C6          0.0009   -0.0020    0.0073 C.ar      1 <0>         0.1957
      7 N1         -1.1992   -0.7216    0.0101 N.am      1 <0>        -0.6505
      8 C7         -2.3250   -0.1564   -0.4690 C.2       1 <0>         0.4847
      9 O1         -2.2799    0.9382   -0.9896 O.2       1 <0>        -0.4443
     10 C8         -3.6398   -0.8843   -0.3578 C.3       1 <0>         0.4587
     11 F1         -4.6545   -0.1029   -0.9210 F         1 <0>        -0.1452
     12 F2         -3.5571   -2.1032   -1.0394 F         1 <0>        -0.1622
     13 F3         -3.9285   -1.1224    0.9902 F         1 <0>        -0.1612
     14 S1          3.8850    2.3270   -0.0019 S.o2      1 <0>         2.7040
     15 O2          4.8205    1.5533   -0.7404 O.2       1 <0>        -0.9603
     16 O3          3.5558    3.6639   -0.3537 O.2       1 <0>        -0.9573
     17 N2          4.4343    2.3701    1.5597 N.pl3     1 <0>        -1.2475
     18 H1         -0.9493    1.8902    0.3434 H         1 <0>         0.1465
     19 H2          1.1639    3.1518    0.3340 H         1 <0>         0.1518
     20 H3          3.3296   -0.4625   -0.3294 H         1 <0>         0.1524
     21 H4          1.2216   -1.7328   -0.3253 H         1 <0>         0.1440
     22 H5         -1.2208   -1.6272    0.3569 H         1 <0>         0.4263
     23 H6          5.3869    2.4126    1.7377 H         1 <0>         0.4229
     24 H7          3.8035    2.3528    2.2964 H         1 <0>         0.4174
@<TRIPOS>BOND
     1    1    6 ar
     2    1    2 ar
     3    1   18 1
     4    2    3 ar
     5    2   19 1
     6    3    4 ar
     7    3   14 1
     8    4    5 ar
     9    4   20 1
    10    5    6 ar
    11    5   21 1
    12    6    7 1
    13    7    8 am
    14    7   22 1
    15    8    9 2
    16    8   10 1
    17   10   11 1
    18   10   12 1
    19   10   13 1
    20   14   15 2
    21   14   16 2
    22   14   17 1
    23   17   23 1
    24   17   24 1
@<TRIPOS>MOLECULE
ZINC00001644
   23    23     0     0     0
SMALL
USER_CHARGES

@<TRIPOS>ATOM
      1 C1         -0.0167    1.3781    0.0096 C.ar      1 <0>        -0.1137
      2 C2          1.1709    2.0855    0.0021 C.ar      1 <0>        -0.0132
      3 C3          2.3773    1.4107   -0.0130 C.ar      1 <0>        -0.6459
      4 C4          2.3960    0.0285   -0.0201 C.ar      1 <0>        -0.0133
      5 C5          1.2085   -0.6789   -0.0117 C.ar      1 <0>        -0.1136
      6 C6          0.0021   -0.0041    0.0020 C.ar      1 <0>        -0.1157
      7 C7         -1.2926   -0.7753    0.0107 C.3       1 <0>         0.0413
      8 N1         -1.7270   -1.0184   -1.3714 N.4       1 <0>        -0.6365
      9 S1          3.8911    2.3124   -0.0238 S.o2      1 <0>         2.6971
     10 O1          4.8717    1.4529   -0.5884 O.2       1 <0>        -0.9502
     11 O2          3.5973    3.5927   -0.5658 O.2       1 <0>        -0.9502
     12 N2          4.3274    2.5556    1.5551 N.pl3     1 <0>        -1.2462
     13 H1         -0.9591    1.9053    0.0259 H         1 <0>         0.1458
     14 H2          1.1563    3.1654    0.0076 H         1 <0>         0.1576
     15 H3          3.3385   -0.4987   -0.0326 H         1 <0>         0.1576
     16 H4          1.2231   -1.7588   -0.0179 H         1 <0>         0.1458
     17 H5         -1.1443   -1.7285    0.5180 H         1 <0>         0.1464
     18 H6         -2.0551   -0.1993    0.5352 H         1 <0>         0.1464
     19 H7         -1.8643   -0.1360   -1.8410 H         1 <0>         0.4368
     20 H8         -1.0212   -1.5515   -1.8569 H         1 <0>         0.4368
     21 H9          3.7682    2.2150    2.2708 H         1 <0>         0.4171
     22 H10         5.1421    3.0386    1.7642 H         1 <0>         0.4281
     23 H11        -2.5939   -1.5347   -1.3656 H         1 <0>         0.4418
@<TRIPOS>BOND
     1    1    6 ar
     2    1    2 ar
     3    1   13 1
     4    2    3 ar
     5    2   14 1
     6    3    4 ar
     7    3    9 1
     8    4    5 ar
     9    4   15 1
    10    5    6 ar
    11    5   16 1
    12    6    7 1
    13    7    8 1
    14    7   17 1
    15    7   18 1
    16    8   19 1
    17    8   20 1
    18    8   23 1
    19    9   10 2
    20    9   11 2
    21    9   12 1
    22   12   21 1
    23   12   22 1
@<TRIPOS>MOLECULE
ZINC00134036
   24    24     0     0     0
SMALL
USER_CHARGES

@<TRIPOS>ATOM
      1 C1         -2.1938    1.4701    0.6085 C.3       1 <0>        -0.1740
      2 C2         -2.1691   -0.0367    0.6077 C.2       1 <0>         0.5122
      3 O1         -3.0611   -0.6581    1.1455 O.2       1 <0>        -0.5177
      4 N1         -1.1558   -0.6938    0.0094 N.am      1 <0>        -0.6795
      5 C3         -1.0812   -2.0886    0.0915 C.ar      1 <0>         0.2044
      6 C4          0.1549   -2.7155    0.1777 C.ar      1 <0>        -0.1678
      7 C5          0.2252   -4.0924    0.2586 C.ar      1 <0>         0.0021
      8 C6         -0.9337   -4.8468    0.2538 C.ar      1 <0>        -0.6934
      9 C7         -2.1662   -4.2257    0.1675 C.ar      1 <0>         0.0020
     10 C8         -2.2435   -2.8487    0.0926 C.ar      1 <0>        -0.1454
     11 S1         -0.8398   -6.6033    0.3571 S.o2      1 <0>         2.7041
     12 O2         -2.0382   -7.1084   -0.2156 O.2       1 <0>        -0.9633
     13 O3          0.4469   -6.9700   -0.1215 O.2       1 <0>        -0.9642
     14 N2         -0.8785   -7.0020    1.9639 N.pl3     1 <0>        -1.2503
     15 H1         -3.0822    1.8186    1.1352 H         1 <0>         0.1003
     16 H2         -1.3026    1.8478    1.1098 H         1 <0>         0.0948
     17 H3         -2.2144    1.8337   -0.4188 H         1 <0>         0.0950
     18 H4         -0.4782   -0.1997   -0.4782 H         1 <0>         0.4176
     19 H5          1.0605   -2.1269    0.1812 H         1 <0>         0.1387
     20 H6          1.1863   -4.5806    0.3253 H         1 <0>         0.1484
     21 H7         -3.0695   -4.8176    0.1636 H         1 <0>         0.1476
     22 H8         -3.2065   -2.3639    0.0305 H         1 <0>         0.1503
     23 H9         -0.9428   -6.3047    2.6352 H         1 <0>         0.4170
     24 H10        -0.8369   -7.9327    2.2338 H         1 <0>         0.4213
@<TRIPOS>BOND
     1    1    2 1
     2    1   15 1
     3    1   16 1
     4    1   17 1
     5    2    3 2
     6    2    4 am
     7    4    5 1
     8    4   18 1
     9    5   10 ar
    10    5    6 ar
    11    6    7 ar
    12    6   19 1
    13    7    8 ar
    14    7   20 1
    15    8    9 ar
    16    8   11 1
    17    9   10 ar
    18    9   21 1
    19   10   22 1
    20   11   12 2
    21   11   13 2
    22   11   14 1
    23   14   23 1
    24   14   24 1
@<TRIPOS>MOLECULE
ZINC00056629
   26    26     0     0     0
SMALL
USER_CHARGES

@<TRIPOS>ATOM
      1 C1         -0.0167    1.3781    0.0096 C.ar      1 <0>        -0.1310
      2 C2          1.1709    2.0855    0.0021 C.ar      1 <0>        -0.0118
      3 C3          2.3773    1.4107   -0.0130 C.ar      1 <0>        -0.6631
      4 C4          2.3960    0.0285   -0.0201 C.ar      1 <0>        -0.0118
      5 C5          1.2085   -0.6789   -0.0117 C.ar      1 <0>        -0.1310
      6 C6          0.0021   -0.0041    0.0020 C.ar      1 <0>        -0.0517
      7 C7         -1.2926   -0.7753    0.0107 C.3       1 <0>        -0.1123
      8 C8         -1.7450   -1.0285   -1.4288 C.3       1 <0>        -0.0066
      9 N1         -3.0071   -1.7802   -1.4203 N.4       1 <0>        -0.6375
     10 S1          3.8911    2.3124   -0.0238 S.o2      1 <0>         2.6984
     11 O1          4.8717    1.4529   -0.5884 O.2       1 <0>        -0.9553
     12 O2          3.5973    3.5927   -0.5658 O.2       1 <0>        -0.9553
     13 N2          4.3274    2.5556    1.5551 N.pl3     1 <0>        -1.2477
     14 H1         -0.9591    1.9053    0.0259 H         1 <0>         0.1380
     15 H2          1.1563    3.1654    0.0076 H         1 <0>         0.1512
     16 H3          3.3385   -0.4987   -0.0326 H         1 <0>         0.1512
     17 H4          1.2231   -1.7588   -0.0179 H         1 <0>         0.1380
     18 H5         -1.1443   -1.7285    0.5180 H         1 <0>         0.1028
     19 H6         -2.0551   -0.1993    0.5352 H         1 <0>         0.1028
     20 H7         -1.8934   -0.0752   -1.9361 H         1 <0>         0.1377
     21 H8         -0.9826   -1.6044   -1.9533 H         1 <0>         0.1377
     22 H9         -2.8698   -2.6627   -0.9508 H         1 <0>         0.4365
     23 H10        -3.7129   -1.2471   -0.9348 H         1 <0>         0.4365
     24 H11         3.7682    2.2150    2.2708 H         1 <0>         0.4166
     25 H12         5.1421    3.0386    1.7642 H         1 <0>         0.4261
     26 H13        -3.3055   -1.9473   -2.3696 H         1 <0>         0.4414
@<TRIPOS>BOND
     1    1    6 ar
     2    1    2 ar
     3    1   14 1
     4    2    3 ar
     5    2   15 1
     6    3    4 ar
     7    3   10 1
     8    4    5 ar
     9    4   16 1
    10    5    6 ar
    11    5   17 1
    12    6    7 1
    13    7    8 1
    14    7   18 1
    15    7   19 1
    16    8    9 1
    17    8   20 1
    18    8   21 1
    19    9   22 1
    20    9   23 1
    21    9   26 1
    22   10   11 2
    23   10   12 2
    24   10   13 1
    25   13   24 1
    26   13   25 1
