@<TRIPOS>MOLECULE
ZINC00897234
   28    29     0     0     0
SMALL
USER_CHARGES

@<TRIPOS>ATOM
      1 C1         -0.0166    1.3759    0.0096 C.ar      1 <0>        -0.1949
      2 C2          1.1783    2.0936    0.0021 C.ar      1 <0>         0.3458
      3 C3          2.3808    1.4000   -0.0226 C.ar      1 <0>        -0.7434
      4 C4          2.3964    0.0207   -0.0201 C.ar      1 <0>         0.1333
      5 C5          1.2072   -0.6851   -0.0088 C.ar      1 <0>        -0.7302
      6 C6          0.0021   -0.0041    0.0020 C.ar      1 <0>         0.1337
      7 Cl1        -1.4913   -0.8891    0.0060 Cl        1 <0>        -0.0137
      8 S1          1.2260   -2.4470   -0.0082 S.o2      1 <0>         2.7016
      9 O1          0.3250   -2.8631   -1.0253 O.2       1 <0>        -0.9417
     10 O2          2.5919   -2.8386    0.0064 O.2       1 <0>        -0.9529
     11 N1          0.5759   -2.9431    1.4318 N.pl3     1 <0>        -1.2432
     12 S2          3.9028    2.2971   -0.0763 S.o2      1 <0>         2.6801
     13 O3          4.3733    2.2366   -1.4158 O.2       1 <0>        -0.9287
     14 O4          4.6796    1.8636    1.0318 O.2       1 <0>        -0.9302
     15 N2          3.4725    3.8817    0.2181 N.pl3     1 <0>        -1.1055
     16 C7          2.2211    4.3393   -0.4192 C.3       1 <0>         0.3697
     17 H1          2.0212    5.3718   -0.1326 H         1 <0>         0.1559
     18 N3          1.1259    3.4846    0.0324 N.pl3     1 <0>        -0.7331
     19 C8          2.3558    4.2457   -1.9404 C.3       1 <0>         0.0047
     20 Cl2         0.8266    4.8050   -2.7146 Cl        1 <0>        -0.1025
     21 Cl3         3.7224    5.2867   -2.4879 Cl        1 <0>        -0.0892
     22 H2         -0.9601    1.9014    0.0260 H         1 <0>         0.1584
     23 H3          3.3379   -0.5083   -0.0273 H         1 <0>         0.1669
     24 H4          0.0997   -3.7866    1.4840 H         1 <0>         0.4253
     25 H5          0.6713   -2.3902    2.2231 H         1 <0>         0.4183
     26 H6          4.0112    4.4668    0.7734 H         1 <0>         0.4414
     27 H7          0.3211    3.9077    0.3703 H         1 <0>         0.4286
     28 H8          2.5501    3.2117   -2.2250 H         1 <0>         0.1453
@<TRIPOS>BOND
     1    1    6 ar
     2    1    2 ar
     3    1   22 1
     4    2   18 1
     5    2    3 ar
     6    3    4 ar
     7    3   12 1
     8    4    5 ar
     9    4   23 1
    10    5    6 ar
    11    5    8 1
    12    6    7 1
    13    8    9 2
    14    8   10 2
    15    8   11 1
    16   11   24 1
    17   11   25 1
    18   12   13 2
    19   12   14 2
    20   12   15 1
    21   15   16 1
    22   15   26 1
    23   16   17 1
    24   16   18 1
    25   16   19 1
    26   18   27 1
    27   19   20 1
    28   19   21 1
    29   19   28 1
@<TRIPOS>MOLECULE
ZINC00897234
   27    28     0     0     0
SMALL
USER_CHARGES

@<TRIPOS>ATOM
      1 C1         -0.0166    1.3759    0.0096 C.ar      1 <0>        -0.2182
      2 C2          1.1783    2.0936    0.0021 C.ar      1 <0>         0.3666
      3 C3          2.3810    1.3999   -0.0038 C.ar      1 <0>        -0.7297
      4 C4          2.3964    0.0208   -0.0214 C.ar      1 <0>         0.1173
      5 C5          1.2071   -0.6851   -0.0176 C.ar      1 <0>        -0.7492
      6 C6          0.0021   -0.0041    0.0020 C.ar      1 <0>         0.1156
      7 Cl1        -1.4912   -0.8892    0.0171 Cl        1 <0>        -0.0510
      8 S1          1.2257   -2.4469   -0.0375 S.o2      1 <0>         2.7044
      9 O1          0.3240   -2.8510   -1.0587 O.2       1 <0>        -0.9572
     10 O2          2.5915   -2.8387   -0.0283 O.2       1 <0>        -0.9676
     11 N1          0.5765   -2.9596    1.3971 N.pl3     1 <0>        -1.2491
     12 S2          3.9039    2.2965    0.0305 S.o2      1 <0>         2.5613
     13 O3          4.6586    1.8762   -1.0977 O.2       1 <0>        -0.9938
     14 O4          4.4006    2.2204    1.3597 O.2       1 <0>        -1.0319
     15 N2          3.4681    3.8842   -0.2385 N.2       1 <0>        -1.0605
     16 C7          2.2292    4.3347    0.4274 C.3       1 <0>         0.3386
     17 H1          2.3449    4.2538    1.5082 H         1 <0>         0.0643
     18 N3          1.1255    3.4848   -0.0123 N.pl3     1 <0>        -0.7365
     19 C8          1.9433    5.7895    0.0494 C.3       1 <0>         0.0974
     20 Cl2         3.3189    6.8290    0.5766 Cl        1 <0>        -0.1226
     21 Cl3         1.7435    5.9179   -1.7379 Cl        1 <0>        -0.1352
     22 H2         -0.9601    1.9014    0.0260 H         1 <0>         0.1407
     23 H3          3.3378   -0.5082   -0.0387 H         1 <0>         0.1498
     24 H4          0.2752   -2.3110    2.0524 H         1 <0>         0.4155
     25 H5          0.4976   -3.9085    1.5821 H         1 <0>         0.4179
     26 H6          0.3146    3.9114   -0.3308 H         1 <0>         0.3923
     27 H7          1.0287    6.1198    0.5419 H         1 <0>         0.1210
@<TRIPOS>BOND
     1    1    6 ar
     2    1    2 ar
     3    1   22 1
     4    2   18 1
     5    2    3 ar
     6    3    4 ar
     7    3   12 1
     8    4    5 ar
     9    4   23 1
    10    5    6 ar
    11    5    8 1
    12    6    7 1
    13    8    9 2
    14    8   10 2
    15    8   11 1
    16   11   24 1
    17   11   25 1
    18   12   13 2
    19   12   14 2
    20   12   15 1
    21   15   16 1
    22   16   17 1
    23   16   18 1
    24   16   19 1
    25   18   26 1
    26   19   20 1
    27   19   21 1
    28   19   27 1
@<TRIPOS>MOLECULE
ZINC00897236
   28    29     0     0     0
SMALL
USER_CHARGES

@<TRIPOS>ATOM
      1 C1         -0.0880    1.4298    0.0212 C.ar      1 <0>        -0.1953
      2 C2          1.1239    2.1185    0.0097 C.ar      1 <0>         0.3454
      3 C3          2.3095    1.3960    0.0037 C.ar      1 <0>        -0.7433
      4 C4          2.2916    0.0168   -0.0104 C.ar      1 <0>         0.1334
      5 C5          1.0857   -0.6601   -0.0027 C.ar      1 <0>        -0.7301
      6 C6         -0.1025    0.0498    0.0172 C.ar      1 <0>         0.1339
      7 Cl1        -1.6167   -0.7991    0.0372 Cl        1 <0>        -0.0139
      8 S1          1.0618   -2.4219   -0.0180 S.o2      1 <0>         2.7020
      9 O1          0.1489   -2.8068   -1.0366 O.2       1 <0>        -0.9422
     10 O2          2.4179   -2.8465   -0.0101 O.2       1 <0>        -0.9529
     11 N1          0.4031   -2.9152    1.4190 N.pl3     1 <0>        -1.2432
     12 S2          3.8536    2.2557    0.0330 S.o2      1 <0>         2.6800
     13 O3          4.5960    1.8145   -1.0954 O.2       1 <0>        -0.9299
     14 O4          4.3507    2.1711    1.3615 O.2       1 <0>        -0.9283
     15 N2          3.4557    3.8528   -0.2394 N.pl3     1 <0>        -1.1055
     16 C7          2.2292    4.3347    0.4274 C.3       1 <0>         0.3692
     17 H1          2.0485    5.3742    0.1535 H         1 <0>         0.1558
     18 N3          1.1045    3.5105   -0.0082 N.pl3     1 <0>        -0.7334
     19 C8          2.3930    4.2248    1.9447 C.3       1 <0>         0.0063
     20 Cl2         3.8576    5.1418    2.4591 Cl        1 <0>        -0.0877
     21 Cl3         0.9376    4.9117    2.7575 Cl        1 <0>        -0.1033
     22 H2         -1.0184    1.9779    0.0378 H         1 <0>         0.1583
     23 H3          3.2200   -0.5347   -0.0279 H         1 <0>         0.1669
     24 H4         -0.0932   -3.7473    1.4648 H         1 <0>         0.4254
     25 H5          0.5135   -2.3719    2.2150 H         1 <0>         0.4185
     26 H6          3.9969    4.4295   -0.8011 H         1 <0>         0.4415
     27 H7          0.3036    3.9557   -0.3264 H         1 <0>         0.4288
     28 H8          2.5040    3.1769    2.2231 H         1 <0>         0.1438
@<TRIPOS>BOND
     1    1    6 ar
     2    1    2 ar
     3    1   22 1
     4    2   18 1
     5    2    3 ar
     6    3    4 ar
     7    3   12 1
     8    4    5 ar
     9    4   23 1
    10    5    6 ar
    11    5    8 1
    12    6    7 1
    13    8    9 2
    14    8   10 2
    15    8   11 1
    16   11   24 1
    17   11   25 1
    18   12   13 2
    19   12   14 2
    20   12   15 1
    21   15   16 1
    22   15   26 1
    23   16   17 1
    24   16   18 1
    25   16   19 1
    26   18   27 1
    27   19   20 1
    28   19   21 1
    29   19   28 1
@<TRIPOS>MOLECULE
ZINC00897236
   27    28     0     0     0
SMALL
USER_CHARGES

@<TRIPOS>ATOM
      1 C1         -0.0166    1.3759    0.0096 C.ar      1 <0>        -0.2165
      2 C2          1.1783    2.0936    0.0021 C.ar      1 <0>         0.3657
      3 C3          2.3808    1.4000   -0.0226 C.ar      1 <0>        -0.7331
      4 C4          2.3964    0.0207   -0.0201 C.ar      1 <0>         0.1186
      5 C5          1.2072   -0.6851   -0.0088 C.ar      1 <0>        -0.7489
      6 C6          0.0021   -0.0041    0.0020 C.ar      1 <0>         0.1160
      7 Cl1        -1.4913   -0.8891    0.0060 Cl        1 <0>        -0.0495
      8 S1          1.2260   -2.4470   -0.0082 S.o2      1 <0>         2.7044
      9 O1          0.3250   -2.8631   -1.0253 O.2       1 <0>        -0.9569
     10 O2          2.5919   -2.8386    0.0064 O.2       1 <0>        -0.9674
     11 N1          0.5759   -2.9431    1.4318 N.pl3     1 <0>        -1.2487
     12 S2          3.9028    2.2971   -0.0763 S.o2      1 <0>         2.5709
     13 O3          4.3733    2.2366   -1.4158 O.2       1 <0>        -1.0262
     14 O4          4.6796    1.8636    1.0318 O.2       1 <0>        -0.9934
     15 N2          3.4725    3.8817    0.2181 N.2       1 <0>        -1.0786
     16 C7          2.2211    4.3393   -0.4192 C.3       1 <0>         0.3464
     17 H1          2.3161    4.2700   -1.5028 H         1 <0>         0.0596
     18 N3          1.1259    3.4846    0.0324 N.pl3     1 <0>        -0.7380
     19 C8          1.9426    5.7898   -0.0201 C.3       1 <0>         0.0996
     20 Cl2         3.3080    6.8351   -0.5623 Cl        1 <0>        -0.1137
     21 Cl3         0.4145    6.3448   -0.7998 Cl        1 <0>        -0.1689
     22 H2         -0.9601    1.9014    0.0260 H         1 <0>         0.1419
     23 H3          3.3379   -0.5083   -0.0273 H         1 <0>         0.1509
     24 H4          0.2741   -2.2870    2.0793 H         1 <0>         0.4157
     25 H5          0.4969   -3.8898    1.6277 H         1 <0>         0.4181
     26 H6          0.3211    3.9077    0.3703 H         1 <0>         0.3938
     27 H7          1.8425    5.8558    1.0633 H         1 <0>         0.1384
@<TRIPOS>BOND
     1    1    6 ar
     2    1    2 ar
     3    1   22 1
     4    2   18 1
     5    2    3 ar
     6    3    4 ar
     7    3   12 1
     8    4    5 ar
     9    4   23 1
    10    5    6 ar
    11    5    8 1
    12    6    7 1
    13    8    9 2
    14    8   10 2
    15    8   11 1
    16   11   24 1
    17   11   25 1
    18   12   13 2
    19   12   14 2
    20   12   15 1
    21   15   16 1
    22   16   17 1
    23   16   18 1
    24   16   19 1
    25   18   26 1
    26   19   20 1
    27   19   21 1
    28   19   27 1
@<TRIPOS>MOLECULE
ZINC00020253
   33    35     0     0     0
SMALL
USER_CHARGES

@<TRIPOS>ATOM
      1 C1         -0.0166    1.3752    0.0096 C.ar      1 <0>        -0.1128
      2 C2          1.1683    2.0900    0.0021 C.ar      1 <0>        -0.0853
      3 C3          2.3827    1.4248   -0.0135 C.ar      1 <0>        -0.0801
      4 C4          2.4125    0.0494   -0.0211 C.ar      1 <0>        -0.0699
      5 C5          1.2226   -0.6819   -0.0132 C.ar      1 <0>        -0.1506
      6 C6          0.0021   -0.0041    0.0020 C.ar      1 <0>        -0.0457
      7 C7          1.5619   -2.1178   -0.0242 C.2       1 <0>         0.5711
      8 O1          0.7510   -3.0233   -0.0214 O.2       1 <0>        -0.5059
      9 N1          2.8961   -2.2814   -0.0383 N.am      1 <0>        -0.7333
     10 C8          3.5334   -0.9597   -0.0376 C.3       1 <0>         0.4302
     11 C9          4.3679   -0.7865   -1.2804 C.ar      1 <0>        -0.1501
     12 C10         4.0419   -1.4766   -2.4333 C.ar      1 <0>        -0.0234
     13 C11         4.8071   -1.3185   -3.5732 C.ar      1 <0>        -0.1256
     14 C12         5.8993   -0.4690   -3.5607 C.ar      1 <0>         0.0634
     15 C13         6.2246    0.2215   -2.4071 C.ar      1 <0>        -0.6749
     16 C14         5.4554    0.0665   -1.2690 C.ar      1 <0>         0.0181
     17 S1          7.6152    1.3034   -2.3902 S.o2      1 <0>         2.6988
     18 O2          7.5000    2.1308   -3.5397 O.2       1 <0>        -0.9422
     19 O3          7.7008    1.8343   -1.0749 O.2       1 <0>        -0.9520
     20 N2          8.9647    0.3697   -2.6124 N.pl3     1 <0>        -1.2428
     21 Cl1         6.8613   -0.2704   -4.9921 Cl        1 <0>        -0.0261
     22 O4          4.3479   -0.8079    1.1267 O.3       1 <0>        -0.5328
     23 H1         -0.9606    1.8997    0.0259 H         1 <0>         0.1398
     24 H2          1.1458    3.1698    0.0081 H         1 <0>         0.1405
     25 H3          3.3058    1.9854   -0.0200 H         1 <0>         0.1355
     26 H4         -0.9249   -0.5581    0.0082 H         1 <0>         0.1386
     27 H5          3.3608   -3.1327   -0.0474 H         1 <0>         0.4250
     28 H6          3.1894   -2.1396   -2.4430 H         1 <0>         0.1437
     29 H7          4.5528   -1.8582   -4.4735 H         1 <0>         0.1513
     30 H8          5.7069    0.6087   -0.3694 H         1 <0>         0.1653
     31 H9          9.7436    0.7408   -3.0557 H         1 <0>         0.4253
     32 H10         8.9763   -0.5484   -2.2994 H         1 <0>         0.4177
     33 H11         5.0869   -1.4298    1.1735 H         1 <0>         0.3890
@<TRIPOS>BOND
     1    1    6 ar
     2    1    2 ar
     3    1   23 1
     4    2    3 ar
     5    2   24 1
     6    3    4 ar
     7    3   25 1
     8    4   10 1
     9    4    5 ar
    10    5    6 ar
    11    5    7 1
    12    6   26 1
    13    7    8 2
    14    7    9 am
    15    9   10 1
    16    9   27 1
    17   10   11 1
    18   10   22 1
    19   11   16 ar
    20   11   12 ar
    21   12   13 ar
    22   12   28 1
    23   13   14 ar
    24   13   29 1
    25   14   15 ar
    26   14   21 1
    27   15   16 ar
    28   15   17 1
    29   16   30 1
    30   17   18 2
    31   17   19 2
    32   17   20 1
    33   20   31 1
    34   20   32 1
    35   22   33 1
@<TRIPOS>MOLECULE
ZINC00057255
   33    35     0     0     0
SMALL
USER_CHARGES

@<TRIPOS>ATOM
      1 C1         -0.0166    1.3752    0.0096 C.ar      1 <0>        -0.1124
      2 C2          1.1683    2.0900    0.0021 C.ar      1 <0>        -0.0872
      3 C3          2.3827    1.4248   -0.0135 C.ar      1 <0>        -0.0799
      4 C4          2.4125    0.0494   -0.0211 C.ar      1 <0>        -0.0709
      5 C5          1.2226   -0.6819   -0.0132 C.ar      1 <0>        -0.1485
      6 C6          0.0021   -0.0041    0.0020 C.ar      1 <0>        -0.0451
      7 C7          1.5619   -2.1178   -0.0242 C.2       1 <0>         0.5701
      8 O1          0.7510   -3.0233   -0.0214 O.2       1 <0>        -0.5012
      9 N1          2.8961   -2.2814   -0.0383 N.am      1 <0>        -0.7354
     10 C8          3.5334   -0.9597   -0.0376 C.3       1 <0>         0.4314
     11 C9          4.3923   -0.7996    1.1903 C.ar      1 <0>        -0.1506
     12 C10         5.4128    0.1332    1.2029 C.ar      1 <0>        -0.0205
     13 C11         6.2011    0.2801    2.3284 C.ar      1 <0>        -0.1261
     14 C12         5.9687   -0.5063    3.4430 C.ar      1 <0>         0.0632
     15 C13         4.9474   -1.4391    3.4299 C.ar      1 <0>        -0.6746
     16 C14         4.1561   -1.5815    2.3053 C.ar      1 <0>         0.0154
     17 S1          4.6507   -2.4410    4.8487 S.o2      1 <0>         2.6964
     18 O2          4.6097   -1.5625    5.9648 O.2       1 <0>        -0.9417
     19 O3          3.5710   -3.3036    4.5181 O.2       1 <0>        -0.9518
     20 N2          5.9812   -3.4053    5.0540 N.pl3     1 <0>        -1.2423
     21 Cl1         6.9590   -0.3227    4.8570 Cl        1 <0>        -0.0262
     22 O4          4.3247   -0.7954   -1.2161 O.3       1 <0>        -0.5339
     23 H1         -0.9606    1.8997    0.0259 H         1 <0>         0.1399
     24 H2          1.1458    3.1698    0.0081 H         1 <0>         0.1395
     25 H3          3.3058    1.9854   -0.0200 H         1 <0>         0.1335
     26 H4         -0.9249   -0.5581    0.0082 H         1 <0>         0.1396
     27 H5          3.3608   -3.1327   -0.0474 H         1 <0>         0.4257
     28 H6          5.5941    0.7469    0.3329 H         1 <0>         0.1533
     29 H7          6.9986    1.0083    2.3379 H         1 <0>         0.1528
     30 H8          3.3561   -2.3069    2.2964 H         1 <0>         0.1557
     31 H9          6.2370   -3.6960    5.9434 H         1 <0>         0.4254
     32 H10         6.5049   -3.6794    4.2849 H         1 <0>         0.4175
     33 H11         5.0625   -1.4167   -1.2841 H         1 <0>         0.3885
@<TRIPOS>BOND
     1    1    6 ar
     2    1    2 ar
     3    1   23 1
     4    2    3 ar
     5    2   24 1
     6    3    4 ar
     7    3   25 1
     8    4   10 1
     9    4    5 ar
    10    5    6 ar
    11    5    7 1
    12    6   26 1
    13    7    8 2
    14    7    9 am
    15    9   10 1
    16    9   27 1
    17   10   11 1
    18   10   22 1
    19   11   16 ar
    20   11   12 ar
    21   12   13 ar
    22   12   28 1
    23   13   14 ar
    24   13   29 1
    25   14   15 ar
    26   14   21 1
    27   15   16 ar
    28   15   17 1
    29   16   30 1
    30   17   18 2
    31   17   19 2
    32   17   20 1
    33   20   31 1
    34   20   32 1
    35   22   33 1
@<TRIPOS>MOLECULE
ZINC00464036
   42    42     0     0     0
SMALL
USER_CHARGES

@<TRIPOS>ATOM
      1 C1         -0.2247    1.4384    0.0273 C.3       1 <0>        -0.1543
      2 C2         -0.0343   -0.0794   -0.0018 C.3       1 <0>        -0.1159
      3 C3          0.8488   -0.5052    1.1728 C.3       1 <0>        -0.1085
      4 C4          0.1159   -0.2311    2.4876 C.3       1 <0>        -0.1059
      5 C5          1.0571   -0.5036    3.6626 C.3       1 <0>        -0.1591
      6 C6          1.1530   -1.9772    1.0648 C.2       1 <0>         0.5177
      7 O1          0.8167   -2.7327    1.9520 O.2       1 <0>        -0.5311
      8 N1          1.7988   -2.4542   -0.0178 N.am      1 <0>        -0.7346
      9 C7          2.0945   -3.8852   -0.1228 C.3       1 <0>         0.1246
     10 C8          2.8274   -4.1594   -1.4375 C.3       1 <0>        -0.1021
     11 C9          3.1316   -5.6314   -1.5456 C.ar      1 <0>        -0.0220
     12 C10         4.3181   -6.1308   -1.0419 C.ar      1 <0>        -0.1348
     13 C11         4.5972   -7.4810   -1.1410 C.ar      1 <0>        -0.0148
     14 C12         3.6895   -8.3320   -1.7434 C.ar      1 <0>        -0.6772
     15 C13         2.5026   -7.8328   -2.2463 C.ar      1 <0>        -0.0148
     16 C14         2.2217   -6.4832   -2.1434 C.ar      1 <0>        -0.1348
     17 S1          4.0457  -10.0529   -1.8707 S.o2      1 <0>         2.7015
     18 O2          3.2807  -10.5463   -2.9618 O.2       1 <0>        -0.9626
     19 O3          5.4598  -10.1804   -1.8124 O.2       1 <0>        -0.9626
     20 N2          3.4485  -10.7787   -0.5073 N.pl3     1 <0>        -1.2498
     21 H1          0.7498    1.9266    0.0407 H         1 <0>         0.0572
     22 H2         -0.7762    1.7525   -0.8589 H         1 <0>         0.0588
     23 H3         -0.7832    1.7175    0.9207 H         1 <0>         0.0605
     24 H4         -1.0050   -0.5689    0.0773 H         1 <0>         0.0692
     25 H5          0.4429   -0.3678   -0.9384 H         1 <0>         0.0650
     26 H6          1.7801    0.0608    1.1511 H         1 <0>         0.0980
     27 H7         -0.2061    0.8100    2.5138 H         1 <0>         0.0711
     28 H8         -0.7549   -0.8826    2.5608 H         1 <0>         0.0700
     29 H9          1.3063   -1.5644    3.6900 H         1 <0>         0.0700
     30 H10         1.9691    0.0808    3.5408 H         1 <0>         0.0476
     31 H11         0.5665   -0.2215    4.5941 H         1 <0>         0.0539
     32 H12         2.0678   -1.8500   -0.7274 H         1 <0>         0.4013
     33 H13         2.7236   -4.1886    0.7140 H         1 <0>         0.0713
     34 H14         1.1632   -4.4512   -0.1011 H         1 <0>         0.0714
     35 H15         2.1983   -3.8560   -2.2744 H         1 <0>         0.0875
     36 H16         3.7587   -3.5934   -1.4592 H         1 <0>         0.0875
     37 H17         5.0273   -5.4659   -0.5712 H         1 <0>         0.1358
     38 H18         5.5245   -7.8711   -0.7480 H         1 <0>         0.1451
     39 H19         1.7936   -8.4976   -2.7172 H         1 <0>         0.1451
     40 H20         1.2927   -6.0937   -2.5329 H         1 <0>         0.1358
     41 H21         3.0020  -10.2464    0.1696 H         1 <0>         0.4171
     42 H22         3.5451  -11.7362   -0.3857 H         1 <0>         0.4219
@<TRIPOS>BOND
     1    1    2 1
     2    1   21 1
     3    1   22 1
     4    1   23 1
     5    2    3 1
     6    2   24 1
     7    2   25 1
     8    3    4 1
     9    3    6 1
    10    3   26 1
    11    4    5 1
    12    4   27 1
    13    4   28 1
    14    5   29 1
    15    5   30 1
    16    5   31 1
    17    6    7 2
    18    6    8 am
    19    8    9 1
    20    8   32 1
    21    9   10 1
    22    9   33 1
    23    9   34 1
    24   10   11 1
    25   10   35 1
    26   10   36 1
    27   11   16 ar
    28   11   12 ar
    29   12   13 ar
    30   12   37 1
    31   13   14 ar
    32   13   38 1
    33   14   15 ar
    34   14   17 1
    35   15   16 ar
    36   15   39 1
    37   16   40 1
    38   17   18 2
    39   17   19 2
    40   17   20 1
    41   20   41 1
    42   20   42 1
@<TRIPOS>MOLECULE
ZINC00475326
   36    36     0     0     0
SMALL
USER_CHARGES

@<TRIPOS>ATOM
      1 C1          0.4119    0.9009    0.1897 C.3       1 <0>        -0.1543
      2 C2          0.0243   -0.5368    0.5415 C.3       1 <0>        -0.1114
      3 C3          0.2609   -0.7781    2.0338 C.3       1 <0>        -0.1032
      4 C4         -0.6837    0.1068    2.8495 C.3       1 <0>        -0.1138
      5 C5         -2.1331   -0.2732    2.5402 C.3       1 <0>        -0.1644
      6 C6         -0.0035   -2.2262    2.3565 C.2       1 <0>         0.5205
      7 O1         -0.8673   -2.8328    1.7590 O.2       1 <0>        -0.5054
      8 N1          0.7200   -2.8473    3.3091 N.am      1 <0>        -0.6793
      9 C7          0.3794   -4.1430    3.7129 C.ar      1 <0>         0.2058
     10 C8         -0.1009   -5.0575    2.7847 C.ar      1 <0>        -0.1450
     11 C9         -0.4362   -6.3356    3.1864 C.ar      1 <0>         0.0018
     12 C10        -0.2943   -6.7051    4.5114 C.ar      1 <0>        -0.6934
     13 C11         0.1833   -5.7967    5.4382 C.ar      1 <0>         0.0021
     14 C12         0.5262   -4.5189    5.0417 C.ar      1 <0>        -0.1679
     15 S1         -0.7232   -8.3366    5.0199 S.o2      1 <0>         2.7033
     16 O2         -1.0149   -8.2657    6.4088 O.2       1 <0>        -0.9640
     17 O3         -1.6591   -8.8256    4.0690 O.2       1 <0>        -0.9629
     18 N2          0.6364   -9.2699    4.8689 N.pl3     1 <0>        -1.2503
     19 H1          1.4650    1.0603    0.4211 H         1 <0>         0.0553
     20 H2          0.2433    1.0728   -0.8733 H         1 <0>         0.0603
     21 H3         -0.1967    1.5938    0.7708 H         1 <0>         0.0597
     22 H4         -1.0288   -0.6962    0.3102 H         1 <0>         0.0803
     23 H5          0.6329   -1.2297   -0.0395 H         1 <0>         0.0651
     24 H6          1.2935   -0.5332    2.2822 H         1 <0>         0.0930
     25 H7         -0.4893   -0.0372    3.9123 H         1 <0>         0.0657
     26 H8         -0.5185    1.1521    2.5883 H         1 <0>         0.0829
     27 H9         -2.7973    0.2184    3.2510 H         1 <0>         0.0565
     28 H10        -2.3841    0.0450    1.5283 H         1 <0>         0.0610
     29 H11        -2.2504   -1.3539    2.6208 H         1 <0>         0.0644
     30 H12         1.4768   -2.3961    3.7147 H         1 <0>         0.4158
     31 H13        -0.2123   -4.7694    1.7498 H         1 <0>         0.1508
     32 H14        -0.8101   -7.0472    2.4651 H         1 <0>         0.1472
     33 H15         0.2927   -6.0882    6.4724 H         1 <0>         0.1479
     34 H16         0.9040   -3.8115    5.7650 H         1 <0>         0.1382
     35 H17         1.4621   -8.8755    4.5472 H         1 <0>         0.4165
     36 H18         0.6070  -10.2110    5.1022 H         1 <0>         0.4213
@<TRIPOS>BOND
     1    1    2 1
     2    1   19 1
     3    1   20 1
     4    1   21 1
     5    2    3 1
     6    2   22 1
     7    2   23 1
     8    3    4 1
     9    3    6 1
    10    3   24 1
    11    4    5 1
    12    4   25 1
    13    4   26 1
    14    5   27 1
    15    5   28 1
    16    5   29 1
    17    6    7 2
    18    6    8 am
    19    8    9 1
    20    8   30 1
    21    9   14 ar
    22    9   10 ar
    23   10   11 ar
    24   10   31 1
    25   11   12 ar
    26   11   32 1
    27   12   13 ar
    28   12   15 1
    29   13   14 ar
    30   13   33 1
    31   14   34 1
    32   15   16 2
    33   15   17 2
    34   15   18 1
    35   18   35 1
    36   18   36 1
@<TRIPOS>MOLECULE
ZINC05383556
   36    36     0     0     0
SMALL
USER_CHARGES

@<TRIPOS>ATOM
      1 C1         -0.0187    1.5258    0.0104 C.3       1 <0>        -0.1299
      2 C2          0.0021   -0.0041    0.0020 C.3       1 <0>        -0.0854
      3 C3          0.7421   -0.5109    1.2415 C.3       1 <0>        -0.1416
      4 C4         -1.4333   -0.5336    0.0129 C.3       1 <0>        -0.1416
      5 C5          0.7074   -0.4901   -1.2379 C.2       1 <0>         0.5237
      6 O1          1.1500    0.3085   -2.0362 O.2       1 <0>        -0.5325
      7 N1          0.8465   -1.8122   -1.4596 N.am      1 <0>        -0.7276
      8 C6          1.5322   -2.2846   -2.6649 C.3       1 <0>         0.1514
      9 C7          1.5527   -3.7915   -2.6732 C.ar      1 <0>        -0.0494
     10 C8          2.6015   -4.4717   -2.0833 C.ar      1 <0>        -0.1219
     11 C9          2.6203   -5.8539   -2.0909 C.ar      1 <0>        -0.0181
     12 C10         1.5899   -6.5559   -2.6880 C.ar      1 <0>        -0.6693
     13 C11         0.5406   -5.8756   -3.2771 C.ar      1 <0>        -0.0181
     14 C12         0.5197   -4.4935   -3.2657 C.ar      1 <0>        -0.1219
     15 S1          1.6144   -8.3177   -2.6987 S.o2      1 <0>         2.7010
     16 O2          0.8109   -8.7283   -3.7964 O.2       1 <0>        -0.9606
     17 O3          2.9746   -8.7058   -2.5629 O.2       1 <0>        -0.9606
     18 N2          0.8379   -8.8265   -1.3274 N.pl3     1 <0>        -1.2494
     19 H1          1.0039    1.9031    0.0027 H         1 <0>         0.0630
     20 H2         -0.5459    1.8868   -0.8726 H         1 <0>         0.0630
     21 H3         -0.5289    1.8773    0.9072 H         1 <0>         0.0640
     22 H4          0.2319   -0.1594    2.1383 H         1 <0>         0.0713
     23 H5          0.7568   -1.6008    1.2356 H         1 <0>         0.0585
     24 H6          1.7647   -0.1336    1.2338 H         1 <0>         0.0623
     25 H7         -1.9605   -0.1726   -0.8702 H         1 <0>         0.0623
     26 H8         -1.4185   -1.6235    0.0069 H         1 <0>         0.0584
     27 H9         -1.9435   -0.1821    0.9097 H         1 <0>         0.0713
     28 H10         0.4926   -2.4509   -0.8211 H         1 <0>         0.4020
     29 H11         1.0050   -1.9236   -3.5480 H         1 <0>         0.0835
     30 H12         2.5548   -1.9074   -2.6726 H         1 <0>         0.0836
     31 H13         3.4066   -3.9233   -1.6168 H         1 <0>         0.1378
     32 H14         3.4401   -6.3854   -1.6307 H         1 <0>         0.1470
     33 H15        -0.2643   -6.4240   -3.7439 H         1 <0>         0.1470
     34 H16        -0.3020   -3.9620   -3.7227 H         1 <0>         0.1378
     35 H17         0.4764   -8.1761   -0.7051 H         1 <0>         0.4166
     36 H18         0.7446   -9.7749   -1.1464 H         1 <0>         0.4224
@<TRIPOS>BOND
     1    1    2 1
     2    1   19 1
     3    1   20 1
     4    1   21 1
     5    2    3 1
     6    2    4 1
     7    2    5 1
     8    3   22 1
     9    3   23 1
    10    3   24 1
    11    4   25 1
    12    4   26 1
    13    4   27 1
    14    5    6 2
    15    5    7 am
    16    7    8 1
    17    7   28 1
    18    8    9 1
    19    8   29 1
    20    8   30 1
    21    9   14 ar
    22    9   10 ar
    23   10   11 ar
    24   10   31 1
    25   11   12 ar
    26   11   32 1
    27   12   13 ar
    28   12   15 1
    29   13   14 ar
    30   13   33 1
    31   14   34 1
    32   15   16 2
    33   15   17 2
    34   15   18 1
    35   18   35 1
    36   18   36 1
@<TRIPOS>MOLECULE
ZINC04603290
   42    42     0     0     0
SMALL
USER_CHARGES

@<TRIPOS>ATOM
      1 C1         -1.0408    0.5135   -0.9319 C.3       1 <0>        -0.1540
      2 C2         -0.5062   -0.9105   -0.7671 C.3       1 <0>        -0.1256
      3 C3          0.6737   -1.1255   -1.7171 C.3       1 <0>        -0.1203
      4 C4          1.2083   -2.5495   -1.5523 C.3       1 <0>        -0.1071
      5 C5          2.3881   -2.7645   -2.5024 C.3       1 <0>        -0.1027
      6 H1          2.0810   -2.5308   -3.5218 H         1 <0>         0.0928
      7 C6          3.5441   -1.8485   -2.0954 C.3       1 <0>        -0.1135
      8 C7          4.0103   -2.2120   -0.6842 C.3       1 <0>        -0.1641
      9 C8          2.8363   -4.2014   -2.4297 C.2       1 <0>         0.5207
     10 O1          2.7660   -4.8063   -1.3807 O.2       1 <0>        -0.5051
     11 N1          3.3152   -4.8145   -3.5303 N.am      1 <0>        -0.6793
     12 C9          3.8678   -6.0963   -3.4326 C.ar      1 <0>         0.2059
     13 C10         3.3273   -7.0216   -2.5493 C.ar      1 <0>        -0.1449
     14 C11         3.8751   -8.2860   -2.4552 C.ar      1 <0>         0.0017
     15 C12         4.9606   -8.6309   -3.2393 C.ar      1 <0>        -0.6934
     16 C13         5.5015   -7.7116   -4.1194 C.ar      1 <0>         0.0020
     17 C14         4.9545   -6.4476   -4.2227 C.ar      1 <0>        -0.1679
     18 S1          5.6566  -10.2449   -3.1162 S.o2      1 <0>         2.7030
     19 O2          7.0031  -10.1414   -3.5583 O.2       1 <0>        -0.9639
     20 O3          5.3132  -10.7381   -1.8285 O.2       1 <0>        -0.9628
     21 N2          4.8700  -11.2023   -4.2149 N.pl3     1 <0>        -1.2502
     22 H2         -0.2511    1.2275   -0.6978 H         1 <0>         0.0539
     23 H3         -1.3708    0.6610   -1.9602 H         1 <0>         0.0534
     24 H4         -1.8814    0.6667   -0.2550 H         1 <0>         0.0545
     25 H5         -0.1761   -1.0579    0.2613 H         1 <0>         0.0625
     26 H6         -1.2959   -1.6244   -1.0011 H         1 <0>         0.0613
     27 H7          0.3436   -0.9780   -2.7455 H         1 <0>         0.0624
     28 H8          1.4634   -0.4115   -1.4831 H         1 <0>         0.0671
     29 H9          1.5383   -2.6969   -0.5240 H         1 <0>         0.0809
     30 H10         0.4186   -3.2634   -1.7864 H         1 <0>         0.0654
     31 H11         4.3707   -1.9740   -2.7948 H         1 <0>         0.0655
     32 H12         3.2089   -0.8114   -2.1115 H         1 <0>         0.0827
     33 H13         4.1662   -3.2888   -0.6192 H         1 <0>         0.0644
     34 H14         4.9452   -1.6957   -0.4662 H         1 <0>         0.0562
     35 H15         3.2517   -1.9104    0.0380 H         1 <0>         0.0611
     36 H16         3.2768   -4.3671   -4.3901 H         1 <0>         0.4157
     37 H17         2.4797   -6.7527   -1.9364 H         1 <0>         0.1509
     38 H18         3.4554   -9.0059   -1.7683 H         1 <0>         0.1472
     39 H19         6.3496   -7.9839   -4.7302 H         1 <0>         0.1479
     40 H20         5.3741   -5.7318   -4.9140 H         1 <0>         0.1382
     41 H21         4.1689  -10.8275   -4.7706 H         1 <0>         0.4165
     42 H22         5.1105  -12.1379   -4.3027 H         1 <0>         0.4213
@<TRIPOS>BOND
     1    1    2 1
     2    1   22 1
     3    1   23 1
     4    1   24 1
     5    2    3 1
     6    2   25 1
     7    2   26 1
     8    3    4 1
     9    3   27 1
    10    3   28 1
    11    4    5 1
    12    4   29 1
    13    4   30 1
    14    5    6 1
    15    5    7 1
    16    5    9 1
    17    7    8 1
    18    7   31 1
    19    7   32 1
    20    8   33 1
    21    8   34 1
    22    8   35 1
    23    9   10 2
    24    9   11 am
    25   11   12 1
    26   11   36 1
    27   12   17 ar
    28   12   13 ar
    29   13   14 ar
    30   13   37 1
    31   14   15 ar
    32   14   38 1
    33   15   16 ar
    34   15   18 1
    35   16   17 ar
    36   16   39 1
    37   17   40 1
    38   18   19 2
    39   18   20 2
    40   18   21 1
    41   21   41 1
    42   21   42 1
@<TRIPOS>MOLECULE
ZINC04603291
   42    42     0     0     0
SMALL
USER_CHARGES

@<TRIPOS>ATOM
      1 C1          1.5681   -1.6726    2.3567 C.3       1 <0>        -0.1536
      2 C2          0.7797   -1.4264    1.0687 C.3       1 <0>        -0.1220
      3 C3          1.4979   -2.0959   -0.1047 C.3       1 <0>        -0.1278
      4 C4          0.7096   -1.8497   -1.3926 C.3       1 <0>        -0.1028
      5 C5          1.4904   -2.4093   -2.5834 C.3       1 <0>        -0.1062
      6 H1          2.4989   -1.9957   -2.5833 H         1 <0>         0.1028
      7 C6          0.7818   -2.0253   -3.8839 C.3       1 <0>        -0.1169
      8 C7          0.8376   -0.5072   -4.0660 C.3       1 <0>        -0.1540
      9 C8          1.5632   -3.9107   -2.4755 C.2       1 <0>         0.5181
     10 O1          1.0419   -4.4773   -1.5383 O.2       1 <0>        -0.5021
     11 N1          2.2077   -4.6238   -3.4203 N.am      1 <0>        -0.6796
     12 C9          2.1833   -6.0222   -3.3795 C.ar      1 <0>         0.2107
     13 C10         1.0493   -6.6856   -2.9293 C.ar      1 <0>        -0.1444
     14 C11         1.0285   -8.0660   -2.8901 C.ar      1 <0>         0.0036
     15 C12         2.1351   -8.7875   -3.2986 C.ar      1 <0>        -0.6945
     16 C13         3.2660   -8.1300   -3.7470 C.ar      1 <0>         0.0040
     17 C14         3.2909   -6.7499   -3.7944 C.ar      1 <0>        -0.1695
     18 S1          2.1044  -10.5485   -3.2472 S.o2      1 <0>         2.7031
     19 O2          3.4572  -10.9761   -3.1666 O.2       1 <0>        -0.9638
     20 O3          1.1322  -10.9095   -2.2757 O.2       1 <0>        -0.9628
     21 N2          1.5292  -11.0711   -4.7094 N.pl3     1 <0>        -1.2503
     22 H2          1.6406   -2.7448    2.5390 H         1 <0>         0.0539
     23 H3          2.5689   -1.2527    2.2559 H         1 <0>         0.0520
     24 H4          1.0565   -1.1956    3.1927 H         1 <0>         0.0535
     25 H5         -0.2211   -1.8463    1.1695 H         1 <0>         0.0612
     26 H6          0.7073   -0.3542    0.8864 H         1 <0>         0.0584
     27 H7          2.4987   -1.6760   -0.2054 H         1 <0>         0.0553
     28 H8          1.5704   -3.1680    0.0776 H         1 <0>         0.0781
     29 H9         -0.2583   -2.3467   -1.3268 H         1 <0>         0.0722
     30 H10         0.5595   -0.7785   -1.5276 H         1 <0>         0.0753
     31 H11         1.2773   -2.5106   -4.7247 H         1 <0>         0.0660
     32 H12        -0.2585   -2.3479   -3.8398 H         1 <0>         0.0713
     33 H13         1.8743   -0.1736   -4.0196 H         1 <0>         0.0582
     34 H14         0.4135   -0.2416   -5.0343 H         1 <0>         0.0604
     35 H15         0.2649   -0.0249   -3.2739 H         1 <0>         0.0617
     36 H16         2.6884   -4.1676   -4.1286 H         1 <0>         0.4153
     37 H17         0.1848   -6.1226   -2.6097 H         1 <0>         0.1442
     38 H18         0.1470   -8.5824   -2.5398 H         1 <0>         0.1472
     39 H19         4.1288   -8.6964   -4.0651 H         1 <0>         0.1480
     40 H20         4.1726   -6.2370   -4.1495 H         1 <0>         0.1382
     41 H21         1.2857  -10.4274   -5.3930 H         1 <0>         0.4165
     42 H22         1.4357  -12.0210   -4.8824 H         1 <0>         0.4213
@<TRIPOS>BOND
     1    1    2 1
     2    1   22 1
     3    1   23 1
     4    1   24 1
     5    2    3 1
     6    2   25 1
     7    2   26 1
     8    3    4 1
     9    3   27 1
    10    3   28 1
    11    4    5 1
    12    4   29 1
    13    4   30 1
    14    5    6 1
    15    5    7 1
    16    5    9 1
    17    7    8 1
    18    7   31 1
    19    7   32 1
    20    8   33 1
    21    8   34 1
    22    8   35 1
    23    9   10 2
    24    9   11 am
    25   11   12 1
    26   11   36 1
    27   12   17 ar
    28   12   13 ar
    29   13   14 ar
    30   13   37 1
    31   14   15 ar
    32   14   38 1
    33   15   16 ar
    34   15   18 1
    35   16   17 ar
    36   16   39 1
    37   17   40 1
    38   18   19 2
    39   18   20 2
    40   18   21 1
    41   21   41 1
    42   21   42 1
@<TRIPOS>MOLECULE
ZINC05496165
   36    36     0     0     0
SMALL
USER_CHARGES

@<TRIPOS>ATOM
      1 C1         -0.0251    1.5225    0.0047 C.3       1 <0>        -0.1562
      2 C2          0.0030   -0.0072    0.0036 C.3       1 <0>        -0.0519
      3 C3          0.7467   -0.5045    1.2449 C.3       1 <0>        -0.1554
      4 C4         -1.4298   -0.5437    0.0185 C.3       1 <0>        -0.1437
      5 C5          0.7203   -0.5033   -1.2535 C.3       1 <0>        -0.1315
      6 C6          2.1316    0.0251   -1.2681 C.2       1 <0>         0.5151
      7 O1          2.5250    0.7291   -0.3623 O.2       1 <0>        -0.4997
      8 N1          2.9565   -0.2847   -2.2879 N.am      1 <0>        -0.6803
      9 C7          4.2337    0.2833   -2.3518 C.ar      1 <0>         0.2070
     10 C8          4.9475    0.5238   -1.1851 C.ar      1 <0>        -0.1450
     11 C9          6.2079    1.0846   -1.2516 C.ar      1 <0>         0.0019
     12 C10         6.7592    1.4064   -2.4783 C.ar      1 <0>        -0.6937
     13 C11         6.0509    1.1686   -3.6418 C.ar      1 <0>         0.0024
     14 C12         4.7926    0.6023   -3.5825 C.ar      1 <0>        -0.1688
     15 S1          8.3675    2.1217   -2.5588 S.o2      1 <0>         2.7031
     16 O2          8.4346    2.8330   -3.7871 O.2       1 <0>        -0.9641
     17 O3          8.5976    2.7462   -1.3033 O.2       1 <0>        -0.9630
     18 N2          9.4523    0.8758   -2.6735 N.pl3     1 <0>        -1.2503
     19 H1          0.9957    1.9047   -0.0059 H         1 <0>         0.0809
     20 H2         -0.5549    1.8768   -0.8796 H         1 <0>         0.0474
     21 H3         -0.5361    1.8759    0.9003 H         1 <0>         0.0548
     22 H4          0.2357   -0.1511    2.1405 H         1 <0>         0.0550
     23 H5          0.7667   -1.5943    1.2441 H         1 <0>         0.0476
     24 H6          1.7675   -0.1223    1.2342 H         1 <0>         0.0803
     25 H7         -1.9596   -0.1894   -0.8657 H         1 <0>         0.0558
     26 H8         -1.4097   -1.6335    0.0178 H         1 <0>         0.0558
     27 H9         -1.9407   -0.1903    0.9141 H         1 <0>         0.0609
     28 H10         0.7403   -1.5931   -1.2542 H         1 <0>         0.0993
     29 H11         0.1905   -0.1490   -2.1377 H         1 <0>         0.0994
     30 H12         2.6649   -0.9014   -2.9775 H         1 <0>         0.4158
     31 H13         4.5173    0.2730   -0.2268 H         1 <0>         0.1506
     32 H14         6.7634    1.2723   -0.3446 H         1 <0>         0.1470
     33 H15         6.4841    1.4214   -4.5983 H         1 <0>         0.1477
     34 H16         4.2419    0.4120   -4.4919 H         1 <0>         0.1380
     35 H17         9.1377   -0.0417   -2.6849 H         1 <0>         0.4165
     36 H18        10.4024    1.0634   -2.7293 H         1 <0>         0.4213
@<TRIPOS>BOND
     1    1    2 1
     2    1   19 1
     3    1   20 1
     4    1   21 1
     5    2    3 1
     6    2    4 1
     7    2    5 1
     8    3   22 1
     9    3   23 1
    10    3   24 1
    11    4   25 1
    12    4   26 1
    13    4   27 1
    14    5    6 1
    15    5   28 1
    16    5   29 1
    17    6    7 2
    18    6    8 am
    19    8    9 1
    20    8   30 1
    21    9   14 ar
    22    9   10 ar
    23   10   11 ar
    24   10   31 1
    25   11   12 ar
    26   11   32 1
    27   12   13 ar
    28   12   15 1
    29   13   14 ar
    30   13   33 1
    31   14   34 1
    32   15   16 2
    33   15   17 2
    34   15   18 1
    35   18   35 1
    36   18   36 1
@<TRIPOS>MOLECULE
ZINC00030895
   36    36     0     0     0
SMALL
USER_CHARGES

@<TRIPOS>ATOM
      1 C1         -0.0126    1.5258    0.0142 C.3       1 <0>        -0.1542
      2 C2          0.0115   -0.0040    0.0079 C.3       1 <0>        -0.1257
      3 C3          0.7202   -0.4976   -1.2550 C.3       1 <0>        -0.1031
      4 C4          0.7443   -2.0274   -1.2613 C.3       1 <0>        -0.1089
      5 H1          1.1995   -2.3875   -0.3386 H         1 <0>         0.1038
      6 C5         -0.6863   -2.5596   -1.3657 C.3       1 <0>        -0.1486
      7 C6          1.5480   -2.5123   -2.4403 C.2       1 <0>         0.5187
      8 O1          2.0518   -1.7130   -3.2007 O.2       1 <0>        -0.5095
      9 N1          1.7068   -3.8342   -2.6498 N.am      1 <0>        -0.6780
     10 C7          2.3697   -4.2862   -3.7962 C.ar      1 <0>         0.2063
     11 C8          1.9597   -5.4566   -4.4212 C.ar      1 <0>        -0.1681
     12 C9          2.6162   -5.9001   -5.5525 C.ar      1 <0>         0.0024
     13 C10         3.6807   -5.1801   -6.0629 C.ar      1 <0>        -0.6937
     14 C11         4.0917   -4.0145   -5.4426 C.ar      1 <0>         0.0021
     15 C12         3.4355   -3.5624   -4.3146 C.ar      1 <0>        -0.1453
     16 S1          4.5155   -5.7493   -7.5064 S.o2      1 <0>         2.7038
     17 O2          5.8214   -5.1904   -7.4673 O.2       1 <0>        -0.9633
     18 O3          4.2883   -7.1500   -7.5811 O.2       1 <0>        -0.9642
     19 N2          3.7512   -5.0755   -8.8118 N.pl3     1 <0>        -1.2503
     20 H2          1.0091    1.9054   -0.0010 H         1 <0>         0.0551
     21 H3         -0.5466    1.8844   -0.8658 H         1 <0>         0.0550
     22 H4         -0.5175    1.8775    0.9140 H         1 <0>         0.0557
     23 H5          0.5455   -0.3626    0.8879 H         1 <0>         0.0626
     24 H6         -1.0102   -0.3835    0.0231 H         1 <0>         0.0654
     25 H7          0.1862   -0.1390   -2.1350 H         1 <0>         0.0711
     26 H8          1.7419   -0.1181   -1.2702 H         1 <0>         0.0728
     27 H9         -1.2676   -2.2089   -0.5130 H         1 <0>         0.0767
     28 H10        -1.1415   -2.1996   -2.2884 H         1 <0>         0.0634
     29 H11        -0.6692   -3.6495   -1.3702 H         1 <0>         0.0598
     30 H12         1.3615   -4.4722   -2.0059 H         1 <0>         0.4163
     31 H13         1.1286   -6.0195   -4.0228 H         1 <0>         0.1383
     32 H14         2.2980   -6.8104   -6.0388 H         1 <0>         0.1482
     33 H15         4.9237   -3.4546   -5.8435 H         1 <0>         0.1473
     34 H16         3.7537   -2.6493   -3.8336 H         1 <0>         0.1503
     35 H17         2.9907   -4.4883   -8.6787 H         1 <0>         0.4169
     36 H18         4.0640   -5.2681   -9.7096 H         1 <0>         0.4213
@<TRIPOS>BOND
     1    1    2 1
     2    1   20 1
     3    1   21 1
     4    1   22 1
     5    2    3 1
     6    2   23 1
     7    2   24 1
     8    3    4 1
     9    3   25 1
    10    3   26 1
    11    4    5 1
    12    4    6 1
    13    4    7 1
    14    6   27 1
    15    6   28 1
    16    6   29 1
    17    7    8 2
    18    7    9 am
    19    9   10 1
    20    9   30 1
    21   10   15 ar
    22   10   11 ar
    23   11   12 ar
    24   11   31 1
    25   12   13 ar
    26   12   32 1
    27   13   14 ar
    28   13   16 1
    29   14   15 ar
    30   14   33 1
    31   15   34 1
    32   16   17 2
    33   16   18 2
    34   16   19 1
    35   19   35 1
    36   19   36 1
@<TRIPOS>MOLECULE
ZINC00030896
   36    36     0     0     0
SMALL
USER_CHARGES

@<TRIPOS>ATOM
      1 C1         -0.0121    1.5252    0.0150 C.3       1 <0>        -0.1542
      2 C2          0.0124   -0.0046    0.0081 C.3       1 <0>        -0.1257
      3 C3          0.7208   -0.4976   -1.2552 C.3       1 <0>        -0.1032
      4 C4          0.7453   -2.0274   -1.2621 C.3       1 <0>        -0.1087
      5 H1         -0.2709   -2.4076   -1.1572 H         1 <0>         0.1038
      6 C5          1.6003   -2.5291   -0.0967 C.3       1 <0>        -0.1499
      7 C6          1.3322   -2.5146   -2.5619 C.2       1 <0>         0.5187
      8 O1          1.6952   -1.7167   -3.4001 O.2       1 <0>        -0.5094
      9 N1          1.4538   -3.8368   -2.7927 N.am      1 <0>        -0.6781
     10 C7          1.9081   -4.2911   -4.0357 C.ar      1 <0>         0.2061
     11 C8          1.3972   -5.4633   -4.5774 C.ar      1 <0>        -0.1683
     12 C9          1.8477   -5.9091   -5.8045 C.ar      1 <0>         0.0024
     13 C10         2.8067   -5.1896   -6.4936 C.ar      1 <0>        -0.6937
     14 C11         3.3178   -4.0222   -5.9568 C.ar      1 <0>         0.0021
     15 C12         2.8669   -3.5678   -4.7330 C.ar      1 <0>        -0.1451
     16 S1          3.3788   -5.7617   -8.0588 S.o2      1 <0>         2.7038
     17 O2          4.6710   -5.2017   -8.2483 O.2       1 <0>        -0.9633
     18 O3          3.1437   -7.1628   -8.0898 O.2       1 <0>        -0.9642
     19 N2          2.3987   -5.0916   -9.2132 N.pl3     1 <0>        -1.2503
     20 H2          1.0095    1.9050   -0.0004 H         1 <0>         0.0552
     21 H3         -0.5465    1.8840   -0.8647 H         1 <0>         0.0549
     22 H4         -0.5168    1.8764    0.9150 H         1 <0>         0.0557
     23 H5          0.5467   -0.3634    0.8878 H         1 <0>         0.0655
     24 H6         -1.0092   -0.3844    0.0235 H         1 <0>         0.0624
     25 H7          0.1865   -0.1388   -2.1349 H         1 <0>         0.0726
     26 H8          1.7424   -0.1178   -1.2706 H         1 <0>         0.0715
     27 H9          1.6178   -3.6189   -0.1016 H         1 <0>         0.0595
     28 H10         2.6165   -2.1489   -0.2016 H         1 <0>         0.0643
     29 H11         1.1758   -2.1767    0.8434 H         1 <0>         0.0772
     30 H12         1.2263   -4.4735   -2.0972 H         1 <0>         0.4162
     31 H13         0.6485   -6.0260   -4.0395 H         1 <0>         0.1383
     32 H14         1.4510   -6.8208   -6.2261 H         1 <0>         0.1482
     33 H15         4.0669   -3.4626   -6.4973 H         1 <0>         0.1473
     34 H16         3.2627   -2.6533   -4.3166 H         1 <0>         0.1503
     35 H17         1.6722   -4.5047   -8.9514 H         1 <0>         0.4169
     36 H18         2.5511   -5.2861  -10.1513 H         1 <0>         0.4213
@<TRIPOS>BOND
     1    1    2 1
     2    1   20 1
     3    1   21 1
     4    1   22 1
     5    2    3 1
     6    2   23 1
     7    2   24 1
     8    3    4 1
     9    3   25 1
    10    3   26 1
    11    4    5 1
    12    4    6 1
    13    4    7 1
    14    6   27 1
    15    6   28 1
    16    6   29 1
    17    7    8 2
    18    7    9 am
    19    9   10 1
    20    9   30 1
    21   10   15 ar
    22   10   11 ar
    23   11   12 ar
    24   11   31 1
    25   12   13 ar
    26   12   32 1
    27   13   14 ar
    28   13   16 1
    29   14   15 ar
    30   14   33 1
    31   15   34 1
    32   16   17 2
    33   16   18 2
    34   16   19 1
    35   19   35 1
    36   19   36 1
@<TRIPOS>MOLECULE
ZINC05593240
   33    33     0     0     0
SMALL
USER_CHARGES

@<TRIPOS>ATOM
      1 C1         -0.0090    1.5264    0.0049 C.3       1 <0>        -0.1553
      2 C2          0.0045   -0.0035    0.0010 C.3       1 <0>        -0.1073
      3 C3          0.7479   -0.5102    1.2386 C.3       1 <0>        -0.1091
      4 H1          1.7432   -0.0668    1.2714 H         1 <0>         0.1038
      5 C4         -0.0280   -0.1155    2.4968 C.3       1 <0>        -0.1487
      6 C5          0.8685   -2.0109    1.1728 C.2       1 <0>         0.5185
      7 O1          0.4054   -2.6157    0.2290 O.2       1 <0>        -0.5098
      8 N1          1.4909   -2.6809    2.1628 N.am      1 <0>        -0.6779
      9 C6          1.5184   -4.0799    2.1511 C.ar      1 <0>         0.2062
     10 C7          1.4506   -4.7872    3.3443 C.ar      1 <0>        -0.1680
     11 C8          1.4780   -6.1679    3.3294 C.ar      1 <0>         0.0024
     12 C9          1.5729   -6.8461    2.1281 C.ar      1 <0>        -0.6936
     13 C10         1.6411   -6.1448    0.9383 C.ar      1 <0>         0.0022
     14 C11         1.6079   -4.7641    0.9460 C.ar      1 <0>        -0.1453
     15 S1          1.6076   -8.6077    2.1134 S.o2      1 <0>         2.7037
     16 O2          2.2496   -8.9912    0.9050 O.2       1 <0>        -0.9633
     17 O3          2.0805   -9.0153    3.3899 O.2       1 <0>        -0.9642
     18 N2          0.0392   -9.1274    2.0016 N.pl3     1 <0>        -1.2503
     19 H2          1.0153    1.8988   -0.0087 H         1 <0>         0.0558
     20 H3         -0.5387    1.8873   -0.8767 H         1 <0>         0.0604
     21 H4         -0.5133    1.8830    0.9031 H         1 <0>         0.0584
     22 H5         -1.0198   -0.3760    0.0147 H         1 <0>         0.0706
     23 H6          0.5088   -0.3601   -0.8971 H         1 <0>         0.0724
     24 H7         -1.0232   -0.5588    2.4639 H         1 <0>         0.0633
     25 H8          0.5017   -0.4764    3.3784 H         1 <0>         0.0598
     26 H9         -0.1152    0.9700    2.5443 H         1 <0>         0.0768
     27 H10         1.9198   -2.1934    2.8834 H         1 <0>         0.4164
     28 H11         1.3768   -4.2581    4.2829 H         1 <0>         0.1383
     29 H12         1.4256   -6.7186    4.2570 H         1 <0>         0.1482
     30 H13         1.7156   -6.6774    0.0017 H         1 <0>         0.1473
     31 H14         1.6561   -4.2170    0.0160 H         1 <0>         0.1503
     32 H15        -0.6837   -8.4821    1.9587 H         1 <0>         0.4169
     33 H16        -0.1565  -10.0772    1.9791 H         1 <0>         0.4212
@<TRIPOS>BOND
     1    1    2 1
     2    1   19 1
     3    1   20 1
     4    1   21 1
     5    2    3 1
     6    2   22 1
     7    2   23 1
     8    3    4 1
     9    3    5 1
    10    3    6 1
    11    5   24 1
    12    5   25 1
    13    5   26 1
    14    6    7 2
    15    6    8 am
    16    8    9 1
    17    8   27 1
    18    9   14 ar
    19    9   10 ar
    20   10   11 ar
    21   10   28 1
    22   11   12 ar
    23   11   29 1
    24   12   13 ar
    25   12   15 1
    26   13   14 ar
    27   13   30 1
    28   14   31 1
    29   15   16 2
    30   15   17 2
    31   15   18 1
    32   18   32 1
    33   18   33 1
@<TRIPOS>MOLECULE
ZINC05665427
   33    33     0     0     0
SMALL
USER_CHARGES

@<TRIPOS>ATOM
      1 C1         -0.0080    1.5259    0.0049 C.3       1 <0>        -0.1552
      2 C2          0.0048   -0.0040    0.0007 C.3       1 <0>        -0.1074
      3 C3          0.7481   -0.5113    1.2380 C.3       1 <0>        -0.1088
      4 H1          0.2978   -0.0829    2.1334 H         1 <0>         0.1038
      5 C4          2.2179   -0.0940    1.1567 C.3       1 <0>        -0.1500
      6 C5          0.6553   -2.0142    1.2988 C.2       1 <0>         0.5185
      7 O1          0.0537   -2.6199    0.4372 O.2       1 <0>        -0.5098
      8 N1          1.2407   -2.6852    2.3105 N.am      1 <0>        -0.6781
      9 C6          1.0737   -4.0700    2.4206 C.ar      1 <0>         0.2060
     10 C7          0.9846   -4.6627    3.6734 C.ar      1 <0>        -0.1683
     11 C8          0.8199   -6.0299    3.7787 C.ar      1 <0>         0.0024
     12 C9          0.7437   -6.8085    2.6385 C.ar      1 <0>        -0.6936
     13 C10         0.8325   -6.2215    1.3896 C.ar      1 <0>         0.0021
     14 C11         0.9911   -4.8541    1.2774 C.ar      1 <0>        -0.1452
     15 S1          0.5335   -8.5524    2.7772 S.o2      1 <0>         2.7038
     16 O2          1.0383   -9.1192    1.5759 O.2       1 <0>        -0.9633
     17 O3          1.0256   -8.9201    4.0586 O.2       1 <0>        -0.9642
     18 N2         -1.0955   -8.8496    2.7927 N.pl3     1 <0>        -1.2504
     19 H2          1.0165    1.8979   -0.0088 H         1 <0>         0.0585
     20 H3         -0.5376    1.8873   -0.8765 H         1 <0>         0.0604
     21 H4         -0.5120    1.8826    0.9032 H         1 <0>         0.0555
     22 H5         -1.0197   -0.3759    0.0144 H         1 <0>         0.0721
     23 H6          0.5088   -0.3606   -0.8976 H         1 <0>         0.0710
     24 H7          2.6682   -0.5223    0.2612 H         1 <0>         0.0643
     25 H8          2.2851    0.9931    1.1127 H         1 <0>         0.0774
     26 H9          2.7475   -0.4554    2.0382 H         1 <0>         0.0595
     27 H10         1.7777   -2.2080    2.9623 H         1 <0>         0.4163
     28 H11         1.0444   -4.0552    4.5643 H         1 <0>         0.1384
     29 H12         0.7509   -6.4915    4.7527 H         1 <0>         0.1482
     30 H13         0.7730   -6.8324    0.5010 H         1 <0>         0.1473
     31 H14         1.0553   -4.3956    0.3017 H         1 <0>         0.1502
     32 H15        -1.7235   -8.1129    2.7304 H         1 <0>         0.4169
     33 H16        -1.4218   -9.7603    2.8641 H         1 <0>         0.4213
@<TRIPOS>BOND
     1    1    2 1
     2    1   19 1
     3    1   20 1
     4    1   21 1
     5    2    3 1
     6    2   22 1
     7    2   23 1
     8    3    4 1
     9    3    5 1
    10    3    6 1
    11    5   24 1
    12    5   25 1
    13    5   26 1
    14    6    7 2
    15    6    8 am
    16    8    9 1
    17    8   27 1
    18    9   14 ar
    19    9   10 ar
    20   10   11 ar
    21   10   28 1
    22   11   12 ar
    23   11   29 1
    24   12   13 ar
    25   12   15 1
    26   13   14 ar
    27   13   30 1
    28   14   31 1
    29   15   16 2
    30   15   17 2
    31   15   18 1
    32   18   32 1
    33   18   33 1
@<TRIPOS>MOLECULE
ZINC36924410
   34    35     0     0     0
SMALL
USER_CHARGES

@<TRIPOS>ATOM
      1 C1         -0.0173    1.4248    0.0099 C.3       1 <0>         0.0256
      2 O1          0.0021   -0.0041    0.0020 O.3       1 <0>        -0.3054
      3 C2          0.6062   -0.6075   -1.0564 C.ar      1 <0>         0.1062
      4 C3          1.1721    0.1554   -2.0609 C.ar      1 <0>        -0.1744
      5 C4          1.7947   -0.4514   -3.1453 C.ar      1 <0>        -0.0644
      6 C5          1.8531   -1.8258   -3.2156 C.ar      1 <0>        -0.0948
      7 C6          1.2800   -2.5966   -2.2131 C.ar      1 <0>        -0.1689
      8 C7          0.6628   -1.9960   -1.1310 C.ar      1 <0>         0.1039
      9 O2          0.1104   -2.7573   -0.1488 O.3       1 <0>        -0.3052
     10 C8          0.2081   -4.1754   -0.2948 C.3       1 <0>         0.0246
     11 C9          2.5387   -2.5469   -4.3494 C.3       1 <0>         0.1674
     12 N1          2.8426   -1.5985   -5.4262 N.pl3     1 <0>        -1.0047
     13 C10         3.4162   -0.2987   -5.0400 C.3       1 <0>         0.1200
     14 C11         2.3742    0.4460   -4.2071 C.3       1 <0>        -0.0968
     15 S1          2.5528   -1.9748   -7.0126 S.o2      1 <0>         2.7976
     16 O3          3.4237   -1.1629   -7.7882 O.2       1 <0>        -0.9771
     17 O4          2.5539   -3.3931   -7.1003 O.2       1 <0>        -0.9768
     18 N2          1.0108   -1.4804   -7.3592 N.pl3     1 <0>        -1.2601
     19 H1          1.0053    1.8021    0.0021 H         1 <0>         0.0557
     20 H2         -0.5445    1.7859   -0.8732 H         1 <0>         0.0553
     21 H3         -0.5275    1.7763    0.9067 H         1 <0>         0.1021
     22 H4          1.1298    1.2330   -2.0026 H         1 <0>         0.1365
     23 H5          1.3201   -3.6740   -2.2767 H         1 <0>         0.1389
     24 H6          1.2581   -4.4652   -0.3342 H         1 <0>         0.0564
     25 H7         -0.2714   -4.6620    0.5546 H         1 <0>         0.1022
     26 H8         -0.2880   -4.4809   -1.2160 H         1 <0>         0.0561
     27 H9          3.4646   -2.9939   -3.9877 H         1 <0>         0.0891
     28 H10         1.8831   -3.3300   -4.7302 H         1 <0>         0.0984
     29 H11         4.3182   -0.4548   -4.4482 H         1 <0>         0.0841
     30 H12         3.6556    0.2787   -5.9330 H         1 <0>         0.1022
     31 H13         1.5732    0.7915   -4.8607 H         1 <0>         0.0816
     32 H14         2.8441    1.3069   -3.7315 H         1 <0>         0.0894
     33 H15         0.7822   -1.1998   -8.2592 H         1 <0>         0.4206
     34 H16         0.3361   -1.4714   -6.6623 H         1 <0>         0.4152
@<TRIPOS>BOND
     1    1    2 1
     2    1   19 1
     3    1   20 1
     4    1   21 1
     5    2    3 1
     6    3    8 ar
     7    3    4 ar
     8    4    5 ar
     9    4   22 1
    10    5   14 1
    11    5    6 ar
    12    6    7 ar
    13    6   11 1
    14    7    8 ar
    15    7   23 1
    16    8    9 1
    17    9   10 1
    18   10   24 1
    19   10   25 1
    20   10   26 1
    21   11   12 1
    22   11   27 1
    23   11   28 1
    24   12   13 1
    25   12   15 1
    26   13   14 1
    27   13   29 1
    28   13   30 1
    29   14   31 1
    30   14   32 1
    31   15   16 2
    32   15   17 2
    33   15   18 1
    34   18   33 1
    35   18   34 1
@<TRIPOS>MOLECULE
ZINC36924410
   33    34     0     0     0
SMALL
USER_CHARGES

@<TRIPOS>ATOM
      1 C1         -0.0173    1.4248    0.0099 C.3       1 <0>         0.0278
      2 O1          0.0021   -0.0041    0.0020 O.3       1 <0>        -0.3106
      3 C2          0.6262   -0.6188    1.0422 C.ar      1 <0>         0.0925
      4 C3          1.2015    0.1332    2.0496 C.ar      1 <0>        -0.1754
      5 C4          1.8389   -0.4853    3.1187 C.ar      1 <0>        -0.0493
      6 C5          1.8921   -1.8604    3.1769 C.ar      1 <0>        -0.0729
      7 C6          1.3222   -2.6201    2.1641 C.ar      1 <0>        -0.1691
      8 C7          0.6841   -2.0080    1.1007 C.ar      1 <0>         0.0922
      9 O2          0.1214   -2.7586    0.1161 O.3       1 <0>        -0.3105
     10 C8          0.2211   -4.1782    0.2453 C.3       1 <0>         0.0265
     11 C9          2.5426   -2.5945    4.3229 C.3       1 <0>         0.1787
     12 N1          3.3085   -1.6503    5.1434 N.pl3     1 <0>        -0.9867
     13 C10         2.6671   -0.3666    5.4729 C.3       1 <0>         0.1332
     14 C11         2.4550    0.4010    4.1692 C.3       1 <0>        -0.0947
     15 S1          4.8331   -2.0137    5.6780 S.o2      1 <0>         2.6940
     16 O3          5.0570   -1.2212    6.8361 O.2       1 <0>        -1.0860
     17 O4          4.9305   -3.4312    5.6945 O.2       1 <0>        -1.0872
     18 N2          5.8962   -1.4795    4.5262 N.2       1 <0>        -1.3609
     19 H1          1.0053    1.8021    0.0021 H         1 <0>         0.0540
     20 H2         -0.5445    1.7859   -0.8732 H         1 <0>         0.0955
     21 H3         -0.5275    1.7763    0.9067 H         1 <0>         0.0522
     22 H4          1.1554    1.2113    2.0053 H         1 <0>         0.1318
     23 H5          1.3741   -3.6979    2.2091 H         1 <0>         0.1345
     24 H6         -0.2673   -4.6556   -0.6042 H         1 <0>         0.0959
     25 H7          1.2716   -4.4679    0.2703 H         1 <0>         0.0555
     26 H8         -0.2649   -4.4941    1.1684 H         1 <0>         0.0531
     27 H9          1.7736   -3.0659    4.9349 H         1 <0>         0.0637
     28 H10         3.2121   -3.3597    3.9301 H         1 <0>         0.0930
     29 H11         1.7064   -0.5475    5.9549 H         1 <0>         0.0559
     30 H12         3.3119    0.2076    6.1382 H         1 <0>         0.0922
     31 H13         3.4159    0.7688    3.8094 H         1 <0>         0.0893
     32 H14         1.7948    1.2482    4.3555 H         1 <0>         0.0727
     33 H15         6.8502   -1.5999    4.6536 H         1 <0>         0.3192
@<TRIPOS>BOND
     1    1    2 1
     2    1   19 1
     3    1   20 1
     4    1   21 1
     5    2    3 1
     6    3    8 ar
     7    3    4 ar
     8    4    5 ar
     9    4   22 1
    10    5   14 1
    11    5    6 ar
    12    6    7 ar
    13    6   11 1
    14    7    8 ar
    15    7   23 1
    16    8    9 1
    17    9   10 1
    18   10   24 1
    19   10   25 1
    20   10   26 1
    21   11   12 1
    22   11   27 1
    23   11   28 1
    24   12   13 1
    25   12   15 1
    26   13   14 1
    27   13   29 1
    28   13   30 1
    29   14   31 1
    30   14   32 1
    31   15   16 2
    32   15   17 2
    33   15   18 1
    34   18   33 1
@<TRIPOS>MOLECULE
ZINC18274777
   20    20     0     0     0
SMALL
USER_CHARGES

@<TRIPOS>ATOM
      1 C1         -2.1938    1.4701    0.6085 C.3       1 <0>        -0.1738
      2 C2         -2.1691   -0.0367    0.6077 C.2       1 <0>         0.5100
      3 O1         -3.0611   -0.6582    1.1456 O.2       1 <0>        -0.5253
      4 N1         -1.1558   -0.6938    0.0094 N.am      1 <0>        -0.6760
      5 C3         -1.0811   -2.0905    0.0916 C.ar      1 <0>         0.1315
      6 C4          0.1554   -2.7160    0.1778 C.ar      1 <0>        -0.1278
      7 C5          0.2283   -4.0925    0.2593 C.ar      1 <0>        -0.1267
      8 C6         -0.9336   -4.8504    0.2546 C.ar      1 <0>         0.0907
      9 C7         -2.1693   -4.2261    0.1680 C.ar      1 <0>        -0.1267
     10 C8         -2.2439   -2.8493    0.0927 C.ar      1 <0>        -0.1043
     11 O2         -0.8611   -6.2059    0.3344 O.3       1 <0>        -0.4991
     12 H1         -3.0822    1.8186    1.1352 H         1 <0>         0.0977
     13 H2         -1.3026    1.8478    1.1098 H         1 <0>         0.0926
     14 H3         -2.2144    1.8337   -0.4188 H         1 <0>         0.0926
     15 H4         -0.4783   -0.1997   -0.4782 H         1 <0>         0.4131
     16 H5          1.0601   -2.1261    0.1808 H         1 <0>         0.1308
     17 H6          1.1901   -4.5792    0.3264 H         1 <0>         0.1337
     18 H7         -3.0735   -4.8168    0.1636 H         1 <0>         0.1330
     19 H8         -3.2062   -2.3631    0.0301 H         1 <0>         0.1433
     20 H9         -0.8763   -6.5480    1.2387 H         1 <0>         0.3908
@<TRIPOS>BOND
     1    1    2 1
     2    1   12 1
     3    1   13 1
     4    1   14 1
     5    2    3 2
     6    2    4 am
     7    4    5 1
     8    4   15 1
     9    5   10 ar
    10    5    6 ar
    11    6    7 ar
    12    6   16 1
    13    7    8 ar
    14    7   17 1
    15    8    9 ar
    16    8   11 1
    17    9   10 ar
    18    9   18 1
    19   10   19 1
    20   11   20 1
@<TRIPOS>MOLECULE
ZINC00899824
   47    48     0     0     0
SMALL
USER_CHARGES

@<TRIPOS>ATOM
      1 C1         -0.0173    1.4248    0.0099 C.3       1 <0>         0.0223
      2 O1          0.0021   -0.0041    0.0020 O.3       1 <0>        -0.3062
      3 C2          0.6062   -0.6075   -1.0564 C.ar      1 <0>         0.1006
      4 C3          1.1701    0.1578   -2.0573 C.ar      1 <0>        -0.1693
      5 C4          1.7915   -0.4674   -3.1460 C.ar      1 <0>        -0.0548
      6 C5          1.8369   -1.8658   -3.2124 C.ar      1 <0>        -0.1153
      7 C6          1.2717   -2.6208   -2.2092 C.ar      1 <0>        -0.1104
      8 C7          0.6608   -1.9995   -1.1274 C.ar      1 <0>         0.0921
      9 O2          0.1105   -2.7497   -0.1383 O.3       1 <0>        -0.4848
     10 C8          2.3926    0.3403   -4.2140 C.2       1 <0>        -0.0031
     11 C9          2.9934   -0.2669   -5.2666 C.2       1 <0>        -0.2426
     12 C10         3.5700    0.5078   -6.2910 C.2       1 <0>         0.3746
     13 C11         4.2380   -0.1673   -7.4611 C.3       1 <0>        -0.2163
     14 C12         4.7690    0.8780   -8.4080 C.2       1 <0>         0.3746
     15 O3          4.6195    2.0570   -8.1569 O.2       1 <0>        -0.4254
     16 C13         5.4382    0.4879   -9.5835 C.2       1 <0>        -0.2426
     17 C14         5.9159    1.4282  -10.4353 C.2       1 <0>        -0.0031
     18 C15         6.6137    1.0215  -11.6609 C.ar      1 <0>        -0.0549
     19 C16         6.7822   -0.3375  -11.9554 C.ar      1 <0>        -0.1153
     20 C17         7.4373   -0.7158  -13.1059 C.ar      1 <0>        -0.1104
     21 C18         7.9326    0.2469  -13.9763 C.ar      1 <0>         0.0920
     22 C19         7.7694    1.6023  -13.6901 C.ar      1 <0>         0.1006
     23 C20         7.1082    1.9913  -12.5425 C.ar      1 <0>        -0.1693
     24 O4          8.2569    2.5409  -14.5450 O.3       1 <0>        -0.3062
     25 C21         8.0541    3.9101  -14.1894 C.3       1 <0>         0.0223
     26 O5          8.5781   -0.1327  -15.1090 O.3       1 <0>        -0.4848
     27 O6          3.5292    1.7203   -6.2316 O.2       1 <0>        -0.4254
     28 H1          1.0053    1.8021    0.0021 H         1 <0>         0.0579
     29 H2         -0.5445    1.7859   -0.8732 H         1 <0>         0.0575
     30 H3         -0.5275    1.7763    0.9067 H         1 <0>         0.1046
     31 H4          1.1319    1.2357   -2.0014 H         1 <0>         0.1391
     32 H5          2.3148   -2.3516   -4.0503 H         1 <0>         0.1371
     33 H6          1.3073   -3.6990   -2.2614 H         1 <0>         0.1423
     34 H7         -0.8182   -2.9751   -0.2859 H         1 <0>         0.3908
     35 H8          2.3563    1.4184   -4.1613 H         1 <0>         0.1367
     36 H9          3.0298   -1.3450   -5.3193 H         1 <0>         0.1356
     37 H10         5.0615   -0.7848   -7.1027 H         1 <0>         0.1288
     38 H11         5.5711   -0.5604   -9.8068 H         1 <0>         0.1356
     39 H12         5.7830    2.4765  -10.2120 H         1 <0>         0.1368
     40 H13         6.3989   -1.0882  -11.2802 H         1 <0>         0.1371
     41 H14         7.5667   -1.7639  -13.3320 H         1 <0>         0.1423
     42 H15         6.9767    3.0405  -12.3226 H         1 <0>         0.1391
     43 H16         6.9855    4.1110  -14.1123 H         1 <0>         0.0575
     44 H17         8.5317    4.1110  -13.2305 H         1 <0>         0.0580
     45 H18         8.4902    4.5526  -14.9543 H         1 <0>         0.1045
     46 H19         7.9975   -0.2431  -15.8744 H         1 <0>         0.3910
     47 H20         3.5134   -0.7940   -7.9810 H         1 <0>         0.1286
@<TRIPOS>BOND
     1    1    2 1
     2    1   28 1
     3    1   29 1
     4    1   30 1
     5    2    3 1
     6    3    8 ar
     7    3    4 ar
     8    4    5 ar
     9    4   31 1
    10    5    6 ar
    11    5   10 1
    12    6    7 ar
    13    6   32 1
    14    7    8 ar
    15    7   33 1
    16    8    9 1
    17    9   34 1
    18   10   11 2
    19   10   35 1
    20   11   12 1
    21   11   36 1
    22   12   13 1
    23   12   27 2
    24   13   14 1
    25   13   37 1
    26   13   47 1
    27   14   15 2
    28   14   16 1
    29   16   17 2
    30   16   38 1
    31   17   18 1
    32   17   39 1
    33   18   23 ar
    34   18   19 ar
    35   19   20 ar
    36   19   40 1
    37   20   21 ar
    38   20   41 1
    39   21   22 ar
    40   21   26 1
    41   22   23 ar
    42   22   24 1
    43   23   42 1
    44   24   25 1
    45   25   43 1
    46   25   44 1
    47   25   45 1
    48   26   46 1
@<TRIPOS>MOLECULE
ZINC02570895
   40    42     0     0     0
SMALL
USER_CHARGES

@<TRIPOS>ATOM
      1 C1          0.0405    1.5033    0.0105 C.3       1 <0>        -0.1224
      2 C2          0.0481   -0.0036    0.0022 C.ar      1 <0>        -0.0617
      3 C3         -0.4654   -0.6891   -1.0843 C.ar      1 <0>        -0.1180
      4 C4         -0.4609   -2.0687   -1.0981 C.ar      1 <0>        -0.0762
      5 C5          0.0630   -2.7726   -0.0133 C.ar      1 <0>        -0.0606
      6 C6          0.5793   -2.0754    1.0794 C.ar      1 <0>        -0.0985
      7 C7          0.5738   -0.6957    1.0787 C.ar      1 <0>        -0.1165
      8 C8          0.0704   -4.2518   -0.0214 C.2       1 <0>         0.1497
      9 C9          0.0778   -5.0559   -1.1264 C.2       1 <0>        -0.2047
     10 C10         0.0841   -6.3814   -0.6911 C.2       1 <0>        -0.0034
     11 N1          0.0806   -6.3920    0.6183 N.2       1 <0>        -0.2184
     12 N2          0.0772   -5.0674    1.0740 N.pl3     1 <0>        -0.3181
     13 C11         0.0780   -4.6538    2.4124 C.ar      1 <0>         0.1993
     14 C12        -0.7877   -3.6523    2.8316 C.ar      1 <0>        -0.1310
     15 C13        -0.7845   -3.2467    4.1518 C.ar      1 <0>        -0.0008
     16 C14         0.0799   -3.8365    5.0557 C.ar      1 <0>        -0.6729
     17 C15         0.9432   -4.8341    4.6414 C.ar      1 <0>         0.0013
     18 C16         0.9405   -5.2485    3.3238 C.ar      1 <0>        -0.1237
     19 S1          0.0817   -3.3155    6.7389 S.o2      1 <0>         2.7035
     20 O1          1.3615   -3.6412    7.2635 O.2       1 <0>        -0.9570
     21 O2         -0.4336   -1.9913    6.7547 O.2       1 <0>        -0.9571
     22 N3         -1.0144   -4.2595    7.5449 N.pl3     1 <0>        -1.2487
     23 C17         0.0927   -7.5984   -1.5799 C.3       1 <0>         0.5581
     24 F1          1.4144   -7.9678   -1.8518 F         1 <0>        -0.1637
     25 F2         -0.5625   -8.6523   -0.9339 F         1 <0>        -0.1639
     26 F3         -0.5656   -7.3049   -2.7789 F         1 <0>        -0.1610
     27 H1          0.9639    1.8738   -0.4347 H         1 <0>         0.0767
     28 H2         -0.8113    1.8655   -0.5652 H         1 <0>         0.0714
     29 H3         -0.0366    1.8607    1.0374 H         1 <0>         0.0715
     30 H4         -0.8709   -0.1431   -1.9232 H         1 <0>         0.1331
     31 H5         -0.8624   -2.6027   -1.9467 H         1 <0>         0.1336
     32 H6          0.9862   -2.6145    1.9221 H         1 <0>         0.1246
     33 H7          0.9772   -0.1548    1.9220 H         1 <0>         0.1315
     34 H8          0.0784   -4.7241   -2.1542 H         1 <0>         0.1732
     35 H9         -1.4626   -3.1908    2.1259 H         1 <0>         0.1459
     36 H10        -1.4576   -2.4679    4.4785 H         1 <0>         0.1580
     37 H11         1.6174   -5.2926    5.3496 H         1 <0>         0.1579
     38 H12         1.6117   -6.0309    3.0018 H         1 <0>         0.1479
     39 H13        -1.5085   -4.9443    7.0675 H         1 <0>         0.4179
     40 H14        -1.1624   -4.1277    8.4945 H         1 <0>         0.4235
@<TRIPOS>BOND
     1    1    2 1
     2    1   27 1
     3    1   28 1
     4    1   29 1
     5    2    7 ar
     6    2    3 ar
     7    3    4 ar
     8    3   30 1
     9    4    5 ar
    10    4   31 1
    11    5    6 ar
    12    5    8 1
    13    6    7 ar
    14    6   32 1
    15    7   33 1
    16    8   12 1
    17    8    9 2
    18    9   10 1
    19    9   34 1
    20   10   11 2
    21   10   23 1
    22   11   12 1
    23   12   13 1
    24   13   18 ar
    25   13   14 ar
    26   14   15 ar
    27   14   35 1
    28   15   16 ar
    29   15   36 1
    30   16   17 ar
    31   16   19 1
    32   17   18 ar
    33   17   37 1
    34   18   38 1
    35   19   20 2
    36   19   21 2
    37   19   22 1
    38   22   39 1
    39   22   40 1
    40   23   24 1
    41   23   25 1
    42   23   26 1
@<TRIPOS>MOLECULE
ZINC01529253
   23    22     0     0     0
SMALL
USER_CHARGES

@<TRIPOS>ATOM
      1 C1         -0.0187    1.5258    0.0104 C.3       1 <0>        -0.1185
      2 C2          0.0021   -0.0041    0.0020 C.3       1 <0>        -0.1546
      3 C3         -1.4333   -0.5336    0.0129 C.3       1 <0>        -0.0098
      4 N1         -1.4134   -2.0025    0.0048 N.4       1 <0>        -0.6393
      5 C4          1.4167    2.0553   -0.0004 C.3       1 <0>        -0.1545
      6 C5          1.3960    3.5852    0.0080 C.3       1 <0>        -0.0098
      7 N2          2.7741    4.0937   -0.0024 N.4       1 <0>        -0.6393
      8 H1         -0.5459    1.8868   -0.8726 H         1 <0>         0.0875
      9 H2         -0.5289    1.8773    0.9072 H         1 <0>         0.0875
     10 H3          0.5123   -0.3556   -0.8948 H         1 <0>         0.0923
     11 H4          0.5293   -0.3651    0.8851 H         1 <0>         0.0923
     12 H5         -1.9435   -0.1821    0.9097 H         1 <0>         0.1360
     13 H6         -1.9605   -0.1726   -0.8702 H         1 <0>         0.1360
     14 H7         -0.9411   -2.3279   -0.8254 H         1 <0>         0.4373
     15 H8         -0.9254   -2.3367    0.8222 H         1 <0>         0.4372
     16 H9          1.9439    1.6943    0.8826 H         1 <0>         0.0923
     17 H10         1.9269    1.7038   -0.8972 H         1 <0>         0.0923
     18 H11         0.8688    3.9463   -0.8751 H         1 <0>         0.1360
     19 H12         0.8858    3.9367    0.9048 H         1 <0>         0.1360
     20 H13         3.2621    3.7594    0.8150 H         1 <0>         0.4372
     21 H14         3.2464    3.7683   -0.8326 H         1 <0>         0.4373
     22 H15        -2.3600   -2.3517    0.0120 H         1 <0>         0.4442
     23 H16         2.7604    5.1025    0.0031 H         1 <0>         0.4442
@<TRIPOS>BOND
     1    1    2 1
     2    1    5 1
     3    1    8 1
     4    1    9 1
     5    2    3 1
     6    2   10 1
     7    2   11 1
     8    3    4 1
     9    3   12 1
    10    3   13 1
    11    4   14 1
    12    4   15 1
    13    4   22 1
    14    5    6 1
    15    5   16 1
    16    5   17 1
    17    6    7 1
    18    6   18 1
    19    6   19 1
    20    7   20 1
    21    7   21 1
    22    7   23 1
@<TRIPOS>MOLECULE
ZINC19365690
   48    47     0     0     0
SMALL
USER_CHARGES
N'-[2-(2-dimethylaminoethyl-methyl-amino)ethyl]-N,N,N'-trimethyl-ethane-1,2-diamine
@<TRIPOS>ATOM
      1 C1          1.3463    2.0098   -0.0000 C.3       1 <0>        -0.0462
      2 N1         -0.0178    1.4648    0.0101 N.4       1 <0>        -0.4005
      3 C2         -0.8017    1.9868   -1.1173 C.3       1 <0>        -0.0528
      4 C3          0.0021   -0.0041    0.0020 C.3       1 <0>        -0.0093
      5 C4         -1.4090   -0.5347    0.2631 C.3       1 <0>         0.0273
      6 N2         -1.3891   -2.0035    0.2551 N.3       1 <0>        -0.5344
      7 C5         -1.0640   -2.5183   -1.0818 C.3       1 <0>         0.0047
      8 C6         -2.6660   -2.5500    0.7334 C.3       1 <0>         0.0553
      9 C7         -2.5268   -4.0584    0.9481 C.3       1 <0>         0.0552
     10 N3         -3.8037   -4.6049    1.4264 N.3       1 <0>        -0.5345
     11 C8         -4.1288   -4.0901    2.7633 C.3       1 <0>         0.0050
     12 C9         -3.7838   -6.0737    1.4184 C.3       1 <0>         0.0273
     13 C10        -5.1949   -6.6044    1.6795 C.3       1 <0>        -0.0093
     14 N4         -5.1749   -8.0732    1.6714 N.4       1 <0>        -0.4005
     15 C11        -4.3911   -8.5953    2.7988 C.3       1 <0>        -0.0524
     16 C12        -6.5390   -8.6183    1.6815 C.3       1 <0>        -0.0462
     17 H1          1.9098    1.6034    0.8528 H         1 <0>         0.1258
     18 H2          1.3037    3.1062    0.0777 H         1 <0>         0.1284
     19 H3          1.8468    1.7279   -0.9381 H         1 <0>         0.1199
     20 H4         -1.8165    1.5634   -1.0855 H         1 <0>         0.1215
     21 H5         -0.3162    1.7047   -2.0632 H         1 <0>         0.1202
     22 H6         -0.8594    3.0831   -1.0474 H         1 <0>         0.1290
     23 H7          0.3524   -0.3606   -0.9779 H         1 <0>         0.1276
     24 H8          0.6812   -0.3660    0.7881 H         1 <0>         0.1407
     25 H9         -1.7593   -0.1781    1.2429 H         1 <0>         0.0985
     26 H10        -2.0881   -0.1729   -0.5230 H         1 <0>         0.0605
     27 H11        -1.0559   -3.6180   -1.0592 H         1 <0>         0.0829
     28 H12        -0.0727   -2.1505   -1.3853 H         1 <0>         0.0746
     29 H13        -1.8199   -2.1719   -1.8019 H         1 <0>         0.0400
     30 H14        -2.9381   -2.0679    1.6840 H         1 <0>         0.0842
     31 H15        -3.4503   -2.3568   -0.0133 H         1 <0>         0.0555
     32 H16        -2.2547   -4.5405   -0.0025 H         1 <0>         0.0843
     33 H17        -1.7426   -4.2517    1.6948 H         1 <0>         0.0556
     34 H18        -5.0875   -4.5144    3.0964 H         1 <0>         0.0738
     35 H19        -4.2067   -2.9935    2.7250 H         1 <0>         0.0831
     36 H20        -3.3357   -4.3769    3.4695 H         1 <0>         0.0404
     37 H21        -3.4334   -6.4303    0.4386 H         1 <0>         0.0984
     38 H22        -3.1047   -6.4355    2.2045 H         1 <0>         0.0605
     39 H23        -5.5452   -6.2478    2.6594 H         1 <0>         0.1277
     40 H24        -5.8740   -6.2426    0.8934 H         1 <0>         0.1407
     41 H25        -4.3928   -9.6949    2.7685 H         1 <0>         0.1289
     42 H26        -4.8370   -8.2539    3.7446 H         1 <0>         0.1198
     43 H27        -3.3567   -8.2281    2.7274 H         1 <0>         0.1216
     44 H28        -6.4947   -9.7174    1.6752 H         1 <0>         0.1283
     45 H29        -7.0804   -8.2680    0.7904 H         1 <0>         0.1260
     46 H30        -7.0633   -8.2777    2.5866 H         1 <0>         0.1198
     47 H31        -0.5052    1.7912    0.9406 H         1 <0>         0.4466
     48 H32        -4.6873   -8.3994    0.7409 H         1 <0>         0.4467
@<TRIPOS>BOND
     1    1    2 1
     2    1   17 1
     3    1   18 1
     4    1   19 1
     5    2    3 1
     6    2    4 1
     7    2   47 1
     8    3   20 1
     9    3   21 1
    10    3   22 1
    11    4    5 1
    12    4   23 1
    13    4   24 1
    14    5    6 1
    15    5   25 1
    16    5   26 1
    17    6    7 1
    18    6    8 1
    19    7   27 1
    20    7   28 1
    21    7   29 1
    22    8    9 1
    23    8   30 1
    24    8   31 1
    25    9   10 1
    26    9   32 1
    27    9   33 1
    28   10   11 1
    29   10   12 1
    30   11   34 1
    31   11   35 1
    32   11   36 1
    33   12   13 1
    34   12   37 1
    35   12   38 1
    36   13   14 1
    37   13   39 1
    38   13   40 1
    39   14   15 1
    40   14   16 1
    41   14   48 1
    42   15   41 1
    43   15   42 1
    44   15   43 1
    45   16   44 1
    46   16   45 1
    47   16   46 1
@<TRIPOS>MOLECULE
ZINC01700217
   29    30     0     0     0
SMALL
USER_CHARGES

@<TRIPOS>ATOM
      1 C1         -0.0164    1.3568    0.0095 C.ar      1 <0>        -0.1044
      2 C2          1.1685    2.0902    0.0021 C.ar      1 <0>        -0.1154
      3 C3          2.3785    1.4660   -0.0127 C.ar      1 <0>        -0.1086
      4 C4          2.4369    0.0637   -0.0208 C.ar      1 <0>        -0.0883
      5 C5          1.2329   -0.6830   -0.0133 C.ar      1 <0>        -0.0154
      6 C6          0.0021   -0.0041    0.0020 C.ar      1 <0>        -0.1079
      7 C7          1.2897   -2.0870   -0.0204 C.ar      1 <0>        -0.1454
      8 C8          2.4960   -2.7188   -0.0343 C.ar      1 <0>        -0.0741
      9 C9          3.6853   -1.9966   -0.0413 C.ar      1 <0>        -0.2035
     10 C10         3.6728   -0.6178   -0.0357 C.ar      1 <0>         0.2107
     11 N1          4.8691    0.0961   -0.0437 N.pl3     1 <0>        -0.7455
     12 C11         6.1482   -0.6180   -0.0592 C.3       1 <0>         0.1008
     13 C12         7.2966    0.3928   -0.0653 C.3       1 <0>        -0.0201
     14 N2          8.5792   -0.3232   -0.0809 N.4       1 <0>        -0.6315
     15 H1         -0.9633    1.8759    0.0259 H         1 <0>         0.1285
     16 H2          1.1264    3.1693    0.0079 H         1 <0>         0.1259
     17 H3          3.2888    2.0471   -0.0187 H         1 <0>         0.1160
     18 H4         -0.9241   -0.5595    0.0082 H         1 <0>         0.1331
     19 H5          0.3773   -2.6647   -0.0144 H         1 <0>         0.1292
     20 H6          2.5301   -3.7982   -0.0396 H         1 <0>         0.1256
     21 H7          4.6289   -2.5219   -0.0517 H         1 <0>         0.1166
     22 H8          4.8552    1.0660   -0.0390 H         1 <0>         0.4055
     23 H9          6.2233   -1.2480    0.8272 H         1 <0>         0.0823
     24 H10         6.2065   -1.2396   -0.9527 H         1 <0>         0.0823
     25 H11         7.2214    1.0228   -0.9517 H         1 <0>         0.1409
     26 H12         7.2383    1.0144    0.8282 H         1 <0>         0.1409
     27 H13         8.6488   -0.9063    0.7396 H         1 <0>         0.4388
     28 H14         8.6331   -0.8986   -0.9080 H         1 <0>         0.4388
     29 H15         9.3366    0.3434   -0.0849 H         1 <0>         0.4445
@<TRIPOS>BOND
     1    1    6 ar
     2    1    2 ar
     3    1   15 1
     4    2    3 ar
     5    2   16 1
     6    3    4 ar
     7    3   17 1
     8    4   10 ar
     9    4    5 ar
    10    5    6 ar
    11    5    7 ar
    12    6   18 1
    13    7    8 ar
    14    7   19 1
    15    8    9 ar
    16    8   20 1
    17    9   10 ar
    18    9   21 1
    19   10   11 1
    20   11   12 1
    21   11   22 1
    22   12   13 1
    23   12   23 1
    24   12   24 1
    25   13   14 1
    26   13   25 1
    27   13   26 1
    28   14   27 1
    29   14   28 1
    30   14   29 1
@<TRIPOS>MOLECULE
ZINC05501424
   52    51     0     0     0
SMALL
USER_CHARGES
2,2,2-trifluoro-N-[3-[4-[3-(2,2,2-trifluoroacetyl)aminopropylamino]butylamino]propyl]acetamide
@<TRIPOS>ATOM
      1 C1         -4.4001    8.7951    0.0707 C.3       1 <0>        -0.1499
      2 C2         -3.0852    8.0128    0.0602 C.3       1 <0>        -0.1499
      3 C3         -3.3845    6.5124    0.0535 C.3       1 <0>        -0.0054
      4 C4         -2.3709    4.3135    0.0367 C.3       1 <0>        -0.0006
      5 C5         -1.0356    3.5666    0.0263 C.3       1 <0>        -0.1671
      6 C6         -1.2947    2.0587    0.0194 C.3       1 <0>         0.1207
      7 N1         -0.0162    1.3436    0.0094 N.am      1 <0>        -0.7129
      8 C7          0.0021   -0.0041    0.0020 C.2       1 <0>         0.4901
      9 O1         -1.0399   -0.6247    0.0086 O.2       1 <0>        -0.4588
     10 C8          1.3172   -0.7397   -0.0145 C.3       1 <0>         0.4542
     11 F1          1.0803   -2.1185   -0.0196 F         1 <0>        -0.1437
     12 F2          2.0352   -0.3857   -1.1618 F         1 <0>        -0.1638
     13 F3          2.0570   -0.3979    1.1226 F         1 <0>        -0.1638
     14 C9         -4.1008   10.2955    0.0775 C.3       1 <0>        -0.0055
     15 C10        -5.1144   12.4943    0.0942 C.3       1 <0>        -0.0007
     16 C11        -6.4497   13.2412    0.1046 C.3       1 <0>        -0.1671
     17 C12        -6.1905   14.7491    0.1116 C.3       1 <0>         0.1207
     18 N2         -7.4691   15.4643    0.1215 N.am      1 <0>        -0.7129
     19 C13        -7.4873   16.8119    0.1289 C.2       1 <0>         0.4902
     20 O2         -6.4454   17.4325    0.1274 O.2       1 <0>        -0.4588
     21 C14        -8.8025   17.5476    0.1392 C.3       1 <0>         0.4541
     22 F4         -8.5656   18.9264    0.1455 F         1 <0>        -0.1436
     23 F5         -9.5369   17.2059   -1.0015 F         1 <0>        -0.1638
     24 F6         -9.5261   17.1935    1.2830 F         1 <0>        -0.1638
     25 H1         -4.9792    8.5441   -0.8179 H         1 <0>         0.1001
     26 H2         -4.9708    8.5344    0.9620 H         1 <0>         0.1001
     27 H3         -2.5060    8.2638    0.9489 H         1 <0>         0.1001
     28 H4         -2.5145    8.2734   -0.8311 H         1 <0>         0.1001
     29 H5         -3.9637    6.2614   -0.8351 H         1 <0>         0.1365
     30 H6         -3.9552    6.2517    0.9448 H         1 <0>         0.1365
     31 H7         -2.9430    4.0473   -0.8520 H         1 <0>         0.1397
     32 H8         -2.9346    4.0376    0.9279 H         1 <0>         0.1397
     33 H9         -0.4634    3.8328    0.9151 H         1 <0>         0.1009
     34 H10        -0.4719    3.8425   -0.8648 H         1 <0>         0.1008
     35 H11        -1.8669    1.7925   -0.8694 H         1 <0>         0.0895
     36 H12        -1.8585    1.7828    0.9106 H         1 <0>         0.0898
     37 H13         0.8172    1.8399    0.0041 H         1 <0>         0.4148
     38 H14        -3.5216   10.5465    0.9661 H         1 <0>         0.1365
     39 H15        -3.5300   10.5561   -0.8138 H         1 <0>         0.1365
     40 H16        -4.5422   12.7605    0.9830 H         1 <0>         0.1397
     41 H17        -4.5507   12.7702   -0.7970 H         1 <0>         0.1397
     42 H18        -7.0218   12.9750   -0.7841 H         1 <0>         0.1009
     43 H19        -7.0134   12.9653    0.9958 H         1 <0>         0.1009
     44 H20        -5.6184   15.0153    1.0003 H         1 <0>         0.0897
     45 H21        -5.6268   15.0250   -0.7796 H         1 <0>         0.0897
     46 H22        -8.3024   14.9679    0.1228 H         1 <0>         0.4148
     47 N3         -2.1123    5.7658    0.0434 N.4       1 <0>        -0.5199
     48 H23        -1.5699    6.0094    0.8805 H         1 <0>         0.4362
     49 H24        -1.5779    6.0185   -0.7962 H         1 <0>         0.4362
     50 N4         -5.3729   11.0421    0.0875 N.4       1 <0>        -0.5198
     51 H25        -5.9074   10.7894    0.9270 H         1 <0>         0.4362
     52 H26        -5.9152   10.7985   -0.7496 H         1 <0>         0.4362
@<TRIPOS>BOND
     1    1    2 1
     2    1   14 1
     3    1   25 1
     4    1   26 1
     5    2    3 1
     6    2   27 1
     7    2   28 1
     8    3   29 1
     9    3   30 1
    10    3   47 1
    11    4    5 1
    12    4   31 1
    13    4   32 1
    14    4   47 1
    15    5    6 1
    16    5   33 1
    17    5   34 1
    18    6    7 1
    19    6   35 1
    20    6   36 1
    21    7    8 am
    22    7   37 1
    23    8    9 2
    24    8   10 1
    25   10   11 1
    26   10   12 1
    27   10   13 1
    28   14   38 1
    29   14   39 1
    30   14   50 1
    31   15   16 1
    32   15   40 1
    33   15   41 1
    34   15   50 1
    35   16   17 1
    36   16   42 1
    37   16   43 1
    38   17   18 1
    39   17   44 1
    40   17   45 1
    41   18   19 am
    42   18   46 1
    43   19   20 2
    44   19   21 1
    45   21   22 1
    46   21   23 1
    47   21   24 1
    48   47   48 1
    49   47   49 1
    50   50   51 1
    51   50   52 1
@<TRIPOS>MOLECULE
ZINC04706717
   33    34     0     0     0
SMALL
USER_CHARGES
N-[2-(1-naphthylamino)ethyl]acetamide
@<TRIPOS>ATOM
      1 C1         -6.1304   10.2808    0.1166 C.3       1 <0>        -0.1729
      2 C2         -4.8135    9.5483    0.1000 C.2       1 <0>         0.5121
      3 O1         -3.7731   10.1714    0.0935 O.2       1 <0>        -0.5428
      4 N1         -4.7921    8.2007    0.0924 N.am      1 <0>        -0.7307
      5 C3         -3.5119    7.4886    0.0762 C.3       1 <0>         0.1065
      6 C4         -3.7675    5.9801    0.0703 C.3       1 <0>         0.1150
      7 N2         -2.4873    5.2680    0.0541 N.pl3     1 <0>        -0.7388
      8 C5         -2.4651    3.8750    0.0462 C.ar      1 <0>         0.2300
      9 C6         -3.6443    3.1604    0.0541 C.ar      1 <0>        -0.2184
     10 C7         -3.6330    1.7690    0.0472 C.ar      1 <0>        -0.0612
     11 C8         -2.4612    1.0755    0.0322 C.ar      1 <0>        -0.1693
     12 C9         -1.2374    1.7657    0.0175 C.ar      1 <0>        -0.0104
     13 C10        -1.2354    3.1824    0.0307 C.ar      1 <0>        -0.0965
     14 C11        -0.0120    3.8702    0.0226 C.ar      1 <0>        -0.0971
     15 C12         1.1553    3.1692    0.0081 C.ar      1 <0>        -0.1288
     16 C13         1.1546    1.7758    0.0006 C.ar      1 <0>        -0.1060
     17 C14        -0.0126    1.0758    0.0080 C.ar      1 <0>        -0.1158
     18 H1         -6.4381   10.4518    1.1483 H         1 <0>         0.0961
     19 H2         -6.0202   11.2380   -0.3930 H         1 <0>         0.0957
     20 H3         -6.8855    9.6825   -0.3933 H         1 <0>         0.0815
     21 H4         -5.6243    7.7024    0.0976 H         1 <0>         0.4041
     22 H5         -2.9361    7.7561    0.9622 H         1 <0>         0.0747
     23 H6         -2.9532    7.7659   -0.8177 H         1 <0>         0.0749
     24 H7         -4.3433    5.7126   -0.8157 H         1 <0>         0.0700
     25 H8         -4.3262    5.7028    0.9642 H         1 <0>         0.0700
     26 H9         -1.6551    5.7663    0.0489 H         1 <0>         0.4019
     27 H10        -4.5874    3.6865    0.0660 H         1 <0>         0.1200
     28 H11        -4.5690    1.2302    0.0535 H         1 <0>         0.1212
     29 H12        -2.4726   -0.0045    0.0267 H         1 <0>         0.1231
     30 H13         0.0036    4.9501    0.0276 H         1 <0>         0.1185
     31 H14         2.0953    3.7010    0.0019 H         1 <0>         0.1224
     32 H15         2.0942    1.2433   -0.0117 H         1 <0>         0.1230
     33 H16         0.0021   -0.0041    0.0020 H         1 <0>         0.1279
@<TRIPOS>BOND
     1    1    2 1
     2    1   18 1
     3    1   19 1
     4    1   20 1
     5    2    3 2
     6    2    4 am
     7    4    5 1
     8    4   21 1
     9    5    6 1
    10    5   22 1
    11    5   23 1
    12    6    7 1
    13    6   24 1
    14    6   25 1
    15    7    8 1
    16    7   26 1
    17    8   13 ar
    18    8    9 ar
    19    9   10 ar
    20    9   27 1
    21   10   11 ar
    22   10   28 1
    23   11   12 ar
    24   11   29 1
    25   12   17 ar
    26   12   13 ar
    27   13   14 ar
    28   14   15 ar
    29   14   30 1
    30   15   16 ar
    31   15   31 1
    32   16   17 ar
    33   16   32 1
    34   17   33 1
@<TRIPOS>MOLECULE
ZINC00156386
   23    23     0     0     0
SMALL
USER_CHARGES

@<TRIPOS>ATOM
      1 C1         -0.0173    1.4248    0.0099 C.3       1 <0>         0.0265
      2 O1          0.0021   -0.0041    0.0020 O.3       1 <0>        -0.3122
      3 C2          0.6062   -0.6076   -1.0565 C.ar      1 <0>         0.1191
      4 C3          1.1704    0.1588   -2.0580 C.ar      1 <0>        -0.1919
      5 C4          1.7916   -0.4626   -3.1463 C.ar      1 <0>        -0.0639
      6 C5          1.8394   -1.8588   -3.2169 C.ar      1 <0>        -0.1919
      7 C6          1.2734   -2.6195   -2.2122 C.ar      1 <0>         0.1189
      8 C7          0.6605   -1.9976   -1.1269 C.ar      1 <0>         0.0290
      9 O2          0.1097   -2.7484   -0.1378 O.3       1 <0>        -0.4759
     10 O3          1.3195   -3.9771   -2.2801 O.3       1 <0>        -0.3122
     11 C8          1.9685   -4.5481   -3.4179 C.3       1 <0>         0.0266
     12 C9          2.3935    0.3512   -4.2157 C.2       1 <0>         0.5204
     13 O4          2.3506    1.5722   -4.1529 O.co2     1 <0>        -0.6816
     14 O5          2.9365   -0.1936   -5.1670 O.co2     1 <0>        -0.6816
     15 H1          1.0053    1.8021    0.0021 H         1 <0>         0.0571
     16 H2         -0.5445    1.7859   -0.8732 H         1 <0>         0.0566
     17 H3         -0.5275    1.7763    0.9067 H         1 <0>         0.0956
     18 H4          1.1316    1.2366   -2.0009 H         1 <0>         0.1402
     19 H5          2.3180   -2.3415   -4.0561 H         1 <0>         0.1401
     20 H6         -0.8189   -2.9738   -0.2858 H         1 <0>         0.3719
     21 H7          1.4589   -4.2265   -4.3262 H         1 <0>         0.0566
     22 H8          3.0069   -4.2179   -3.4476 H         1 <0>         0.0571
     23 H9          1.9348   -5.6353   -3.3479 H         1 <0>         0.0956
@<TRIPOS>BOND
     1    1    2 1
     2    1   15 1
     3    1   16 1
     4    1   17 1
     5    2    3 1
     6    3    8 ar
     7    3    4 ar
     8    4    5 ar
     9    4   18 1
    10    5    6 ar
    11    5   12 1
    12    6    7 ar
    13    6   19 1
    14    7    8 ar
    15    7   10 1
    16    8    9 1
    17    9   20 1
    18   10   11 1
    19   11   21 1
    20   11   22 1
    21   11   23 1
    22   12   13 2
    23   12   14 1
@<TRIPOS>MOLECULE
ZINC00058172
   20    20     0     0     0
SMALL
USER_CHARGES

@<TRIPOS>ATOM
      1 C1         -0.0169    1.3957    0.0097 C.ar      1 <0>        -0.1140
      2 C2          1.1668    2.1000    0.0022 C.ar      1 <0>        -0.1250
      3 C3          2.3804    1.4254   -0.0135 C.ar      1 <0>         0.0593
      4 C4          2.4079    0.0305   -0.0212 C.ar      1 <0>         0.0806
      5 C5          1.2269   -0.6836   -0.0138 C.ar      1 <0>        -0.1286
      6 C6          0.0021   -0.0041    0.0020 C.ar      1 <0>        -0.0222
      7 C7         -1.2582   -0.7578    0.0105 C.2       1 <0>        -0.1234
      8 C8         -2.4405   -0.0992    0.0258 C.2       1 <0>        -0.1542
      9 C9         -3.6536   -0.8247    0.0339 C.2       1 <0>         0.4982
     10 O1         -3.6348   -2.0498    0.0272 O.co2     1 <0>        -0.6929
     11 O2         -4.7239   -0.2284    0.0477 O.co2     1 <0>        -0.6968
     12 O3          3.5989   -0.6258   -0.0366 O.3       1 <0>        -0.4900
     13 O4          3.5440    2.1254   -0.0217 O.3       1 <0>        -0.4895
     14 H1         -0.9592    1.9231    0.0260 H         1 <0>         0.1353
     15 H2          1.1511    3.1799    0.0081 H         1 <0>         0.1310
     16 H3          1.2470   -1.7634   -0.0205 H         1 <0>         0.1354
     17 H4         -1.2417   -1.8376    0.0045 H         1 <0>         0.1311
     18 H5         -2.4570    0.9807    0.0317 H         1 <0>         0.1021
     19 H6          3.9522   -0.8203    0.8423 H         1 <0>         0.3831
     20 H7          3.8899    2.3237    0.8592 H         1 <0>         0.3804
@<TRIPOS>BOND
     1    1    6 ar
     2    1    2 ar
     3    1   14 1
     4    2    3 ar
     5    2   15 1
     6    3    4 ar
     7    3   13 1
     8    4    5 ar
     9    4   12 1
    10    5    6 ar
    11    5   16 1
    12    6    7 1
    13    7    8 2
    14    7   17 1
    15    8    9 1
    16    8   18 1
    17    9   10 2
    18    9   11 1
    19   12   19 1
    20   13   20 1
@<TRIPOS>MOLECULE
ZINC00006787
   29    30     0     0     0
SMALL
USER_CHARGES

@<TRIPOS>ATOM
      1 C1         -0.0169    1.3936    0.0097 C.ar      1 <0>        -0.0880
      2 C2          1.1682    2.0965    0.0022 C.ar      1 <0>        -0.1444
      3 C3          2.3804    1.4185   -0.0131 C.ar      1 <0>         0.1088
      4 C4          2.4043    0.0297   -0.0212 C.ar      1 <0>        -0.1437
      5 C5          1.2244   -0.6820   -0.0142 C.ar      1 <0>        -0.0943
      6 C6          0.0021   -0.0041    0.0020 C.ar      1 <0>        -0.0701
      7 C7         -1.2624   -0.7604    0.0105 C.2       1 <0>        -0.0946
      8 C8         -1.2417   -2.1029    0.0031 C.2       1 <0>        -0.1125
      9 C9         -2.5067   -2.8595    0.0116 C.ar      1 <0>        -0.0208
     10 C10        -3.7282   -2.1821    0.0216 C.ar      1 <0>        -0.1505
     11 C11        -4.9138   -2.8974    0.0296 C.ar      1 <0>         0.1270
     12 C12        -4.8898   -4.2848    0.0277 C.ar      1 <0>        -0.1731
     13 C13        -3.6788   -4.9623    0.0183 C.ar      1 <0>         0.1263
     14 C14        -2.4878   -4.2561    0.0039 C.ar      1 <0>        -0.1438
     15 O1         -3.6617   -6.3213    0.0174 O.3       1 <0>        -0.4960
     16 O2         -6.1029   -2.2395    0.0398 O.3       1 <0>        -0.4960
     17 O3          3.5463    2.1158   -0.0204 O.3       1 <0>        -0.4996
     18 H1         -0.9588    1.9217    0.0260 H         1 <0>         0.1307
     19 H2          1.1546    3.1764    0.0077 H         1 <0>         0.1317
     20 H3          3.3492   -0.4932   -0.0334 H         1 <0>         0.1314
     21 H4          1.2440   -1.7618   -0.0209 H         1 <0>         0.1307
     22 H5         -2.2059   -0.2349    0.0227 H         1 <0>         0.1259
     23 H6         -0.2983   -2.6284   -0.0091 H         1 <0>         0.1276
     24 H7         -3.7479   -1.1023    0.0234 H         1 <0>         0.1351
     25 H8         -5.8166   -4.8392    0.0340 H         1 <0>         0.1362
     26 H9         -1.5459   -4.7843   -0.0083 H         1 <0>         0.1350
     27 H10        -3.6634   -6.7141   -0.8663 H         1 <0>         0.3942
     28 H11        -6.4539   -2.0477   -0.8406 H         1 <0>         0.3942
     29 H12         3.8923    2.3129    0.8608 H         1 <0>         0.3928
@<TRIPOS>BOND
     1    1    6 ar
     2    1    2 ar
     3    1   18 1
     4    2    3 ar
     5    2   19 1
     6    3    4 ar
     7    3   17 1
     8    4    5 ar
     9    4   20 1
    10    5    6 ar
    11    5   21 1
    12    6    7 1
    13    7    8 2
    14    7   22 1
    15    8    9 1
    16    8   23 1
    17    9   14 ar
    18    9   10 ar
    19   10   11 ar
    20   10   24 1
    21   11   12 ar
    22   11   16 1
    23   12   13 ar
    24   12   25 1
    25   13   14 ar
    26   13   15 1
    27   14   26 1
    28   15   27 1
    29   16   28 1
    30   17   29 1
@<TRIPOS>MOLECULE
ZINC01847418
   20    21     0     0     0
SMALL
USER_CHARGES

@<TRIPOS>ATOM
      1 C1         -0.0164    1.3570    0.0095 C.ar      1 <0>        -0.0607
      2 C2          1.1559    2.1003    0.0023 C.ar      1 <0>        -0.0335
      3 C3          2.3751    1.4492   -0.0129 C.ar      1 <0>        -0.0482
      4 C4          2.4044    0.0758   -0.0205 C.ar      1 <0>        -0.1700
      5 C5          1.2262   -0.7047   -0.0135 C.ar      1 <0>         0.0553
      6 C6          0.0021   -0.0041    0.0020 C.ar      1 <0>        -0.0616
      7 N1          1.4635   -2.0326   -0.0233 N.pl3     1 <0>        -0.3957
      8 C7          2.6693   -2.5212   -0.0374 C.2       1 <0>        -0.5489
      9 S1          3.6694   -1.1675   -0.0399 S.3       1 <0>         0.5786
     10 S2          3.1473   -4.2171   -0.0505 S.o2      1 <0>         2.7029
     11 O1          4.4614   -4.2728    0.4874 O.2       1 <0>        -0.8898
     12 O2          2.0643   -4.9487    0.5071 O.2       1 <0>        -0.8938
     13 N2          3.2649   -4.6804   -1.6360 N.pl3     1 <0>        -1.2233
     14 H1         -0.9661    1.8710    0.0259 H         1 <0>         0.1688
     15 H2          1.1157    3.1795    0.0081 H         1 <0>         0.1720
     16 H3          3.2953    2.0145   -0.0190 H         1 <0>         0.1711
     17 H4         -0.9285   -0.5522    0.0083 H         1 <0>         0.1630
     18 H5          3.8942   -5.3721   -1.8938 H         1 <0>         0.4424
     19 H6          0.7101   -2.6436   -0.0194 H         1 <0>         0.4469
     20 H7          2.7045   -4.2601   -2.3070 H         1 <0>         0.4244
@<TRIPOS>BOND
     1    1    6 ar
     2    1    2 ar
     3    1   14 1
     4    2    3 ar
     5    2   15 1
     6    3    4 ar
     7    3   16 1
     8    4    9 1
     9    4    5 ar
    10    5    6 ar
    11    5    7 1
    12    6   17 1
    13    7    8 2
    14    7   19 1
    15    8    9 1
    16    8   10 1
    17   10   11 2
    18   10   12 2
    19   10   13 1
    20   13   18 1
    21   13   20 1
@<TRIPOS>MOLECULE
ZINC01847418
   19    20     0     0     0
SMALL
USER_CHARGES

@<TRIPOS>ATOM
      1 C1         -0.0164    1.3570    0.0095 C.ar      1 <0>        -0.1152
      2 C2          1.1559    2.1003    0.0023 C.ar      1 <0>        -0.0636
      3 C3          2.3751    1.4492   -0.0129 C.ar      1 <0>        -0.0773
      4 C4          2.4044    0.0758   -0.0205 C.ar      1 <0>        -0.1412
      5 C5          1.2262   -0.7047   -0.0135 C.ar      1 <0>         0.0457
      6 C6          0.0021   -0.0041    0.0020 C.ar      1 <0>        -0.0314
      7 N1          1.4635   -2.0326   -0.0233 N.2       1 <0>        -0.3782
      8 C7          2.6693   -2.5212   -0.0378 C.2       1 <0>        -0.4951
      9 S1          3.6694   -1.1675   -0.0399 S.3       1 <0>         0.1861
     10 S2          3.1473   -4.2171   -0.0516 S.o2      1 <0>         2.7371
     11 O1          3.4111   -4.5757    1.2979 O.2       1 <0>        -0.9335
     12 O2          2.1912   -4.9021   -0.8489 O.2       1 <0>        -0.9225
     13 N2          4.5909   -4.3124   -0.8574 N.pl3     1 <0>        -1.2396
     14 H1         -0.9661    1.8710    0.0259 H         1 <0>         0.1440
     15 H2          1.1157    3.1795    0.0081 H         1 <0>         0.1477
     16 H3          3.2953    2.0145   -0.0190 H         1 <0>         0.1431
     17 H4         -0.9285   -0.5522    0.0083 H         1 <0>         0.1431
     18 H5          5.2298   -5.0052   -0.6277 H         1 <0>         0.4305
     19 H6          4.7977   -3.6753   -1.5590 H         1 <0>         0.4202
@<TRIPOS>BOND
     1    1    6 ar
     2    1    2 ar
     3    1   14 1
     4    2    3 ar
     5    2   15 1
     6    3    4 ar
     7    3   16 1
     8    4    9 1
     9    4    5 ar
    10    5    6 ar
    11    5    7 1
    12    6   17 1
    13    7    8 2
    14    8    9 1
    15    8   10 1
    16   10   11 2
    17   10   12 2
    18   10   13 1
    19   13   18 1
    20   13   19 1
@<TRIPOS>MOLECULE
ZINC00896918
   22    22     0     0     0
SMALL
USER_CHARGES

@<TRIPOS>ATOM
      1 C1         -0.0167    1.3778    0.0096 C.ar      1 <0>         0.0974
      2 C2          1.1707    2.0862    0.0021 C.ar      1 <0>        -0.6868
      3 C3          2.3777    1.4131   -0.0135 C.ar      1 <0>         0.0588
      4 C4          2.3983    0.0299   -0.0210 C.ar      1 <0>        -0.0734
      5 C5          1.2094   -0.6794   -0.0130 C.ar      1 <0>         0.1016
      6 C6          0.0021   -0.0041    0.0020 C.ar      1 <0>        -0.6843
      7 S1         -1.5117   -0.9057    0.0122 S.o2      1 <0>         2.7000
      8 O1         -1.3921   -1.8888    1.0313 O.2       1 <0>        -0.9349
      9 O2         -2.5575    0.0562    0.0006 O.2       1 <0>        -0.9450
     10 N1         -1.6044   -1.7230   -1.4251 N.pl3     1 <0>        -1.2435
     11 Cl1         1.2335   -2.4152   -0.0231 Cl        1 <0>         0.0087
     12 Cl2         3.9142   -0.8161   -0.0412 Cl        1 <0>        -0.0140
     13 S2          1.1451    3.8480    0.0117 S.o2      1 <0>         2.7054
     14 O3          2.3791    4.2752   -0.5486 O.2       1 <0>        -0.9481
     15 O4         -0.1113    4.2388   -0.5251 O.2       1 <0>        -0.9447
     16 N2          1.1530    4.3291    1.5963 N.pl3     1 <0>        -1.2462
     17 H1         -0.9593    1.9047    0.0259 H         1 <0>         0.1825
     18 H2          3.3048    1.9671   -0.0201 H         1 <0>         0.1751
     19 H3         -0.8907   -1.6407   -2.0768 H         1 <0>         0.4176
     20 H4         -2.3725   -2.2840   -1.6154 H         1 <0>         0.4278
     21 H5          1.1694    3.6663    2.3043 H         1 <0>         0.4190
     22 H6          1.1413    5.2737    1.8164 H         1 <0>         0.4268
@<TRIPOS>BOND
     1    1    6 ar
     2    1    2 ar
     3    1   17 1
     4    2    3 ar
     5    2   13 1
     6    3    4 ar
     7    3   18 1
     8    4    5 ar
     9    4   12 1
    10    5    6 ar
    11    5   11 1
    12    6    7 1
    13    7    8 2
    14    7    9 2
    15    7   10 1
    16   10   19 1
    17   10   20 1
    18   13   14 2
    19   13   15 2
    20   13   16 1
    21   16   21 1
    22   16   22 1
@<TRIPOS>MOLECULE
ZINC02506731
   21    21     0     0     0
SMALL
USER_CHARGES

@<TRIPOS>ATOM
      1 C1         -0.0166    1.3766    0.0096 C.ar      1 <0>        -0.0167
      2 C2          1.1707    2.0859    0.0021 C.ar      1 <0>        -0.1925
      3 C3          2.3799    1.4157   -0.0135 C.ar      1 <0>         0.0238
      4 C4          2.4059    0.0347   -0.0211 C.ar      1 <0>        -0.7469
      5 C5          1.2154   -0.6807   -0.0131 C.ar      1 <0>         0.3101
      6 C6          0.0021   -0.0041    0.0020 C.ar      1 <0>        -0.2007
      7 N1          1.2380   -2.0772   -0.0208 N.pl3     1 <0>        -0.5919
      8 N2          0.0663   -2.7793   -0.0129 N.3       1 <0>        -0.5996
      9 S1          3.9474   -0.8184   -0.0415 S.o2      1 <0>         2.7006
     10 O1          3.8584   -1.7934   -1.0714 O.2       1 <0>        -0.9719
     11 O2          4.9622    0.1761   -0.0196 O.2       1 <0>        -0.9615
     12 N3          4.0669   -1.6480    1.3867 N.pl3     1 <0>        -1.2535
     13 H1         -0.9594    1.9032    0.0259 H         1 <0>         0.1328
     14 H2          1.1532    3.1658    0.0080 H         1 <0>         0.1325
     15 H3          3.3052    1.9726   -0.0200 H         1 <0>         0.1458
     16 H4         -0.9254   -0.5574    0.0082 H         1 <0>         0.1375
     17 H5          2.0857   -2.5485   -0.0317 H         1 <0>         0.4056
     18 H6         -0.5220   -2.5097   -0.7871 H         1 <0>         0.3414
     19 H7          0.2402   -3.7732   -0.0199 H         1 <0>         0.3650
     20 H8          3.3512   -1.5955    2.0394 H         1 <0>         0.4182
     21 H9          4.8524   -2.1865    1.5706 H         1 <0>         0.4221
@<TRIPOS>BOND
     1    1    6 ar
     2    1    2 ar
     3    1   13 1
     4    2    3 ar
     5    2   14 1
     6    3    4 ar
     7    3   15 1
     8    4    5 ar
     9    4    9 1
    10    5    6 ar
    11    5    7 1
    12    6   16 1
    13    7    8 1
    14    7   17 1
    15    8   18 1
    16    8   19 1
    17    9   10 2
    18    9   11 2
    19    9   12 1
    20   12   20 1
    21   12   21 1
@<TRIPOS>MOLECULE
ZINC00056721
   26    27     0     0     0
SMALL
USER_CHARGES

@<TRIPOS>ATOM
      1 C1         -0.0187    1.5258    0.0104 C.3       1 <0>        -0.1547
      2 C2          0.0021   -0.0041    0.0020 C.3       1 <0>         0.0492
      3 O1          0.6932   -0.4774    1.1597 O.3       1 <0>        -0.3006
      4 C3          0.8020   -1.8247    1.3057 C.ar      1 <0>         0.1921
      5 C4          0.2604   -2.6828    0.3521 C.ar      1 <0>        -0.2018
      6 C5          0.3546   -4.0332    0.4731 C.ar      1 <0>         0.0140
      7 C6          1.0107   -4.6197    1.5806 C.ar      1 <0>        -0.0020
      8 C7          1.5510   -3.7250    2.5328 C.ar      1 <0>        -0.0796
      9 C8          1.4586   -2.3607    2.4030 C.ar      1 <0>        -0.1219
     10 S1          2.2658   -4.8318    3.7244 S.3       1 <0>         0.1249
     11 C9          1.8165   -6.3576    2.9091 C.2       1 <0>        -0.4422
     12 N1          1.1890   -5.9318    1.8469 N.2       1 <0>        -0.3736
     13 S2          2.1387   -8.0154    3.4117 S.o2      1 <0>         2.7381
     14 O2          3.5473   -8.1923    3.3489 O.2       1 <0>        -0.9371
     15 O3          1.3964   -8.2298    4.6043 O.2       1 <0>        -0.9317
     16 N2          1.4848   -9.0116    2.2617 N.pl3     1 <0>        -1.2315
     17 H1          1.0039    1.9031    0.0027 H         1 <0>         0.0693
     18 H2         -0.5459    1.8868   -0.8726 H         1 <0>         0.0837
     19 H3         -0.5289    1.8773    0.9072 H         1 <0>         0.0693
     20 H4         -1.0205   -0.3814    0.0098 H         1 <0>         0.0697
     21 H5          0.5123   -0.3556   -0.8948 H         1 <0>         0.0697
     22 H6         -0.2474   -2.2649   -0.5046 H         1 <0>         0.1477
     23 H7         -0.0778   -4.6673   -0.2867 H         1 <0>         0.1464
     24 H8          1.8895   -1.7116    3.1509 H         1 <0>         0.1511
     25 H9          1.8842   -9.8780    2.0868 H         1 <0>         0.4270
     26 H10         0.7024   -8.7286    1.7631 H         1 <0>         0.4245
@<TRIPOS>BOND
     1    1    2 1
     2    1   17 1
     3    1   18 1
     4    1   19 1
     5    2    3 1
     6    2   20 1
     7    2   21 1
     8    3    4 1
     9    4    9 ar
    10    4    5 ar
    11    5    6 ar
    12    5   22 1
    13    6    7 ar
    14    6   23 1
    15    7   12 1
    16    7    8 ar
    17    8    9 ar
    18    8   10 1
    19    9   24 1
    20   10   11 1
    21   11   12 2
    22   11   13 1
    23   13   14 2
    24   13   15 2
    25   13   16 1
    26   16   25 1
    27   16   26 1
@<TRIPOS>MOLECULE
ZINC13686369
   31    32     0     0     0
SMALL
USER_CHARGES

@<TRIPOS>ATOM
      1 C1         -0.0184    1.5028    0.0103 C.3       1 <0>        -0.1759
      2 C2          0.0021   -0.0041    0.0020 C.2       1 <0>         0.5126
      3 O1          1.0605   -0.5961   -0.0113 O.2       1 <0>        -0.5411
      4 N1         -1.1558   -0.6938    0.0094 N.am      1 <0>        -0.7268
      5 C3         -1.1360   -2.1586    0.0013 C.3       1 <0>         0.1451
      6 H1         -0.2832   -2.5360    0.5656 H         1 <0>         0.1062
      7 C4         -1.1198   -2.6992   -1.4443 C.3       1 <0>        -0.1040
      8 C5         -1.9499   -3.9643   -1.4035 C.ar      1 <0>        -0.0314
      9 C6         -2.0254   -5.0174   -2.2997 C.ar      1 <0>        -0.1257
     10 C7         -2.8672   -6.0834   -2.0502 C.ar      1 <0>        -0.0181
     11 C8         -3.6375   -6.1002   -0.9021 C.ar      1 <0>        -0.6771
     12 C9         -3.5635   -5.0509   -0.0073 C.ar      1 <0>         0.0002
     13 C10        -2.7199   -3.9810   -0.2558 C.ar      1 <0>        -0.1194
     14 C11        -2.4579   -2.7283    0.5582 C.3       1 <0>        -0.0871
     15 S1         -4.7128   -7.4587   -0.5814 S.o2      1 <0>         2.7040
     16 O2         -5.7285   -6.9763    0.2873 O.2       1 <0>        -0.9621
     17 O3         -5.0045   -8.0515   -1.8395 O.2       1 <0>        -0.9593
     18 N2         -3.8458   -8.5769    0.2790 N.pl3     1 <0>        -1.2478
     19 H2          1.0042    1.8801    0.0026 H         1 <0>         0.0944
     20 H3         -0.5455    1.8639   -0.8728 H         1 <0>         0.0896
     21 H4         -0.5286    1.8543    0.9071 H         1 <0>         0.0900
     22 H5         -2.0023   -0.2203    0.0200 H         1 <0>         0.4040
     23 H6         -1.5680   -1.9745   -2.1241 H         1 <0>         0.0941
     24 H7         -0.0990   -2.9263   -1.7518 H         1 <0>         0.0902
     25 H8         -1.4243   -5.0048   -3.1969 H         1 <0>         0.1347
     26 H9         -2.9241   -6.9029   -2.7512 H         1 <0>         0.1465
     27 H10        -4.1655   -5.0648    0.8893 H         1 <0>         0.1424
     28 H11        -2.3482   -2.9753    1.6142 H         1 <0>         0.0904
     29 H12        -3.2672   -2.0115    0.4188 H         1 <0>         0.0916
     30 H13        -4.2966   -9.1581    0.9113 H         1 <0>         0.4224
     31 H14        -2.8871   -8.6506    0.1507 H         1 <0>         0.4176
@<TRIPOS>BOND
     1    1    2 1
     2    1   19 1
     3    1   20 1
     4    1   21 1
     5    2    3 2
     6    2    4 am
     7    4    5 1
     8    4   22 1
     9    5    6 1
    10    5   14 1
    11    5    7 1
    12    7    8 1
    13    7   23 1
    14    7   24 1
    15    8   13 ar
    16    8    9 ar
    17    9   10 ar
    18    9   25 1
    19   10   11 ar
    20   10   26 1
    21   11   12 ar
    22   11   15 1
    23   12   13 ar
    24   12   27 1
    25   13   14 1
    26   14   28 1
    27   14   29 1
    28   15   16 2
    29   15   17 2
    30   15   18 1
    31   18   30 1
    32   18   31 1
@<TRIPOS>MOLECULE
ZINC13686373
   31    32     0     0     0
SMALL
USER_CHARGES

@<TRIPOS>ATOM
      1 C1         -0.0184    1.5028    0.0103 C.3       1 <0>        -0.1757
      2 C2          0.0021   -0.0041    0.0020 C.2       1 <0>         0.5121
      3 O1          1.0605   -0.5961   -0.0113 O.2       1 <0>        -0.5403
      4 N1         -1.1558   -0.6938    0.0094 N.am      1 <0>        -0.7267
      5 C3         -1.1360   -2.1586    0.0013 C.3       1 <0>         0.1446
      6 H1         -0.2942   -2.5298   -0.5832 H         1 <0>         0.1064
      7 C4         -1.0923   -2.7146    1.4405 C.3       1 <0>        -0.1037
      8 C5         -1.9231   -3.9793    1.4019 C.ar      1 <0>        -0.0314
      9 C6         -1.9816   -5.0421    2.2881 C.ar      1 <0>        -0.1257
     10 C7         -2.8281   -6.1054    2.0432 C.ar      1 <0>        -0.0181
     11 C8         -3.6201   -6.1099    0.9100 C.ar      1 <0>        -0.6770
     12 C9         -3.5632   -5.0511    0.0252 C.ar      1 <0>         0.0002
     13 C10        -2.7149   -3.9838    0.2690 C.ar      1 <0>        -0.1195
     14 C11        -2.4684   -2.7224   -0.5363 C.3       1 <0>        -0.0869
     15 S1         -4.7007   -7.4655    0.5947 S.o2      1 <0>         2.7035
     16 O2         -4.9314   -7.4834   -0.8073 O.2       1 <0>        -0.9616
     17 O3         -4.1663   -8.5818    1.2931 O.2       1 <0>        -0.9589
     18 N2         -6.1522   -7.1111    1.3088 N.pl3     1 <0>        -1.2479
     19 H2          1.0042    1.8801    0.0026 H         1 <0>         0.0944
     20 H3         -0.5455    1.8639   -0.8728 H         1 <0>         0.0899
     21 H4         -0.5286    1.8543    0.9071 H         1 <0>         0.0894
     22 H5         -2.0023   -0.2203    0.0200 H         1 <0>         0.4036
     23 H6         -0.0658   -2.9450    1.7259 H         1 <0>         0.0903
     24 H7         -1.5273   -1.9974    2.1364 H         1 <0>         0.0938
     25 H8         -1.3630   -5.0394    3.1733 H         1 <0>         0.1347
     26 H9         -2.8712   -6.9327    2.7360 H         1 <0>         0.1465
     27 H10        -4.1822   -5.0554   -0.8598 H         1 <0>         0.1425
     28 H11        -3.2747   -2.0073   -0.3738 H         1 <0>         0.0911
     29 H12        -2.3789   -2.9581   -1.5968 H         1 <0>         0.0908
     30 H13        -6.9759   -7.4562    0.9303 H         1 <0>         0.4224
     31 H14        -6.1786   -6.5584    2.1055 H         1 <0>         0.4172
@<TRIPOS>BOND
     1    1    2 1
     2    1   19 1
     3    1   20 1
     4    1   21 1
     5    2    3 2
     6    2    4 am
     7    4    5 1
     8    4   22 1
     9    5    6 1
    10    5   14 1
    11    5    7 1
    12    7    8 1
    13    7   23 1
    14    7   24 1
    15    8   13 ar
    16    8    9 ar
    17    9   10 ar
    18    9   25 1
    19   10   11 ar
    20   10   26 1
    21   11   12 ar
    22   11   15 1
    23   12   13 ar
    24   12   27 1
    25   13   14 1
    26   14   28 1
    27   14   29 1
    28   15   16 2
    29   15   17 2
    30   15   18 1
    31   18   30 1
    32   18   31 1
@<TRIPOS>MOLECULE
ZINC12503151
   23    23     0     0     0
SMALL
NO_CHARGES

@<TRIPOS>ATOM
      1 C1         -0.3789    1.0705    0.3515 C.3       1 <0>        -0.1347
      2 C2          0.5076   -0.1196    0.0888 C.2       1 <0>         0.4551
      3 O1          1.3641   -0.4298    0.8951 O.3       1 <0>        -0.3923
      4 N1          0.3540   -0.8288   -1.0216 N.2       1 <0>        -0.6178
      5 C3         -0.0468   -2.1007   -0.9514 C.2       1 <0>         0.3126
      6 N2         -0.4722   -2.7924    0.1303 N.pl3     1 <0>        -0.4005
      7 N3         -0.8397   -4.1105   -0.0380 N.pl3     1 <0>        -0.2827
      8 C4         -0.7560   -4.6173   -1.2349 C.2       1 <0>        -0.3295
      9 S1         -0.1544   -3.2357   -2.1872 S.3       1 <0>         0.3047
     10 S2         -1.1447   -6.2486   -1.7756 S.o2      1 <0>         2.5478
     11 O2         -0.0915   -6.6516   -2.6403 O.2       1 <0>        -0.9992
     12 O3         -1.5023   -6.9867   -0.6152 O.2       1 <0>        -1.0188
     13 N4         -2.5089   -6.1432   -2.7085 N.2       1 <0>        -1.2921
     14 C5         -0.5404   -2.1568    1.4485 C.3       1 <0>        -0.0096
     15 H1          0.0812    1.9657   -0.0669 H         1 <0>         0.1260
     16 H2         -1.3508    0.9096   -0.1151 H         1 <0>         0.1164
     17 H3         -0.5083    1.1970    1.4263 H         1 <0>         0.1126
     18 H4         -2.8882   -6.9430   -3.1051 H         1 <0>         0.3463
     19 H5         -0.8348   -1.1136    1.3340 H         1 <0>         0.0956
     20 H6         -1.2744   -2.6760    2.0647 H         1 <0>         0.1123
     21 H7          0.4374   -2.2079    1.9275 H         1 <0>         0.0918
     22 H8         -1.1502   -4.6433    0.7107 H         1 <0>         0.4270
     23 H9          1.8975   -1.1912    0.6290 H         1 <0>         0.4290
@<TRIPOS>BOND
     1    1    2 1
     2    1   15 1
     3    1   16 1
     4    1   17 1
     5    2    3 2
     6    2    4 1
     7    3   23 1
     8    4    5 2
     9    5    9 1
    10    5    6 1
    11    6    7 1
    12    6   14 1
    13    7    8 2
    14    7   22 1
    15    8    9 1
    16    8   10 1
    17   10   11 2
    18   10   12 2
    19   10   13 1
    20   13   18 1
    21   14   19 1
    22   14   20 1
    23   14   21 1
@<TRIPOS>MOLECULE
ZINC12503151
   23    23     0     0     0
SMALL
NO_CHARGES

@<TRIPOS>ATOM
      1 C1         -1.1346    0.9241    0.3407 C.3       1 <0>        -0.1307
      2 C2          0.0031   -0.0044    0.0020 C.2       1 <0>         0.4894
      3 O1          0.9224   -0.1509    0.7852 O.3       1 <0>        -0.3736
      4 N1          0.0020   -0.6621   -1.1500 N.2       1 <0>        -0.6464
      5 C3         -0.0802   -1.9949   -1.1578 C.2       1 <0>         0.3469
      6 N2          0.0027   -2.8388   -2.2117 N.pl3     1 <0>        -0.3538
      7 N3         -0.1119   -4.1925   -1.9774 N.pl3     1 <0>        -0.2782
      8 C4         -0.2944   -4.5840   -0.7486 C.2       1 <0>        -0.3302
      9 S1         -0.3048   -3.0391    0.1407 S.3       1 <0>         0.0989
     10 S2         -0.4768   -6.2215   -0.1244 S.o2      1 <0>         2.5579
     11 O2         -1.5476   -6.1834    0.8090 O.2       1 <0>        -1.0001
     12 O3         -0.4786   -7.0877   -1.2508 O.2       1 <0>        -1.0219
     13 N4          0.8919   -6.5715    0.7396 N.2       1 <0>        -1.2976
     14 C5          0.2086   -2.3268   -3.5688 C.3       1 <0>         0.0360
     15 H1         -0.9060    1.9262   -0.0224 H         1 <0>         0.1254
     16 H2         -2.0490    0.5661   -0.1324 H         1 <0>         0.1183
     17 H3         -1.2715    0.9518    1.4217 H         1 <0>         0.1209
     18 H4          0.9868   -7.4364    1.1685 H         1 <0>         0.3466
     19 H5          1.2771   -2.2630   -3.7748 H         1 <0>         0.0931
     20 H6         -0.2601   -3.0003   -4.2862 H         1 <0>         0.0994
     21 H7         -0.2378   -1.3362   -3.6550 H         1 <0>         0.1167
     22 H8         -0.0588   -4.8327   -2.7042 H         1 <0>         0.4514
     23 H9          1.5651   -0.8215    0.5163 H         1 <0>         0.4315
@<TRIPOS>BOND
     1    1    2 1
     2    1   15 1
     3    1   16 1
     4    1   17 1
     5    2    3 2
     6    2    4 1
     7    3   23 1
     8    4    5 2
     9    5    9 1
    10    5    6 1
    11    6    7 1
    12    6   14 1
    13    7    8 2
    14    7   22 1
    15    8    9 1
    16    8   10 1
    17   10   11 2
    18   10   12 2
    19   10   13 1
    20   13   18 1
    21   14   19 1
    22   14   20 1
    23   14   21 1
@<TRIPOS>MOLECULE
ZINC00057719
   24    25     0     0     0
SMALL
USER_CHARGES
7-ethoxychromen-2-one
@<TRIPOS>ATOM
      1 C1         -2.5802    4.0249    0.0361 C.3       1 <0>        -0.1550
      2 C2         -1.1559    3.4661    0.0264 C.3       1 <0>         0.0514
      3 O1         -1.2045    2.0380    0.0188 O.3       1 <0>        -0.3054
      4 C3         -0.0167    1.3809    0.0096 C.ar      1 <0>         0.1915
      5 C4          1.1738    2.1055    0.0022 C.ar      1 <0>        -0.2283
      6 C5          2.3758    1.4597   -0.0124 C.ar      1 <0>        -0.0099
      7 C6          2.4136    0.0606   -0.0207 C.ar      1 <0>        -0.2019
      8 C7          3.6889   -0.6590   -0.0367 C.2       1 <0>         0.0111
      9 C8          3.6594   -2.0171   -0.0437 C.2       1 <0>        -0.2573
     10 C9          2.4212   -2.6917   -0.0355 C.2       1 <0>         0.5094
     11 O2          2.4090   -3.9096   -0.0419 O.2       1 <0>        -0.4613
     12 O3          1.2557   -2.0261   -0.0204 O.3       1 <0>        -0.2701
     13 C10         1.2148   -0.6765   -0.0132 C.ar      1 <0>         0.1898
     14 C11         0.0021   -0.0041    0.0020 C.ar      1 <0>        -0.1781
     15 H1         -3.1019    3.6744    0.9267 H         1 <0>         0.0688
     16 H2         -2.5431    5.1142    0.0419 H         1 <0>         0.0826
     17 H3         -3.1103    3.6840   -0.8532 H         1 <0>         0.0689
     18 H4         -0.6258    3.8069    0.9157 H         1 <0>         0.0683
     19 H5         -0.6342    3.8166   -0.8642 H         1 <0>         0.0683
     20 H6          1.1448    3.1851    0.0083 H         1 <0>         0.1416
     21 H7          3.2952    2.0265   -0.0186 H         1 <0>         0.1442
     22 H8          4.6273   -0.1245   -0.0425 H         1 <0>         0.1540
     23 H9          4.5819   -2.5786   -0.0559 H         1 <0>         0.1647
     24 H10        -0.9248   -0.5585    0.0076 H         1 <0>         0.1528
@<TRIPOS>BOND
     1    1    2 1
     2    1   15 1
     3    1   16 1
     4    1   17 1
     5    2    3 1
     6    2   18 1
     7    2   19 1
     8    3    4 1
     9    4   14 ar
    10    4    5 ar
    11    5    6 ar
    12    5   20 1
    13    6    7 ar
    14    6   21 1
    15    7   13 ar
    16    7    8 1
    17    8    9 2
    18    8   22 1
    19    9   10 1
    20    9   23 1
    21   10   11 2
    22   10   12 1
    23   12   13 1
    24   13   14 ar
    25   14   24 1
@<TRIPOS>MOLECULE
ZINC01532612
   32    31     0     0     0
SMALL
USER_CHARGES

@<TRIPOS>ATOM
      1 C1         -0.0187    1.5258    0.0104 C.3       1 <0>        -0.1525
      2 C2          0.0021   -0.0041    0.0020 C.3       1 <0>        -0.1508
      3 C3         -1.4333   -0.5336    0.0129 C.3       1 <0>        -0.0098
      4 N1         -1.4134   -2.0025    0.0048 N.4       1 <0>        -0.5105
      5 C4         -2.7915   -2.5110    0.0152 C.3       1 <0>        -0.0048
      6 C5         -2.7708   -4.0408    0.0068 C.3       1 <0>        -0.1881
      7 C6         -4.2062   -4.5704    0.0177 C.3       1 <0>        -0.0022
      8 N2         -4.1863   -6.0392    0.0096 N.4       1 <0>        -0.6386
      9 C7          1.4167    2.0553   -0.0004 C.3       1 <0>        -0.0083
     10 N3          1.3968    3.5242    0.0076 N.4       1 <0>        -0.6396
     11 H1         -0.5459    1.8868   -0.8726 H         1 <0>         0.1012
     12 H2         -0.5289    1.8773    0.9072 H         1 <0>         0.1012
     13 H3          0.5123   -0.3556   -0.8948 H         1 <0>         0.1018
     14 H4          0.5293   -0.3651    0.8851 H         1 <0>         0.1017
     15 H5         -1.9435   -0.1821    0.9097 H         1 <0>         0.1401
     16 H6         -1.9605   -0.1726   -0.8702 H         1 <0>         0.1401
     17 H7         -0.9411   -2.3279   -0.8254 H         1 <0>         0.4346
     18 H8         -3.3017   -2.1594    0.9120 H         1 <0>         0.1457
     19 H9         -3.3187   -2.1499   -0.8678 H         1 <0>         0.1457
     20 H10        -2.2606   -4.3923   -0.8900 H         1 <0>         0.1137
     21 H11        -2.2436   -4.4019    0.8899 H         1 <0>         0.1137
     22 H12        -4.7164   -4.2189    0.9145 H         1 <0>         0.1458
     23 H13        -4.7334   -4.2093   -0.8654 H         1 <0>         0.1458
     24 H14        -3.7140   -6.3646   -0.8206 H         1 <0>         0.4411
     25 H15        -3.6982   -6.3735    0.8270 H         1 <0>         0.4411
     26 H16         1.9439    1.6943    0.8826 H         1 <0>         0.1382
     27 H17         1.9269    1.7038   -0.8972 H         1 <0>         0.1382
     28 H18         0.9088    3.8584   -0.8098 H         1 <0>         0.4394
     29 H19         0.9245    3.8496    0.8378 H         1 <0>         0.4394
     30 H20        -5.1329   -6.3885    0.0168 H         1 <0>         0.4534
     31 H21         2.3434    3.8734    0.0005 H         1 <0>         0.4488
     32 H22        -0.9254   -2.3367    0.8222 H         1 <0>         0.4346
@<TRIPOS>BOND
     1    1    2 1
     2    1    9 1
     3    1   11 1
     4    1   12 1
     5    2    3 1
     6    2   13 1
     7    2   14 1
     8    3    4 1
     9    3   15 1
    10    3   16 1
    11    4    5 1
    12    4   17 1
    13    4   32 1
    14    5    6 1
    15    5   18 1
    16    5   19 1
    17    6    7 1
    18    6   20 1
    19    6   21 1
    20    7    8 1
    21    7   22 1
    22    7   23 1
    23    8   24 1
    24    8   25 1
    25    8   30 1
    26    9   10 1
    27    9   26 1
    28    9   27 1
    29   10   28 1
    30   10   29 1
    31   10   31 1
@<TRIPOS>MOLECULE
ZINC03813042
   19    19     0     0     0
SMALL
USER_CHARGES

@<TRIPOS>ATOM
      1 C1         -0.0184    1.5028    0.0103 C.3       1 <0>        -0.1669
      2 C2          0.0021   -0.0041    0.0020 C.2       1 <0>         0.5048
      3 O1          1.0605   -0.5961   -0.0113 O.2       1 <0>        -0.4597
      4 N1         -1.1558   -0.6938    0.0094 N.am      1 <0>        -0.6127
      5 C3         -1.1370   -2.0844    0.0017 C.2       1 <0>         0.2593
      6 N2         -0.1026   -2.9019   -0.0067 N.2       1 <0>        -0.3105
      7 N3         -0.2439   -4.1575   -0.0130 N.2       1 <0>        -0.1075
      8 C4         -1.4599   -4.6659   -0.0111 C.2       1 <0>        -0.5832
      9 S1         -2.4308   -3.1653    0.0083 S.3       1 <0>         0.2359
     10 S2         -1.9811   -6.3490   -0.0183 S.o2      1 <0>         2.7480
     11 O2         -1.9574   -6.7873    1.3333 O.2       1 <0>        -0.9356
     12 O3         -3.1545   -6.4075   -0.8177 O.2       1 <0>        -0.9350
     13 N4         -0.8199   -7.2178   -0.8179 N.pl3     1 <0>        -1.2313
     14 H1          1.0042    1.8801    0.0026 H         1 <0>         0.1076
     15 H2         -0.5455    1.8639   -0.8728 H         1 <0>         0.1002
     16 H3         -0.5286    1.8543    0.9071 H         1 <0>         0.1002
     17 H4         -2.0023   -0.2203    0.0200 H         1 <0>         0.4348
     18 H5         -0.6611   -8.1456   -0.5837 H         1 <0>         0.4284
     19 H6         -0.2986   -6.7988   -1.5204 H         1 <0>         0.4232
@<TRIPOS>BOND
     1    1    2 1
     2    1   14 1
     3    1   15 1
     4    1   16 1
     5    2    3 2
     6    2    4 am
     7    4    5 1
     8    4   17 1
     9    5    9 1
    10    5    6 2
    11    6    7 1
    12    7    8 2
    13    8    9 1
    14    8   10 1
    15   10   11 2
    16   10   12 2
    17   10   13 1
    18   13   18 1
    19   13   19 1
@<TRIPOS>MOLECULE
ZINC03813042
   18    18     0     0     0
SMALL
USER_CHARGES

@<TRIPOS>ATOM
      1 C1         -0.0184    1.5028    0.0103 C.3       1 <0>        -0.1624
      2 C2          0.0021   -0.0041    0.0020 C.2       1 <0>         0.5010
      3 O1          0.0203   -0.6161    1.0490 O.2       1 <0>        -0.4698
      4 N1          0.0001   -0.6716   -1.1688 N.am      1 <0>        -0.6150
      5 C3          0.0189   -2.0622   -1.1765 C.2       1 <0>         0.2229
      6 N2          0.0342   -2.8992   -0.1578 N.2       1 <0>        -0.3133
      7 N3          0.0506   -4.1518   -0.3231 N.2       1 <0>        -0.1306
      8 C4          0.0525   -4.6369   -1.5486 C.2       1 <0>        -0.4261
      9 S1          0.0209   -3.1183   -2.4906 S.3       1 <0>         0.1375
     10 S2          0.0731   -6.3097   -2.1017 S.o2      1 <0>         2.6009
     11 O2         -1.2748   -6.7592   -2.0864 O.2       1 <0>        -1.0365
     12 O3          0.8728   -6.3393   -3.2760 O.2       1 <0>        -1.0415
     13 N4          0.8799   -7.1939   -0.9573 N.2       1 <0>        -1.3126
     14 H1          1.0042    1.8801    0.0026 H         1 <0>         0.1013
     15 H2         -0.5455    1.8639   -0.8728 H         1 <0>         0.0851
     16 H3         -0.5286    1.8543    0.9071 H         1 <0>         0.1022
     17 H4         -0.0145   -0.1822   -2.0061 H         1 <0>         0.4269
     18 H5          0.9999   -8.1489   -1.0779 H         1 <0>         0.3298
@<TRIPOS>BOND
     1    1    2 1
     2    1   14 1
     3    1   15 1
     4    1   16 1
     5    2    3 2
     6    2    4 am
     7    4    5 1
     8    4   17 1
     9    5    9 1
    10    5    6 2
    11    6    7 1
    12    7    8 2
    13    8    9 1
    14    8   10 1
    15   10   11 2
    16   10   12 2
    17   10   13 1
    18   13   18 1
@<TRIPOS>MOLECULE
ZINC00119978
   35    37     0     0     0
SMALL
USER_CHARGES

@<TRIPOS>ATOM
      1 C1         -0.0167    1.3779    0.0096 C.ar      1 <0>        -0.0610
      2 C2          1.1696    2.0886    0.0021 C.ar      1 <0>        -0.1355
      3 C3          2.3802    1.4154   -0.0130 C.ar      1 <0>         0.0908
      4 C4          2.3990    0.0236   -0.0206 C.ar      1 <0>         0.0771
      5 C5          1.2071   -0.6822   -0.0130 C.ar      1 <0>        -0.1167
      6 C6          0.0021   -0.0041    0.0020 C.ar      1 <0>        -0.0830
      7 C7         -1.2936   -0.7736    0.0102 C.3       1 <0>         0.1458
      8 H1         -1.1201   -1.7884   -0.3479 H         1 <0>         0.0970
      9 C8         -1.8590   -0.8183    1.4356 C.3       1 <0>         0.0774
     10 H2         -1.1168   -1.2422    2.1121 H         1 <0>         0.0795
     11 C9         -3.1120   -1.6975    1.4281 C.3       1 <0>        -0.1008
     12 C10        -4.0118   -1.2895    0.2891 C.ar      1 <0>        -0.1920
     13 C11        -5.3448   -1.6839    0.3168 C.ar      1 <0>         0.1573
     14 C12        -6.1992   -1.3308   -0.7146 C.ar      1 <0>        -0.2027
     15 C13        -5.7231   -0.5806   -1.7796 C.ar      1 <0>         0.1581
     16 C14        -4.3960   -0.1855   -1.8071 C.ar      1 <0>        -0.1851
     17 C15        -3.5373   -0.5380   -0.7709 C.ar      1 <0>         0.1753
     18 O1         -2.2452   -0.1223   -0.8323 O.3       1 <0>        -0.2920
     19 O2         -6.5574   -0.2342   -2.7948 O.3       1 <0>        -0.4925
     20 O3         -5.8113   -2.4194    1.3600 O.3       1 <0>        -0.4918
     21 O4         -2.1991    0.5029    1.8606 O.3       1 <0>        -0.5471
     22 O5          3.5850   -0.6417   -0.0359 O.3       1 <0>        -0.4856
     23 O6          3.5476    2.1129   -0.0209 O.3       1 <0>        -0.4877
     24 H3         -0.9598    1.9038    0.0259 H         1 <0>         0.1392
     25 H4          1.1522    3.1684    0.0077 H         1 <0>         0.1364
     26 H5          1.2190   -1.7621   -0.0189 H         1 <0>         0.1353
     27 H6         -2.8221   -2.7410    1.3054 H         1 <0>         0.0902
     28 H7         -3.6445   -1.5781    2.3716 H         1 <0>         0.0880
     29 H8         -7.2339   -1.6393   -0.6898 H         1 <0>         0.1380
     30 H9         -4.0260    0.3985   -2.6368 H         1 <0>         0.1409
     31 H10        -7.0114    0.6089   -2.6604 H         1 <0>         0.3966
     32 H11        -6.1571   -1.8895    2.0913 H         1 <0>         0.3930
     33 H12        -2.5632    0.5468    2.7553 H         1 <0>         0.3808
     34 H13         3.9367   -0.8389    0.8430 H         1 <0>         0.3875
     35 H14         3.8938    2.3101    0.8602 H         1 <0>         0.3892
@<TRIPOS>BOND
     1    1    6 ar
     2    1    2 ar
     3    1   24 1
     4    2    3 ar
     5    2   25 1
     6    3    4 ar
     7    3   23 1
     8    4    5 ar
     9    4   22 1
    10    5    6 ar
    11    5   26 1
    12    6    7 1
    13    7    8 1
    14    7   18 1
    15    7    9 1
    16    9   10 1
    17    9   11 1
    18    9   21 1
    19   11   12 1
    20   11   27 1
    21   11   28 1
    22   12   17 ar
    23   12   13 ar
    24   13   14 ar
    25   13   20 1
    26   14   15 ar
    27   14   29 1
    28   15   16 ar
    29   15   19 1
    30   16   17 ar
    31   16   30 1
    32   17   18 1
    33   19   31 1
    34   20   32 1
    35   21   33 1
    36   22   34 1
    37   23   35 1
@<TRIPOS>MOLECULE
ZINC00119983
   35    37     0     0     0
SMALL
USER_CHARGES

@<TRIPOS>ATOM
      1 C1         -0.0167    1.3779    0.0096 C.ar      1 <0>        -0.0875
      2 C2          1.1696    2.0886    0.0021 C.ar      1 <0>        -0.1321
      3 C3          2.3802    1.4154   -0.0130 C.ar      1 <0>         0.0878
      4 C4          2.3990    0.0236   -0.0206 C.ar      1 <0>         0.0799
      5 C5          1.2071   -0.6822   -0.0130 C.ar      1 <0>        -0.0978
      6 C6          0.0021   -0.0041    0.0020 C.ar      1 <0>        -0.0724
      7 C7         -1.2936   -0.7736    0.0102 C.3       1 <0>         0.1449
      8 H1         -1.1302   -1.7631    0.4371 H         1 <0>         0.0922
      9 C8         -1.8224   -0.9103   -1.4233 C.3       1 <0>         0.0817
     10 H2         -2.0734    0.0744   -1.8178 H         1 <0>         0.0737
     11 C9         -3.0759   -1.7881   -1.3913 C.3       1 <0>        -0.1054
     12 C10        -4.0042   -1.3085   -0.3042 C.ar      1 <0>        -0.1944
     13 C11        -5.3364   -1.7051   -0.3406 C.ar      1 <0>         0.1607
     14 C12        -6.2168   -1.2864    0.6434 C.ar      1 <0>        -0.1995
     15 C13        -5.7673   -0.4690    1.6698 C.ar      1 <0>         0.1586
     16 C14        -4.4409   -0.0726    1.7062 C.ar      1 <0>        -0.1804
     17 C15        -3.5564   -0.4901    0.7171 C.ar      1 <0>         0.1616
     18 O1         -2.2659   -0.0703    0.7846 O.3       1 <0>        -0.2950
     19 O2         -6.6274   -0.0572    2.6380 O.3       1 <0>        -0.4915
     20 O3         -5.7767   -2.5064   -1.3460 O.3       1 <0>        -0.4913
     21 O4         -0.8272   -1.5201   -2.2478 O.3       1 <0>        -0.5487
     22 O5          3.5850   -0.6417   -0.0359 O.3       1 <0>        -0.4855
     23 O6          3.5476    2.1129   -0.0209 O.3       1 <0>        -0.4877
     24 H3         -0.9598    1.9038    0.0259 H         1 <0>         0.1338
     25 H4          1.1522    3.1684    0.0077 H         1 <0>         0.1365
     26 H5          1.2190   -1.7621   -0.0189 H         1 <0>         0.1360
     27 H6         -3.5841   -1.7300   -2.3539 H         1 <0>         0.0942
     28 H7         -2.7902   -2.8214   -1.1946 H         1 <0>         0.0882
     29 H8         -7.2509   -1.5961    0.6116 H         1 <0>         0.1400
     30 H9         -4.0917    0.5638    2.5059 H         1 <0>         0.1428
     31 H10        -6.6766   -0.6517    3.3991 H         1 <0>         0.3973
     32 H11        -5.7049   -3.4517   -1.1556 H         1 <0>         0.3955
     33 H12        -1.0970   -1.6366   -3.1690 H         1 <0>         0.3873
     34 H13         3.9367   -0.8389    0.8430 H         1 <0>         0.3877
     35 H14         3.8938    2.3101    0.8602 H         1 <0>         0.3889
@<TRIPOS>BOND
     1    1    6 ar
     2    1    2 ar
     3    1   24 1
     4    2    3 ar
     5    2   25 1
     6    3    4 ar
     7    3   23 1
     8    4    5 ar
     9    4   22 1
    10    5    6 ar
    11    5   26 1
    12    6    7 1
    13    7    8 1
    14    7   18 1
    15    7    9 1
    16    9   10 1
    17    9   11 1
    18    9   21 1
    19   11   12 1
    20   11   27 1
    21   11   28 1
    22   12   17 ar
    23   12   13 ar
    24   13   14 ar
    25   13   20 1
    26   14   15 ar
    27   14   29 1
    28   15   16 ar
    29   15   19 1
    30   16   17 ar
    31   16   30 1
    32   17   18 1
    33   19   31 1
    34   20   32 1
    35   21   33 1
    36   22   34 1
    37   23   35 1
@<TRIPOS>MOLECULE
ZINC00119985
   35    37     0     0     0
SMALL
USER_CHARGES

@<TRIPOS>ATOM
      1 C1         -0.0167    1.3779    0.0096 C.ar      1 <0>        -0.0867
      2 C2          1.1696    2.0886    0.0021 C.ar      1 <0>        -0.1323
      3 C3          2.3802    1.4154   -0.0130 C.ar      1 <0>         0.0885
      4 C4          2.3990    0.0236   -0.0206 C.ar      1 <0>         0.0807
      5 C5          1.2071   -0.6822   -0.0130 C.ar      1 <0>        -0.0990
      6 C6          0.0021   -0.0041    0.0020 C.ar      1 <0>        -0.0707
      7 C7         -1.2936   -0.7736    0.0102 C.3       1 <0>         0.1435
      8 H1         -1.1201   -1.7884   -0.3479 H         1 <0>         0.0926
      9 C8         -1.8590   -0.8183    1.4356 C.3       1 <0>         0.0823
     10 H2         -2.1191    0.1894    1.7595 H         1 <0>         0.0731
     11 C9         -3.1120   -1.6975    1.4281 C.3       1 <0>        -0.1021
     12 C10        -4.0118   -1.2895    0.2891 C.ar      1 <0>        -0.1942
     13 C11        -5.3448   -1.6839    0.3168 C.ar      1 <0>         0.1598
     14 C12        -6.1992   -1.3308   -0.7146 C.ar      1 <0>        -0.1989
     15 C13        -5.7231   -0.5806   -1.7796 C.ar      1 <0>         0.1590
     16 C14        -4.3960   -0.1855   -1.8071 C.ar      1 <0>        -0.1806
     17 C15        -3.5373   -0.5380   -0.7709 C.ar      1 <0>         0.1614
     18 O1         -2.2452   -0.1223   -0.8323 O.3       1 <0>        -0.2944
     19 O2         -6.5574   -0.2342   -2.7948 O.3       1 <0>        -0.4914
     20 O3         -5.8113   -2.4194    1.3600 O.3       1 <0>        -0.4904
     21 O4         -0.8856   -1.3731    2.3226 O.3       1 <0>        -0.5492
     22 O5          3.5850   -0.6417   -0.0359 O.3       1 <0>        -0.4860
     23 O6          3.5476    2.1129   -0.0209 O.3       1 <0>        -0.4876
     24 H3         -0.9598    1.9038    0.0259 H         1 <0>         0.1324
     25 H4          1.1522    3.1684    0.0077 H         1 <0>         0.1364
     26 H5          1.2190   -1.7621   -0.0189 H         1 <0>         0.1358
     27 H6         -2.8221   -2.7410    1.3054 H         1 <0>         0.0925
     28 H7         -3.6445   -1.5781    2.3716 H         1 <0>         0.0873
     29 H8         -7.2339   -1.6393   -0.6898 H         1 <0>         0.1400
     30 H9         -4.0260    0.3985   -2.6368 H         1 <0>         0.1432
     31 H10        -7.0114    0.6089   -2.6604 H         1 <0>         0.3973
     32 H11        -6.1571   -1.8895    2.0913 H         1 <0>         0.3941
     33 H12        -1.1790   -1.4304    3.2423 H         1 <0>         0.3861
     34 H13         3.9367   -0.8389    0.8430 H         1 <0>         0.3885
     35 H14         3.8938    2.3101    0.8602 H         1 <0>         0.3890
@<TRIPOS>BOND
     1    1    6 ar
     2    1    2 ar
     3    1   24 1
     4    2    3 ar
     5    2   25 1
     6    3    4 ar
     7    3   23 1
     8    4    5 ar
     9    4   22 1
    10    5    6 ar
    11    5   26 1
    12    6    7 1
    13    7    8 1
    14    7   18 1
    15    7    9 1
    16    9   10 1
    17    9   11 1
    18    9   21 1
    19   11   12 1
    20   11   27 1
    21   11   28 1
    22   12   17 ar
    23   12   13 ar
    24   13   14 ar
    25   13   20 1
    26   14   15 ar
    27   14   29 1
    28   15   16 ar
    29   15   19 1
    30   16   17 ar
    31   16   30 1
    32   17   18 1
    33   19   31 1
    34   20   32 1
    35   21   33 1
    36   22   34 1
    37   23   35 1
@<TRIPOS>MOLECULE
ZINC00119988
   35    37     0     0     0
SMALL
USER_CHARGES

@<TRIPOS>ATOM
      1 C1         -0.0167    1.3779    0.0096 C.ar      1 <0>        -0.0628
      2 C2          1.1696    2.0886    0.0021 C.ar      1 <0>        -0.1339
      3 C3          2.3802    1.4154   -0.0130 C.ar      1 <0>         0.0896
      4 C4          2.3990    0.0236   -0.0206 C.ar      1 <0>         0.0776
      5 C5          1.2071   -0.6822   -0.0130 C.ar      1 <0>        -0.1181
      6 C6          0.0021   -0.0041    0.0020 C.ar      1 <0>        -0.0813
      7 C7         -1.2936   -0.7736    0.0102 C.3       1 <0>         0.1464
      8 H1         -1.1302   -1.7631    0.4371 H         1 <0>         0.0966
      9 C8         -1.8224   -0.9103   -1.4233 C.3       1 <0>         0.0774
     10 H2         -1.0636   -1.3761   -2.0520 H         1 <0>         0.0797
     11 C9         -3.0759   -1.7881   -1.3913 C.3       1 <0>        -0.1047
     12 C10        -4.0042   -1.3085   -0.3042 C.ar      1 <0>        -0.1922
     13 C11        -5.3364   -1.7051   -0.3406 C.ar      1 <0>         0.1583
     14 C12        -6.2168   -1.2864    0.6434 C.ar      1 <0>        -0.2033
     15 C13        -5.7673   -0.4690    1.6698 C.ar      1 <0>         0.1577
     16 C14        -4.4409   -0.0726    1.7062 C.ar      1 <0>        -0.1847
     17 C15        -3.5564   -0.4901    0.7171 C.ar      1 <0>         0.1751
     18 O1         -2.2659   -0.0703    0.7846 O.3       1 <0>        -0.2923
     19 O2         -6.6274   -0.0572    2.6380 O.3       1 <0>        -0.4921
     20 O3         -5.7767   -2.5064   -1.3460 O.3       1 <0>        -0.4921
     21 O4         -2.1505    0.3807   -1.9409 O.3       1 <0>        -0.5467
     22 O5          3.5850   -0.6417   -0.0359 O.3       1 <0>        -0.4863
     23 O6          3.5476    2.1129   -0.0209 O.3       1 <0>        -0.4879
     24 H3         -0.9598    1.9038    0.0259 H         1 <0>         0.1388
     25 H4          1.1522    3.1684    0.0077 H         1 <0>         0.1366
     26 H5          1.2190   -1.7621   -0.0189 H         1 <0>         0.1349
     27 H6         -3.5841   -1.7300   -2.3539 H         1 <0>         0.0950
     28 H7         -2.7902   -2.8214   -1.1946 H         1 <0>         0.0859
     29 H8         -7.2509   -1.5961    0.6116 H         1 <0>         0.1380
     30 H9         -4.0917    0.5638    2.5059 H         1 <0>         0.1406
     31 H10        -6.6766   -0.6517    3.3991 H         1 <0>         0.3961
     32 H11        -5.7049   -3.4517   -1.1556 H         1 <0>         0.3938
     33 H12        -2.4917    0.3667   -2.8456 H         1 <0>         0.3831
     34 H13         3.9367   -0.8389    0.8430 H         1 <0>         0.3881
     35 H14         3.8938    2.3101    0.8602 H         1 <0>         0.3893
@<TRIPOS>BOND
     1    1    6 ar
     2    1    2 ar
     3    1   24 1
     4    2    3 ar
     5    2   25 1
     6    3    4 ar
     7    3   23 1
     8    4    5 ar
     9    4   22 1
    10    5    6 ar
    11    5   26 1
    12    6    7 1
    13    7    8 1
    14    7   18 1
    15    7    9 1
    16    9   10 1
    17    9   11 1
    18    9   21 1
    19   11   12 1
    20   11   27 1
    21   11   28 1
    22   12   17 ar
    23   12   13 ar
    24   13   14 ar
    25   13   20 1
    26   14   15 ar
    27   14   29 1
    28   15   16 ar
    29   15   19 1
    30   16   17 ar
    31   16   30 1
    32   17   18 1
    33   19   31 1
    34   20   32 1
    35   21   33 1
    36   22   34 1
    37   23   35 1
@<TRIPOS>MOLECULE
ZINC00119988
   35    37     0     0     0
SMALL
USER_CHARGES

@<TRIPOS>ATOM
      1 C1         -0.0167    1.3809    0.0096 C.ar      1 <0>        -0.2034
      2 C2          1.1766    2.0878    0.0020 C.ar      1 <0>         0.1587
      3 C3          2.3823    1.4068   -0.0152 C.ar      1 <0>        -0.1833
      4 C4          2.4025    0.0159   -0.0241 C.ar      1 <0>         0.1747
      5 C5          1.2122   -0.6887   -0.0130 C.ar      1 <0>        -0.1921
      6 C6          0.0021   -0.0041    0.0020 C.ar      1 <0>         0.1579
      7 O1         -1.1671   -0.6966    0.0088 O.3       1 <0>        -0.4928
      8 C7          1.1916   -2.1964   -0.0108 C.3       1 <0>        -0.1012
      9 C8          2.5519   -2.7315   -0.4648 C.3       1 <0>         0.0660
     10 H1          2.6125   -3.8007   -0.2614 H         1 <0>         0.0829
     11 C9          3.6454   -1.9935    0.3180 C.3       1 <0>         0.1091
     12 H2          3.4637   -2.0957    1.3879 H         1 <0>         0.0966
     13 O2          3.6065   -0.6132   -0.0469 O.3       1 <0>        -0.2931
     14 C10         5.0145   -2.5810   -0.0306 C.3       1 <0>        -0.0576
     15 H3          5.1878   -2.4642   -1.1004 H         1 <0>         0.1250
     16 C11         6.0934   -1.8145    0.7342 C.3       1 <0>        -0.1579
     17 C12         7.3999   -2.5792    0.6040 C.2       1 <0>         0.3268
     18 O3          8.4121   -2.0692    0.1868 O.2       1 <0>        -0.3922
     19 C13         7.3376   -4.0204    1.0348 C.2       1 <0>         0.3440
     20 O4          8.2788   -4.5790    1.5616 O.2       1 <0>        -0.3988
     21 C14         6.0607   -4.7093    0.7765 C.2       1 <0>        -0.2091
     22 C15         5.0182   -4.0387    0.3064 C.2       1 <0>        -0.0650
     23 O5          2.7189   -2.4973   -1.8645 O.3       1 <0>        -0.5485
     24 O6          1.1626    3.4467    0.0110 O.3       1 <0>        -0.4928
     25 H4         -0.9585    1.9092    0.0260 H         1 <0>         0.1381
     26 H5          3.3110    1.9580   -0.0220 H         1 <0>         0.1415
     27 H6         -1.5134   -0.8923   -0.8726 H         1 <0>         0.3943
     28 H7          0.9786   -2.5547    0.9963 H         1 <0>         0.0908
     29 H8          0.4173   -2.5494   -0.6920 H         1 <0>         0.0885
     30 H9          6.2071   -0.8171    0.3095 H         1 <0>         0.1147
     31 H10         5.8152   -1.7380    1.7853 H         1 <0>         0.1120
     32 H11         5.9735   -5.7677    0.9729 H         1 <0>         0.1507
     33 H12         4.1010   -4.5881    0.1539 H         1 <0>         0.1343
     34 H13         2.0487   -2.9221   -2.4171 H         1 <0>         0.3838
     35 H14         1.1675    3.8342    0.8969 H         1 <0>         0.3974
@<TRIPOS>BOND
     1    1    6 ar
     2    1    2 ar
     3    1   25 1
     4    2    3 ar
     5    2   24 1
     6    3    4 ar
     7    3   26 1
     8    4   13 1
     9    4    5 ar
    10    5    6 ar
    11    5    8 1
    12    6    7 1
    13    7   27 1
    14    8    9 1
    15    8   28 1
    16    8   29 1
    17    9   10 1
    18    9   11 1
    19    9   23 1
    20   11   12 1
    21   11   13 1
    22   11   14 1
    23   14   15 1
    24   14   22 1
    25   14   16 1
    26   16   17 1
    27   16   30 1
    28   16   31 1
    29   17   18 2
    30   17   19 1
    31   19   20 2
    32   19   21 1
    33   21   22 2
    34   21   32 1
    35   22   33 1
    36   23   34 1
    37   24   35 1
@<TRIPOS>MOLECULE
ZINC00119988
   35    37     0     0     0
SMALL
USER_CHARGES

@<TRIPOS>ATOM
      1 C1         -0.0115    1.3874    0.0191 C.ar      1 <0>        -0.2033
      2 C2          1.1827    2.0928    0.0180 C.ar      1 <0>         0.1585
      3 C3          2.3876    1.4102   -0.0001 C.ar      1 <0>        -0.1836
      4 C4          2.4060    0.0194   -0.0163 C.ar      1 <0>         0.1747
      5 C5          1.2147   -0.6837   -0.0116 C.ar      1 <0>        -0.1914
      6 C6          0.0055    0.0025    0.0043 C.ar      1 <0>         0.1581
      7 O1         -1.1647   -0.6886    0.0048 O.3       1 <0>        -0.4928
      8 C7          1.1921   -2.1913   -0.0174 C.3       1 <0>        -0.1014
      9 C8          2.5527   -2.7259   -0.4711 C.3       1 <0>         0.0670
     10 H1          2.6114   -3.7962   -0.2733 H         1 <0>         0.0832
     11 C9          3.6454   -1.9935    0.3180 C.3       1 <0>         0.1093
     12 H2          3.4611   -2.1011    1.3869 H         1 <0>         0.0965
     13 O2          3.6091   -0.6112   -0.0397 O.3       1 <0>        -0.2948
     14 C10         5.0145   -2.5810   -0.0306 C.3       1 <0>        -0.0588
     15 H3          5.1593   -2.5253   -1.1095 H         1 <0>         0.1255
     16 C11         5.0503   -4.0471    0.4005 C.3       1 <0>        -0.1613
     17 C12         6.4876   -4.5317    0.3122 C.2       1 <0>         0.3305
     18 O3          6.8066   -5.5054   -0.3275 O.2       1 <0>        -0.3919
     19 C13         7.4842   -3.7066    1.0817 C.2       1 <0>         0.3458
     20 O4          8.4561   -4.2003    1.6175 O.2       1 <0>        -0.4006
     21 C14         7.2047   -2.2609    1.1425 C.2       1 <0>        -0.2224
     22 C15         6.0768   -1.7729    0.6451 C.2       1 <0>        -0.0536
     23 O5          2.7232   -2.4845   -1.8692 O.3       1 <0>        -0.5492
     24 O6          1.1705    3.4515    0.0340 O.3       1 <0>        -0.4928
     25 H4         -0.9527    1.9168    0.0361 H         1 <0>         0.1381
     26 H5          3.3171    1.9602   -0.0019 H         1 <0>         0.1412
     27 H6         -1.5093   -0.8792   -0.8784 H         1 <0>         0.3945
     28 H7          0.9763   -2.5547    0.9873 H         1 <0>         0.0909
     29 H8          0.4189   -2.5398   -0.7022 H         1 <0>         0.0886
     30 H9          4.6940   -4.1377    1.4266 H         1 <0>         0.1150
     31 H10         4.4205   -4.6409   -0.2620 H         1 <0>         0.1107
     32 H11         7.9233   -1.5947    1.5966 H         1 <0>         0.1490
     33 H12         5.9137   -0.7089    0.7331 H         1 <0>         0.1393
     34 H13         2.0536   -2.9055   -2.4256 H         1 <0>         0.3843
     35 H14         1.1740    3.8344    0.9220 H         1 <0>         0.3974
@<TRIPOS>BOND
     1    1    6 ar
     2    1    2 ar
     3    1   25 1
     4    2    3 ar
     5    2   24 1
     6    3    4 ar
     7    3   26 1
     8    4   13 1
     9    4    5 ar
    10    5    6 ar
    11    5    8 1
    12    6    7 1
    13    7   27 1
    14    8    9 1
    15    8   28 1
    16    8   29 1
    17    9   10 1
    18    9   11 1
    19    9   23 1
    20   11   12 1
    21   11   13 1
    22   11   14 1
    23   14   15 1
    24   14   22 1
    25   14   16 1
    26   16   17 1
    27   16   30 1
    28   16   31 1
    29   17   18 2
    30   17   19 1
    31   19   20 2
    32   19   21 1
    33   21   22 2
    34   21   32 1
    35   22   33 1
    36   23   34 1
    37   24   35 1
@<TRIPOS>MOLECULE
ZINC00002101
   19    19     0     0     0
SMALL
USER_CHARGES

@<TRIPOS>ATOM
      1 C1         -0.0168    1.3849    0.0097 C.ar      1 <0>        -0.2192
      2 C2          1.1707    2.0901    0.0021 C.ar      1 <0>         0.0295
      3 C3          2.3774    1.4150   -0.0135 C.ar      1 <0>        -0.7336
      4 C4          2.3998    0.0323   -0.0211 C.ar      1 <0>         0.0295
      5 C5          1.2161   -0.6790   -0.0137 C.ar      1 <0>        -0.2192
      6 C6          0.0021   -0.0041    0.0020 C.ar      1 <0>         0.2713
      7 N1         -1.1970   -0.7204    0.0101 N.pl3     1 <0>        -0.8647
      8 S1          3.8900    2.3186   -0.0243 S.o2      1 <0>         2.7050
      9 O1          4.8717    1.4606   -0.5894 O.2       1 <0>        -0.9693
     10 O2          3.5945    3.5988   -0.5657 O.2       1 <0>        -0.9693
     11 N2          4.3264    2.5618    1.5546 N.pl3     1 <0>        -1.2522
     12 H1         -0.9589    1.9127    0.0260 H         1 <0>         0.1318
     13 H2          1.1567    3.1700    0.0080 H         1 <0>         0.1423
     14 H3          3.3440   -0.4918   -0.0333 H         1 <0>         0.1423
     15 H4          1.2342   -1.7588   -0.0200 H         1 <0>         0.1318
     16 H5         -2.0441   -0.2480    0.0210 H         1 <0>         0.4043
     17 H6         -1.1825   -1.6903    0.0047 H         1 <0>         0.4042
     18 H7          3.7678    2.2202    2.2703 H         1 <0>         0.4159
     19 H8          5.1405    3.0458    1.7638 H         1 <0>         0.4195
@<TRIPOS>BOND
     1    1    6 ar
     2    1    2 ar
     3    1   12 1
     4    2    3 ar
     5    2   13 1
     6    3    4 ar
     7    3    8 1
     8    4    5 ar
     9    4   14 1
    10    5    6 ar
    11    5   15 1
    12    6    7 1
    13    7   16 1
    14    7   17 1
    15    8    9 2
    16    8   10 2
    17    8   11 1
    18   11   18 1
    19   11   19 1
@<TRIPOS>MOLECULE
ZINC01530621
   36    37     0     0     0
SMALL
USER_CHARGES

@<TRIPOS>ATOM
      1 C1         -0.1492    1.5288   -2.3323 C.3       1 <0>        -0.1908
      2 C2         -0.1164   -0.0009   -2.3383 C.3       1 <0>        -0.0181
      3 N1          0.6897   -0.4778   -1.2066 N.4       1 <0>        -0.5107
      4 C3          0.6171   -1.9434   -1.1370 C.3       1 <0>         0.0811
      5 H1         -0.4294   -2.2430   -1.0818 H         1 <0>         0.1707
      6 C4          1.2315   -2.5278   -2.3982 C.3       1 <0>        -0.1422
      7 C5          1.0962   -4.0576   -2.4201 C.3       1 <0>        -0.5404
      8 H2          1.3613   -4.4411   -3.4054 H         1 <0>         0.1747
      9 S1          2.2539   -4.7069   -1.1650 S.o2      1 <0>         2.5047
     10 O1          3.5991   -4.5241   -1.5850 O.2       1 <0>        -0.8957
     11 O2          1.8041   -5.9618   -0.6729 O.2       1 <0>        -0.8922
     12 C6          2.0269   -3.5802    0.1606 C.2       1 <0>        -0.7063
     13 C7          1.3317   -2.4135    0.1206 C.2       1 <0>        -0.0916
     14 C8          1.3152   -1.6792    1.3120 C.2       1 <0>        -0.0530
     15 C9          1.9529   -2.1428    2.4103 C.2       1 <0>        -0.7342
     16 S2          2.6320   -3.6831    1.8188 S.3       1 <0>         0.4502
     17 S3          2.0784   -1.4167    4.0108 S.o2      1 <0>         2.7294
     18 O3          3.2503   -1.9529    4.6093 O.2       1 <0>        -0.9323
     19 O4          1.8813   -0.0198    3.8397 O.2       1 <0>        -0.9386
     20 N2          0.7966   -1.9699    4.9014 N.pl3     1 <0>        -1.2425
     21 C10        -0.3376   -4.4611   -2.0706 C.3       1 <0>        -0.1547
     22 H3         -0.5902    1.8790   -1.3990 H         1 <0>         0.0836
     23 H4          0.8664    1.9144   -2.4215 H         1 <0>         0.0841
     24 H5         -0.7473    1.8826   -3.1720 H         1 <0>         0.1120
     25 H6         -1.1320   -0.3865   -2.2491 H         1 <0>         0.1372
     26 H7          0.3246   -0.3511   -3.2716 H         1 <0>         0.1380
     27 H8          1.6496   -0.1943   -1.3342 H         1 <0>         0.4338
     28 H9          0.7251   -2.1113   -3.2689 H         1 <0>         0.1303
     29 H10         2.2877   -2.2615   -2.4382 H         1 <0>         0.1132
     30 H11         0.7901   -0.7364    1.3541 H         1 <0>         0.1546
     31 H12         0.1572   -2.5812    4.5032 H         1 <0>         0.4194
     32 H13         0.6850   -1.6827    5.8211 H         1 <0>         0.4322
     33 H14        -1.0243   -4.0299   -2.7990 H         1 <0>         0.0942
     34 H15        -0.4240   -5.5475   -2.0887 H         1 <0>         0.0985
     35 H16        -0.5861   -4.0934   -1.0750 H         1 <0>         0.0698
     36 H17         0.3332   -0.0823   -0.3495 H         1 <0>         0.4317
@<TRIPOS>BOND
     1    1    2 1
     2    1   22 1
     3    1   23 1
     4    1   24 1
     5    2    3 1
     6    2   25 1
     7    2   26 1
     8    3    4 1
     9    3   27 1
    10    3   36 1
    11    4    5 1
    12    4   13 1
    13    4    6 1
    14    6    7 1
    15    6   28 1
    16    6   29 1
    17    7    8 1
    18    7    9 1
    19    7   21 1
    20    9   10 2
    21    9   11 2
    22    9   12 1
    23   12   16 1
    24   12   13 2
    25   13   14 1
    26   14   15 2
    27   14   30 1
    28   15   16 1
    29   15   17 1
    30   17   18 2
    31   17   19 2
    32   17   20 1
    33   20   31 1
    34   20   32 1
    35   21   33 1
    36   21   34 1
    37   21   35 1
@<TRIPOS>MOLECULE
ZINC01530621
   35    36     0     0     0
SMALL
USER_CHARGES

@<TRIPOS>ATOM
      1 C1         -0.1492    1.5288   -2.3323 C.3       1 <0>        -0.1899
      2 C2         -0.1164   -0.0009   -2.3383 C.3       1 <0>        -0.0168
      3 N1          0.6897   -0.4778   -1.2066 N.4       1 <0>        -0.5101
      4 C3          0.6171   -1.9434   -1.1370 C.3       1 <0>         0.0836
      5 H1         -0.4294   -2.2430   -1.0818 H         1 <0>         0.1646
      6 C4          1.2315   -2.5278   -2.3982 C.3       1 <0>        -0.1369
      7 C5          1.0962   -4.0576   -2.4201 C.3       1 <0>        -0.5464
      8 H2          1.3613   -4.4411   -3.4054 H         1 <0>         0.1665
      9 S1          2.2539   -4.7069   -1.1650 S.o2      1 <0>         2.5192
     10 O1          3.5991   -4.5241   -1.5850 O.2       1 <0>        -0.9107
     11 O2          1.8041   -5.9618   -0.6729 O.2       1 <0>        -0.9035
     12 C6          2.0269   -3.5802    0.1606 C.2       1 <0>        -0.7471
     13 C7          1.3317   -2.4135    0.1206 C.2       1 <0>        -0.0802
     14 C8          1.3152   -1.6792    1.3120 C.2       1 <0>        -0.1090
     15 C9          1.9529   -2.1428    2.4103 C.2       1 <0>        -0.5881
     16 S2          2.6320   -3.6831    1.8188 S.3       1 <0>         0.3963
     17 S3          2.0784   -1.4167    4.0108 S.o2      1 <0>         2.5827
     18 O3          3.2503   -1.9529    4.6093 O.2       1 <0>        -1.0359
     19 O4          1.8813   -0.0198    3.8397 O.2       1 <0>        -1.0427
     20 N2          0.7966   -1.9699    4.9014 N.2       1 <0>        -1.3223
     21 C10        -0.3376   -4.4611   -2.0706 C.3       1 <0>        -0.1530
     22 H3         -0.5902    1.8790   -1.3990 H         1 <0>         0.0843
     23 H4          0.8664    1.9144   -2.4215 H         1 <0>         0.0823
     24 H5         -0.7473    1.8826   -3.1720 H         1 <0>         0.1074
     25 H6         -1.1320   -0.3865   -2.2491 H         1 <0>         0.1347
     26 H7          0.3246   -0.3511   -3.2716 H         1 <0>         0.1340
     27 H8          1.6496   -0.1943   -1.3342 H         1 <0>         0.4317
     28 H9          0.7251   -2.1113   -3.2689 H         1 <0>         0.1221
     29 H10         2.2877   -2.2615   -2.4382 H         1 <0>         0.1096
     30 H11         0.7901   -0.7364    1.3541 H         1 <0>         0.1443
     31 H12         0.6850   -1.6827    5.8211 H         1 <0>         0.3366
     32 H13        -1.0243   -4.0299   -2.7990 H         1 <0>         0.0883
     33 H14        -0.4240   -5.5475   -2.0887 H         1 <0>         0.0947
     34 H15        -0.5861   -4.0934   -1.0750 H         1 <0>         0.0739
     35 H16         0.3332   -0.0823   -0.3495 H         1 <0>         0.4358
@<TRIPOS>BOND
     1    1    2 1
     2    1   22 1
     3    1   23 1
     4    1   24 1
     5    2    3 1
     6    2   25 1
     7    2   26 1
     8    3    4 1
     9    3   27 1
    10    3   35 1
    11    4    5 1
    12    4   13 1
    13    4    6 1
    14    6    7 1
    15    6   28 1
    16    6   29 1
    17    7    8 1
    18    7    9 1
    19    7   21 1
    20    9   10 2
    21    9   11 2
    22    9   12 1
    23   12   16 1
    24   12   13 2
    25   13   14 1
    26   14   15 2
    27   14   30 1
    28   15   16 1
    29   15   17 1
    30   17   18 2
    31   17   19 2
    32   17   20 1
    33   20   31 1
    34   21   32 1
    35   21   33 1
    36   21   34 1
@<TRIPOS>MOLECULE
ZINC03953037
   45    46     0     0     0
SMALL
USER_CHARGES

@<TRIPOS>ATOM
      1 C1         -0.1443    1.5287   -2.3361 C.3       1 <0>        -0.1906
      2 C2         -0.1122   -0.0010   -2.3413 C.3       1 <0>        -0.0185
      3 N1          0.6897   -0.4778   -1.2066 N.4       1 <0>        -0.5081
      4 C3          0.6170   -1.9434   -1.1372 C.3       1 <0>         0.0658
      5 H1         -0.4299   -2.2419   -1.0821 H         1 <0>         0.1708
      6 C4          1.2290   -2.5266   -2.4008 C.3       1 <0>         0.0853
      7 N2          1.2178   -4.0017   -2.3725 N.pl3     1 <0>        -0.9751
      8 S1          2.1913   -4.6964   -1.1964 S.o2      1 <0>         2.6993
      9 O1          3.5356   -4.5934   -1.6450 O.2       1 <0>        -0.9052
     10 O2          1.5909   -5.9295   -0.8245 O.2       1 <0>        -0.9104
     11 C5          2.0056   -3.5925    0.1555 C.2       1 <0>        -0.7299
     12 C6          1.3290   -2.4121    0.1220 C.2       1 <0>        -0.0847
     13 C7          1.3364   -1.6821    1.3141 C.2       1 <0>        -0.0518
     14 C8          1.9728   -2.1632    2.4071 C.2       1 <0>        -0.7315
     15 S2          2.6159   -3.7161    1.8064 S.3       1 <0>         0.4568
     16 S3          2.1242   -1.4453    4.0091 S.o2      1 <0>         2.7294
     17 O3          3.2891   -2.0074    4.5975 O.2       1 <0>        -0.9316
     18 O4          1.9545   -0.0442    3.8439 O.2       1 <0>        -0.9372
     19 N3          0.8376   -1.9754    4.9067 N.pl3     1 <0>        -1.2424
     20 C9          0.4155   -4.8004   -3.3024 C.3       1 <0>         0.1263
     21 C10         1.1924   -4.9992   -4.6054 C.3       1 <0>        -0.1475
     22 C11         0.3545   -5.8334   -5.5765 C.3       1 <0>         0.0598
     23 O5          1.0801   -6.0191   -6.7935 O.3       1 <0>        -0.3912
     24 C12         0.3826   -6.7895   -7.7743 C.3       1 <0>         0.0300
     25 H2         -0.5884    1.8796   -1.4045 H         1 <0>         0.0836
     26 H3          0.8718    1.9137   -2.4219 H         1 <0>         0.0846
     27 H4         -0.7393    1.8825   -3.1781 H         1 <0>         0.1124
     28 H5         -1.1283   -0.3860   -2.2555 H         1 <0>         0.1382
     29 H6          0.3319   -0.3519   -3.2729 H         1 <0>         0.1384
     30 H7          1.6500   -0.1942   -1.3306 H         1 <0>         0.4345
     31 H8          0.6601   -2.1822   -3.2644 H         1 <0>         0.1336
     32 H9          2.2582   -2.1795   -2.4917 H         1 <0>         0.1084
     33 H10         0.8317   -0.7286    1.3630 H         1 <0>         0.1566
     34 H11         0.1832   -2.5721    4.5111 H         1 <0>         0.4194
     35 H12         0.7383   -1.6891    5.8282 H         1 <0>         0.4325
     36 H13         0.2008   -5.7712   -2.8556 H         1 <0>         0.1064
     37 H14        -0.5201   -4.2823   -3.5126 H         1 <0>         0.0967
     38 H15         1.4071   -4.0284   -5.0521 H         1 <0>         0.0821
     39 H16         2.1280   -5.5174   -4.3951 H         1 <0>         0.0798
     40 H17         0.1398   -6.8042   -5.1298 H         1 <0>         0.0563
     41 H18        -0.5811   -5.3152   -5.7868 H         1 <0>         0.0538
     42 H19         0.1684   -7.7802   -7.3732 H         1 <0>         0.0459
     43 H20        -0.5525   -6.2912   -8.0301 H         1 <0>         0.0441
     44 H21         0.9998   -6.8849   -8.6676 H         1 <0>         0.0916
     45 H22         0.3300   -0.0823   -0.3509 H         1 <0>         0.4332
@<TRIPOS>BOND
     1    1    2 1
     2    1   25 1
     3    1   26 1
     4    1   27 1
     5    2    3 1
     6    2   28 1
     7    2   29 1
     8    3    4 1
     9    3   30 1
    10    3   45 1
    11    4    5 1
    12    4   12 1
    13    4    6 1
    14    6    7 1
    15    6   31 1
    16    6   32 1
    17    7    8 1
    18    7   20 1
    19    8    9 2
    20    8   10 2
    21    8   11 1
    22   11   15 1
    23   11   12 2
    24   12   13 1
    25   13   14 2
    26   13   33 1
    27   14   15 1
    28   14   16 1
    29   16   17 2
    30   16   18 2
    31   16   19 1
    32   19   34 1
    33   19   35 1
    34   20   21 1
    35   20   36 1
    36   20   37 1
    37   21   22 1
    38   21   38 1
    39   21   39 1
    40   22   23 1
    41   22   40 1
    42   22   41 1
    43   23   24 1
    44   24   42 1
    45   24   43 1
    46   24   44 1
@<TRIPOS>MOLECULE
ZINC03953037
   44    45     0     0     0
SMALL
USER_CHARGES

@<TRIPOS>ATOM
      1 C1          2.0763    1.5400    1.0749 C.3       1 <0>        -0.1898
      2 C2          2.0886    0.0101    1.0747 C.3       1 <0>        -0.0171
      3 N1          0.7126   -0.4907    1.1921 N.4       1 <0>        -0.5075
      4 C3          0.7116   -1.9542    1.0652 C.3       1 <0>         0.0682
      5 H1          1.1917   -2.2265    0.1253 H         1 <0>         0.1647
      6 C4          1.5092   -2.5482    2.2152 C.3       1 <0>         0.0909
      7 N2          1.5133   -4.0226    2.1618 N.pl3     1 <0>        -0.9789
      8 S1          0.0190   -4.7457    2.4028 S.o2      1 <0>         2.7115
      9 O1         -0.2658   -4.6749    3.7932 O.2       1 <0>        -0.9213
     10 O2          0.0162   -5.9646    1.6724 O.2       1 <0>        -0.9224
     11 C5         -1.0762   -3.6422    1.5883 C.2       1 <0>        -0.7709
     12 C6         -0.7274   -2.4451    1.0428 C.2       1 <0>        -0.0734
     13 C7         -1.7749   -1.7197    0.4678 C.2       1 <0>        -0.1075
     14 C8         -3.0320   -2.2204    0.4627 C.2       1 <0>        -0.5845
     15 S2         -2.8090   -3.7869    1.2888 S.3       1 <0>         0.4019
     16 S3         -4.5062   -1.5121   -0.1927 S.o2      1 <0>         2.5818
     17 O3         -5.5893   -2.1053    0.5104 O.2       1 <0>        -1.0351
     18 O4         -4.3002   -0.1066   -0.2291 O.2       1 <0>        -1.0413
     19 N3         -4.6325   -2.0129   -1.7661 N.2       1 <0>        -1.3217
     20 C9          2.7319   -4.7977    1.9161 C.3       1 <0>         0.1279
     21 C10         3.4753   -5.0114    3.2362 C.3       1 <0>        -0.1467
     22 C11         4.7480   -5.8209    2.9796 C.3       1 <0>         0.0605
     23 O5          5.4423   -6.0204    4.2126 O.3       1 <0>        -0.3916
     24 C12         6.6522   -6.7697    4.0836 C.3       1 <0>         0.0305
     25 H2          1.6368    1.8998    2.0052 H         1 <0>         0.0828
     26 H3          3.0973    1.9116    0.9877 H         1 <0>         0.1079
     27 H4          1.4859    1.8987    0.2317 H         1 <0>         0.0843
     28 H5          2.5280   -0.3497    0.1444 H         1 <0>         0.1356
     29 H6          2.6789   -0.3486    1.9179 H         1 <0>         0.1344
     30 H7          0.3357   -0.2309    2.0913 H         1 <0>         0.4324
     31 H8          2.5361   -2.1866    2.1612 H         1 <0>         0.1259
     32 H9          1.0682   -2.2267    3.1587 H         1 <0>         0.1045
     33 H10        -1.5798   -0.7540    0.0254 H         1 <0>         0.1463
     34 H11        -5.3853   -1.7274   -2.3070 H         1 <0>         0.3370
     35 H12         2.4675   -5.7644    1.4875 H         1 <0>         0.1042
     36 H13         3.3735   -4.2555    1.2215 H         1 <0>         0.0930
     37 H14         3.7397   -4.0447    3.6649 H         1 <0>         0.0806
     38 H15         2.8337   -5.5536    3.9308 H         1 <0>         0.0792
     39 H16         4.4835   -6.7875    2.5510 H         1 <0>         0.0562
     40 H17         5.3896   -5.2787    2.2850 H         1 <0>         0.0533
     41 H18         6.4273   -7.7561    3.6779 H         1 <0>         0.0449
     42 H19         7.3333   -6.2472    3.4119 H         1 <0>         0.0428
     43 H20         7.1190   -6.8774    5.0627 H         1 <0>         0.0893
     44 H21         0.1450   -0.0893    0.4608 H         1 <0>         0.4372
@<TRIPOS>BOND
     1    1    2 1
     2    1   25 1
     3    1   26 1
     4    1   27 1
     5    2    3 1
     6    2   28 1
     7    2   29 1
     8    3    4 1
     9    3   30 1
    10    3   44 1
    11    4    5 1
    12    4   12 1
    13    4    6 1
    14    6    7 1
    15    6   31 1
    16    6   32 1
    17    7    8 1
    18    7   20 1
    19    8    9 2
    20    8   10 2
    21    8   11 1
    22   11   15 1
    23   11   12 2
    24   12   13 1
    25   13   14 2
    26   13   33 1
    27   14   15 1
    28   14   16 1
    29   16   17 2
    30   16   18 2
    31   16   19 1
    32   19   34 1
    33   20   21 1
    34   20   35 1
    35   20   36 1
    36   21   22 1
    37   21   37 1
    38   21   38 1
    39   22   23 1
    40   22   39 1
    41   22   40 1
    42   23   24 1
    43   24   41 1
    44   24   42 1
    45   24   43 1
@<TRIPOS>MOLECULE
ZINC01530804
   42    44     0     0     0
SMALL
USER_CHARGES

@<TRIPOS>ATOM
      1 C1         -0.1414    1.1782    1.1025 C.3       1 <0>        -0.1657
      2 C2         -0.0047   -0.3406    0.9788 C.3       1 <0>         0.2393
      3 O1          0.4336   -0.6809   -0.3520 O.3       1 <0>        -0.3486
      4 C3          1.8586   -0.8253   -0.2194 C.3       1 <0>         0.0180
      5 H1          2.3279    0.1582   -0.1959 H         1 <0>         0.0955
      6 C4          2.4671   -1.6561   -1.3282 C.3       1 <0>         0.0615
      7 O2          1.9135   -2.9701   -1.3154 O.3       1 <0>        -0.3068
      8 C5          2.1315   -3.6952   -0.1268 C.3       1 <0>         0.2582
      9 C6          1.5886   -2.9749    1.1170 C.3       1 <0>         0.0223
     10 H2          0.5124   -3.1112    1.2238 H         1 <0>         0.1391
     11 C7          1.9968   -1.5000    1.1552 C.3       1 <0>         0.0492
     12 H3          2.9929   -1.3657    1.5768 H         1 <0>         0.1317
     13 O3          0.9684   -0.8158    1.9209 O.3       1 <0>        -0.3662
     14 O4          2.3254   -3.6306    2.1835 O.3       1 <0>        -0.3622
     15 C8          3.5307   -4.1478    1.6005 C.3       1 <0>         0.2431
     16 O5          3.5253   -3.8561    0.1888 O.3       1 <0>        -0.3666
     17 C9          4.7443   -3.4871    2.2574 C.3       1 <0>        -0.1505
     18 C10         3.5958   -5.6617    1.8124 C.3       1 <0>        -0.1864
     19 C11         1.4685   -5.0698   -0.2356 C.3       1 <0>         0.0825
     20 O6          2.1389   -5.8445   -1.2317 O.3       1 <0>        -0.7265
     21 S1          1.5597   -7.2386   -1.4254 S.o2      1 <0>         2.6826
     22 O7          2.4548   -7.9350   -2.2815 O.2       1 <0>        -1.0652
     23 O8          1.2135   -7.7177   -0.1332 O.2       1 <0>        -1.0999
     24 N1          0.1411   -7.0674   -2.2625 N.2       1 <0>        -1.3687
     25 C12        -1.3558   -1.0027    1.2569 C.3       1 <0>        -0.1582
     26 H4          0.8207    1.6475    0.8968 H         1 <0>         0.0616
     27 H5         -0.8808    1.5361    0.3860 H         1 <0>         0.0773
     28 H6         -0.4614    1.4331    2.1128 H         1 <0>         0.0749
     29 H7          2.2585   -1.1852   -2.2889 H         1 <0>         0.1202
     30 H8          3.5458   -1.7168   -1.1842 H         1 <0>         0.0862
     31 H9          4.7535   -3.7210    3.3219 H         1 <0>         0.0808
     32 H10         5.6571   -3.8626    1.7950 H         1 <0>         0.0792
     33 H11         4.6869   -2.4069    2.1231 H         1 <0>         0.0625
     34 H12         2.5933   -6.0827    1.7363 H         1 <0>         0.0832
     35 H13         4.2360   -6.1079    1.0514 H         1 <0>         0.0832
     36 H14         4.0046   -5.8730    2.8005 H         1 <0>         0.0768
     37 H15         1.5314   -5.5806    0.7253 H         1 <0>         0.1099
     38 H16         0.4218   -4.9473   -0.5141 H         1 <0>         0.1013
     39 H17        -0.3863   -7.8495   -2.4881 H         1 <0>         0.3260
     40 H18        -2.0938   -0.6361    0.5434 H         1 <0>         0.0779
     41 H19        -1.2583   -2.0836    1.1559 H         1 <0>         0.0696
     42 H20        -1.6777   -0.7600    2.2696 H         1 <0>         0.0781
@<TRIPOS>BOND
     1    1    2 1
     2    1   26 1
     3    1   27 1
     4    1   28 1
     5    2   13 1
     6    2    3 1
     7    2   25 1
     8    3    4 1
     9    4    5 1
    10    4   11 1
    11    4    6 1
    12    6    7 1
    13    6   29 1
    14    6   30 1
    15    7    8 1
    16    8   16 1
    17    8    9 1
    18    8   19 1
    19    9   10 1
    20    9   11 1
    21    9   14 1
    22   11   12 1
    23   11   13 1
    24   14   15 1
    25   15   16 1
    26   15   17 1
    27   15   18 1
    28   17   31 1
    29   17   32 1
    30   17   33 1
    31   18   34 1
    32   18   35 1
    33   18   36 1
    34   19   20 1
    35   19   37 1
    36   19   38 1
    37   20   21 1
    38   21   22 2
    39   21   23 2
    40   21   24 1
    41   24   39 1
    42   25   40 1
    43   25   41 1
    44   25   42 1
@<TRIPOS>MOLECULE
ZINC01530804
   43    45     0     0     0
SMALL
USER_CHARGES

@<TRIPOS>ATOM
      1 C1         -0.1414    1.1782    1.1025 C.3       1 <0>        -0.1689
      2 C2         -0.0047   -0.3406    0.9788 C.3       1 <0>         0.2400
      3 O1          0.4336   -0.6809   -0.3520 O.3       1 <0>        -0.3516
      4 C3          1.8586   -0.8253   -0.2194 C.3       1 <0>         0.0156
      5 H1          2.3279    0.1582   -0.1959 H         1 <0>         0.1022
      6 C4          2.4671   -1.6561   -1.3282 C.3       1 <0>         0.0660
      7 O2          1.9135   -2.9701   -1.3154 O.3       1 <0>        -0.3195
      8 C5          2.1315   -3.6952   -0.1268 C.3       1 <0>         0.2579
      9 C6          1.5886   -2.9749    1.1170 C.3       1 <0>         0.0224
     10 H2          0.5124   -3.1112    1.2238 H         1 <0>         0.1406
     11 C7          1.9968   -1.5000    1.1552 C.3       1 <0>         0.0483
     12 H3          2.9929   -1.3657    1.5768 H         1 <0>         0.1355
     13 O3          0.9684   -0.8158    1.9209 O.3       1 <0>        -0.3615
     14 O4          2.3254   -3.6306    2.1835 O.3       1 <0>        -0.3573
     15 C8          3.5307   -4.1478    1.6005 C.3       1 <0>         0.2406
     16 O5          3.5253   -3.8561    0.1888 O.3       1 <0>        -0.3608
     17 C9          4.7443   -3.4871    2.2574 C.3       1 <0>        -0.1549
     18 C10         3.5958   -5.6617    1.8124 C.3       1 <0>        -0.1875
     19 C11         1.4685   -5.0698   -0.2356 C.3       1 <0>         0.0540
     20 O6          2.1389   -5.8445   -1.2317 O.3       1 <0>        -0.7190
     21 S1          1.5597   -7.2386   -1.4254 S.o2      1 <0>         2.7922
     22 O7          2.4548   -7.9350   -2.2815 O.2       1 <0>        -0.9521
     23 O8          1.2135   -7.7177   -0.1332 O.2       1 <0>        -0.9902
     24 N1          0.1411   -7.0674   -2.2625 N.pl3     1 <0>        -1.2682
     25 C12        -1.3558   -1.0027    1.2569 C.3       1 <0>        -0.1570
     26 H4          0.8207    1.6475    0.8968 H         1 <0>         0.0640
     27 H5         -0.8808    1.5361    0.3860 H         1 <0>         0.0795
     28 H6         -0.4614    1.4331    2.1128 H         1 <0>         0.0783
     29 H7          2.2585   -1.1852   -2.2889 H         1 <0>         0.1264
     30 H8          3.5458   -1.7168   -1.1842 H         1 <0>         0.0924
     31 H9          4.7535   -3.7210    3.3219 H         1 <0>         0.0862
     32 H10         5.6571   -3.8626    1.7950 H         1 <0>         0.0829
     33 H11         4.6869   -2.4069    2.1231 H         1 <0>         0.0666
     34 H12         2.5933   -6.0827    1.7363 H         1 <0>         0.0754
     35 H13         4.2360   -6.1079    1.0514 H         1 <0>         0.0857
     36 H14         4.0046   -5.8730    2.8005 H         1 <0>         0.0871
     37 H15         1.5314   -5.5806    0.7253 H         1 <0>         0.1339
     38 H16         0.4218   -4.9473   -0.5141 H         1 <0>         0.1071
     39 H17        -0.1624   -6.1849   -2.5271 H         1 <0>         0.4163
     40 H18        -2.0938   -0.6361    0.5434 H         1 <0>         0.0797
     41 H19        -1.2583   -2.0836    1.1559 H         1 <0>         0.0641
     42 H20        -1.6777   -0.7600    2.2696 H         1 <0>         0.0821
     43 H21        -0.3863   -7.8495   -2.4881 H         1 <0>         0.4258
@<TRIPOS>BOND
     1    1    2 1
     2    1   26 1
     3    1   27 1
     4    1   28 1
     5    2   13 1
     6    2    3 1
     7    2   25 1
     8    3    4 1
     9    4    5 1
    10    4   11 1
    11    4    6 1
    12    6    7 1
    13    6   29 1
    14    6   30 1
    15    7    8 1
    16    8   16 1
    17    8    9 1
    18    8   19 1
    19    9   10 1
    20    9   11 1
    21    9   14 1
    22   11   12 1
    23   11   13 1
    24   14   15 1
    25   15   16 1
    26   15   17 1
    27   15   18 1
    28   17   31 1
    29   17   32 1
    30   17   33 1
    31   18   34 1
    32   18   35 1
    33   18   36 1
    34   19   20 1
    35   19   37 1
    36   19   38 1
    37   20   21 1
    38   21   22 2
    39   21   23 2
    40   21   24 1
    41   24   39 1
    42   24   43 1
    43   25   40 1
    44   25   41 1
    45   25   42 1
@<TRIPOS>MOLECULE
ZINC01532734
   44    43     0     0     0
SMALL
USER_CHARGES

@<TRIPOS>ATOM
      1 C1         -0.0187    1.5258    0.0104 C.3       1 <0>        -0.1507
      2 C2          0.0021   -0.0041    0.0020 C.3       1 <0>        -0.1507
      3 C3         -1.4333   -0.5336    0.0129 C.3       1 <0>        -0.0098
      4 N1         -1.4134   -2.0025    0.0048 N.4       1 <0>        -0.5106
      5 C4         -2.7915   -2.5110    0.0152 C.3       1 <0>        -0.0049
      6 C5         -2.7708   -4.0408    0.0068 C.3       1 <0>        -0.1883
      7 C6         -4.2062   -4.5704    0.0177 C.3       1 <0>        -0.0022
      8 N2         -4.1863   -6.0392    0.0096 N.4       1 <0>        -0.6388
      9 C7          1.4167    2.0553   -0.0004 C.3       1 <0>        -0.0098
     10 N3          1.3968    3.5242    0.0076 N.4       1 <0>        -0.5106
     11 C8          2.7749    4.0327   -0.0028 C.3       1 <0>        -0.0049
     12 C9          2.7542    5.5625    0.0056 C.3       1 <0>        -0.1882
     13 C10         4.1896    6.0921   -0.0052 C.3       1 <0>        -0.0022
     14 N4          4.1697    7.5609    0.0029 N.4       1 <0>        -0.6388
     15 H1         -0.5459    1.8868   -0.8726 H         1 <0>         0.1026
     16 H2         -0.5289    1.8773    0.9072 H         1 <0>         0.1026
     17 H3          0.5123   -0.3556   -0.8948 H         1 <0>         0.1026
     18 H4          0.5293   -0.3651    0.8851 H         1 <0>         0.1026
     19 H5         -1.9435   -0.1821    0.9097 H         1 <0>         0.1405
     20 H6         -1.9605   -0.1726   -0.8702 H         1 <0>         0.1405
     21 H7         -0.9411   -2.3279   -0.8254 H         1 <0>         0.4349
     22 H8         -3.3017   -2.1594    0.9120 H         1 <0>         0.1462
     23 H9         -3.3187   -2.1499   -0.8678 H         1 <0>         0.1462
     24 H10        -2.2606   -4.3923   -0.8900 H         1 <0>         0.1140
     25 H11        -2.2436   -4.4019    0.8899 H         1 <0>         0.1140
     26 H12        -4.7164   -4.2189    0.9145 H         1 <0>         0.1459
     27 H13        -4.7334   -4.2093   -0.8654 H         1 <0>         0.1459
     28 H14        -3.7140   -6.3646   -0.8206 H         1 <0>         0.4414
     29 H15        -3.6982   -6.3735    0.8270 H         1 <0>         0.4414
     30 H16         1.9439    1.6943    0.8826 H         1 <0>         0.1405
     31 H17         1.9269    1.7038   -0.8972 H         1 <0>         0.1405
     32 H18         0.9088    3.8584   -0.8098 H         1 <0>         0.4349
     33 H19         3.3021    3.6716    0.8803 H         1 <0>         0.1462
     34 H20         3.2851    3.6811   -0.8996 H         1 <0>         0.1462
     35 H21         2.2270    5.9236   -0.8774 H         1 <0>         0.1140
     36 H22         2.2440    5.9140    0.9024 H         1 <0>         0.1140
     37 H23         4.7168    5.7310    0.8778 H         1 <0>         0.1459
     38 H24         4.6998    5.7406   -0.9020 H         1 <0>         0.1459
     39 H25         3.6817    7.8952   -0.8146 H         1 <0>         0.4414
     40 H26         3.6974    7.8863    0.8330 H         1 <0>         0.4414
     41 H27        -5.1329   -6.3885    0.0168 H         1 <0>         0.4545
     42 H28         0.9245    3.8496    0.8378 H         1 <0>         0.4349
     43 H29        -0.9254   -2.3367    0.8222 H         1 <0>         0.4349
     44 H30         5.1163    7.9102   -0.0043 H         1 <0>         0.4545
@<TRIPOS>BOND
     1    1    2 1
     2    1    9 1
     3    1   15 1
     4    1   16 1
     5    2    3 1
     6    2   17 1
     7    2   18 1
     8    3    4 1
     9    3   19 1
    10    3   20 1
    11    4    5 1
    12    4   21 1
    13    4   43 1
    14    5    6 1
    15    5   22 1
    16    5   23 1
    17    6    7 1
    18    6   24 1
    19    6   25 1
    20    7    8 1
    21    7   26 1
    22    7   27 1
    23    8   28 1
    24    8   29 1
    25    8   41 1
    26    9   10 1
    27    9   30 1
    28    9   31 1
    29   10   11 1
    30   10   32 1
    31   10   42 1
    32   11   12 1
    33   11   33 1
    34   11   34 1
    35   12   13 1
    36   12   35 1
    37   12   36 1
    38   13   14 1
    39   13   37 1
    40   13   38 1
    41   14   39 1
    42   14   40 1
    43   14   44 1
@<TRIPOS>MOLECULE
ZINC01532734
   43    42     0     0     0
SMALL
USER_CHARGES

@<TRIPOS>ATOM
      1 C1         -0.0187    1.5258    0.0104 C.3       1 <0>        -0.1498
      2 C2          0.0021   -0.0041    0.0020 C.3       1 <0>        -0.1503
      3 C3         -1.4333   -0.5336    0.0129 C.3       1 <0>        -0.0094
      4 N1         -1.4134   -2.0025    0.0048 N.4       1 <0>        -0.5097
      5 C4         -2.7915   -2.5110    0.0152 C.3       1 <0>        -0.0075
      6 C5         -2.7708   -4.0408    0.0068 C.3       1 <0>        -0.1524
      7 C6         -4.2062   -4.5704    0.0177 C.3       1 <0>         0.0629
      8 N2         -4.1863   -6.0392    0.0096 N.3       1 <0>        -0.8529
      9 C7          1.4167    2.0553   -0.0004 C.3       1 <0>        -0.0099
     10 N3          1.3968    3.5242    0.0076 N.4       1 <0>        -0.5104
     11 C8          2.7749    4.0327   -0.0028 C.3       1 <0>        -0.0049
     12 C9          2.7542    5.5625    0.0056 C.3       1 <0>        -0.1880
     13 C10         4.1896    6.0921   -0.0052 C.3       1 <0>        -0.0023
     14 N4          4.1697    7.5609    0.0029 N.4       1 <0>        -0.6386
     15 H1         -0.5459    1.8868   -0.8726 H         1 <0>         0.1016
     16 H2         -0.5289    1.8773    0.9072 H         1 <0>         0.1013
     17 H3          0.5123   -0.3556   -0.8948 H         1 <0>         0.1012
     18 H4          0.5293   -0.3651    0.8851 H         1 <0>         0.1008
     19 H5         -1.9435   -0.1821    0.9097 H         1 <0>         0.1360
     20 H6         -1.9605   -0.1726   -0.8702 H         1 <0>         0.1366
     21 H7         -0.9411   -2.3279   -0.8254 H         1 <0>         0.4321
     22 H8         -3.3017   -2.1594    0.9120 H         1 <0>         0.1341
     23 H9         -3.3187   -2.1499   -0.8678 H         1 <0>         0.1364
     24 H10        -2.2606   -4.3923   -0.8900 H         1 <0>         0.0983
     25 H11        -2.2436   -4.4019    0.8899 H         1 <0>         0.0873
     26 H12        -4.7164   -4.2189    0.9145 H         1 <0>         0.0384
     27 H13        -4.7334   -4.2093   -0.8654 H         1 <0>         0.0835
     28 H14        -3.6478   -6.3978    0.7839 H         1 <0>         0.3472
     29 H15         1.9439    1.6943    0.8826 H         1 <0>         0.1402
     30 H16         1.9269    1.7038   -0.8972 H         1 <0>         0.1404
     31 H17         0.9088    3.8584   -0.8098 H         1 <0>         0.4344
     32 H18         3.3021    3.6716    0.8803 H         1 <0>         0.1456
     33 H19         3.2851    3.6811   -0.8996 H         1 <0>         0.1457
     34 H20         2.2270    5.9236   -0.8774 H         1 <0>         0.1137
     35 H21         2.2440    5.9140    0.9024 H         1 <0>         0.1136
     36 H22         4.7168    5.7310    0.8778 H         1 <0>         0.1458
     37 H23         4.6998    5.7406   -0.9020 H         1 <0>         0.1458
     38 H24         3.6817    7.8952   -0.8146 H         1 <0>         0.4411
     39 H25         3.6974    7.8863    0.8330 H         1 <0>         0.4410
     40 H26        -0.9254   -2.3367    0.8222 H         1 <0>         0.4310
     41 H27         5.1163    7.9102   -0.0043 H         1 <0>         0.4534
     42 H28         0.9245    3.8496    0.8378 H         1 <0>         0.4344
     43 H29        -5.1232   -6.4136    0.0165 H         1 <0>         0.3624
@<TRIPOS>BOND
     1    1    2 1
     2    1    9 1
     3    1   15 1
     4    1   16 1
     5    2    3 1
     6    2   17 1
     7    2   18 1
     8    3    4 1
     9    3   19 1
    10    3   20 1
    11    4    5 1
    12    4   21 1
    13    4   40 1
    14    5    6 1
    15    5   22 1
    16    5   23 1
    17    6    7 1
    18    6   24 1
    19    6   25 1
    20    7    8 1
    21    7   26 1
    22    7   27 1
    23    8   28 1
    24    8   43 1
    25    9   10 1
    26    9   29 1
    27    9   30 1
    28   10   11 1
    29   10   31 1
    30   10   42 1
    31   11   12 1
    32   11   32 1
    33   11   33 1
    34   12   13 1
    35   12   34 1
    36   12   35 1
    37   13   14 1
    38   13   36 1
    39   13   37 1
    40   14   38 1
    41   14   39 1
    42   14   41 1
@<TRIPOS>MOLECULE
ZINC01532734
   43    42     0     0     0
SMALL
USER_CHARGES

@<TRIPOS>ATOM
      1 C1         -0.0187    1.5258    0.0104 C.3       1 <0>        -0.1499
      2 C2          0.0021   -0.0041    0.0020 C.3       1 <0>        -0.1184
      3 C3         -1.4333   -0.5336    0.0129 C.3       1 <0>         0.0565
      4 N1         -1.4134   -2.0025    0.0048 N.3       1 <0>        -0.6914
      5 C4         -2.7775   -2.5475    0.0149 C.3       1 <0>         0.0596
      6 C5         -2.7159   -4.0763    0.0061 C.3       1 <0>        -0.1535
      7 C6         -4.1367   -4.6440    0.0166 C.3       1 <0>        -0.0070
      8 N2         -4.0776   -6.1118    0.0082 N.4       1 <0>        -0.6376
      9 C7          1.4167    2.0553   -0.0004 C.3       1 <0>        -0.0091
     10 N3          1.3968    3.5242    0.0076 N.4       1 <0>        -0.5103
     11 C8          2.7749    4.0327   -0.0028 C.3       1 <0>        -0.0050
     12 C9          2.7542    5.5625    0.0056 C.3       1 <0>        -0.1876
     13 C10         4.1896    6.0921   -0.0052 C.3       1 <0>        -0.0023
     14 N4          4.1697    7.5609    0.0029 N.4       1 <0>        -0.6384
     15 H1         -0.5459    1.8868   -0.8726 H         1 <0>         0.0896
     16 H2         -0.5289    1.8773    0.9072 H         1 <0>         0.0921
     17 H3          0.5123   -0.3556   -0.8948 H         1 <0>         0.0760
     18 H4          0.5293   -0.3651    0.8851 H         1 <0>         0.0871
     19 H5         -1.9435   -0.1821    0.9097 H         1 <0>         0.0806
     20 H6         -1.9605   -0.1726   -0.8702 H         1 <0>         0.0388
     21 H7         -3.2970   -2.2100    0.9117 H         1 <0>         0.0863
     22 H8         -3.3140   -2.2004   -0.8682 H         1 <0>         0.0447
     23 H9         -2.1964   -4.4138   -0.8907 H         1 <0>         0.0880
     24 H10        -2.1794   -4.4234    0.8891 H         1 <0>         0.0991
     25 H11        -4.6562   -4.3064    0.9134 H         1 <0>         0.1361
     26 H12        -4.6732   -4.2969   -0.8664 H         1 <0>         0.1337
     27 H13        -3.5967   -6.4242   -0.8220 H         1 <0>         0.4366
     28 H14        -3.5809   -6.4331    0.8256 H         1 <0>         0.4377
     29 H15         1.9439    1.6943    0.8826 H         1 <0>         0.1378
     30 H16         1.9269    1.7038   -0.8972 H         1 <0>         0.1364
     31 H17         0.9088    3.8584   -0.8098 H         1 <0>         0.4322
     32 H18         3.3021    3.6716    0.8803 H         1 <0>         0.1444
     33 H19         3.2851    3.6811   -0.8996 H         1 <0>         0.1440
     34 H20         2.2270    5.9236   -0.8774 H         1 <0>         0.1126
     35 H21         2.2440    5.9140    0.9024 H         1 <0>         0.1129
     36 H22         4.7168    5.7310    0.8778 H         1 <0>         0.1456
     37 H23         4.6998    5.7406   -0.9020 H         1 <0>         0.1455
     38 H24         3.6817    7.8952   -0.8146 H         1 <0>         0.4406
     39 H25         3.6974    7.8863    0.8330 H         1 <0>         0.4406
     40 H26        -0.8899   -2.3527   -0.7835 H         1 <0>         0.3476
     41 H27         5.1163    7.9102   -0.0043 H         1 <0>         0.4522
     42 H28         0.9245    3.8496    0.8378 H         1 <0>         0.4327
     43 H29        -5.0145   -6.4861    0.0151 H         1 <0>         0.4431
@<TRIPOS>BOND
     1    1    2 1
     2    1    9 1
     3    1   15 1
     4    1   16 1
     5    2    3 1
     6    2   17 1
     7    2   18 1
     8    3    4 1
     9    3   19 1
    10    3   20 1
    11    4    5 1
    12    4   40 1
    13    5    6 1
    14    5   21 1
    15    5   22 1
    16    6    7 1
    17    6   23 1
    18    6   24 1
    19    7    8 1
    20    7   25 1
    21    7   26 1
    22    8   27 1
    23    8   28 1
    24    8   43 1
    25    9   10 1
    26    9   29 1
    27    9   30 1
    28   10   11 1
    29   10   31 1
    30   10   42 1
    31   11   12 1
    32   11   32 1
    33   11   33 1
    34   12   13 1
    35   12   34 1
    36   12   35 1
    37   13   14 1
    38   13   36 1
    39   13   37 1
    40   14   38 1
    41   14   39 1
    42   14   41 1
@<TRIPOS>MOLECULE
ZINC00073524
   33    33     0     0     0
SMALL
USER_CHARGES

@<TRIPOS>ATOM
      1 C1         -0.0164    1.5256    0.0121 C.3       1 <0>        -0.1310
      2 C2          0.0080   -0.0042    0.0055 C.3       1 <0>        -0.0834
      3 C3          0.7577   -0.5077    1.2405 C.3       1 <0>        -0.1448
      4 C4         -1.4261   -0.5371    0.0271 C.3       1 <0>        -0.1437
      5 C5          0.7058   -0.4901   -1.2386 C.2       1 <0>         0.5244
      6 O1          1.1410    0.3085   -2.0410 O.2       1 <0>        -0.5089
      7 N1          0.8465   -1.8122   -1.4596 N.am      1 <0>        -0.6764
      8 C6          1.4073   -2.2653   -2.6588 C.ar      1 <0>         0.2053
      9 C7          0.9449   -3.4366   -3.2443 C.ar      1 <0>        -0.1678
     10 C8          1.5006   -3.8812   -4.4280 C.ar      1 <0>        -0.0009
     11 C9          2.5162   -3.1613   -5.0301 C.ar      1 <0>        -0.6950
     12 C10         2.9791   -1.9949   -4.4494 C.ar      1 <0>         0.0039
     13 C11         2.4234   -1.5416   -3.2690 C.ar      1 <0>        -0.1452
     14 S1          3.2224   -3.7319   -6.5402 S.o2      1 <0>         2.7041
     15 O2          4.5264   -3.1724   -6.6157 O.2       1 <0>        -0.9627
     16 O3          2.9903   -5.1329   -6.5933 O.2       1 <0>        -0.9616
     17 N2          2.3468   -3.0600   -7.7748 N.pl3     1 <0>        -1.2483
     18 H1          1.0052    1.9053   -0.0032 H         1 <0>         0.0647
     19 H2         -0.5505    1.8843   -0.8677 H         1 <0>         0.0644
     20 H3         -0.5212    1.8771    0.9120 H         1 <0>         0.0675
     21 H4          0.2530   -0.1562    2.1404 H         1 <0>         0.0756
     22 H5          0.7751   -1.5975    1.2358 H         1 <0>         0.0600
     23 H6          1.7794   -0.1280    1.2252 H         1 <0>         0.0645
     24 H7         -1.9602   -0.1785   -0.8528 H         1 <0>         0.0635
     25 H8         -1.4087   -1.6270    0.0223 H         1 <0>         0.0603
     26 H9         -1.9308   -0.1857    0.9269 H         1 <0>         0.0751
     27 H10         0.5590   -2.4496   -0.7873 H         1 <0>         0.4155
     28 H11         0.1520   -3.9994   -2.7744 H         1 <0>         0.1379
     29 H12         1.1417   -4.7922   -4.8837 H         1 <0>         0.1477
     30 H13         3.7727   -1.4351   -4.9219 H         1 <0>         0.1466
     31 H14         2.7819   -0.6278   -2.8186 H         1 <0>         0.1498
     32 H15         2.7737   -2.8706   -8.6250 H         1 <0>         0.4220
     33 H16         1.4071   -2.8559   -7.6478 H         1 <0>         0.4171
@<TRIPOS>BOND
     1    1    2 1
     2    1   18 1
     3    1   19 1
     4    1   20 1
     5    2    3 1
     6    2    4 1
     7    2    5 1
     8    3   21 1
     9    3   22 1
    10    3   23 1
    11    4   24 1
    12    4   25 1
    13    4   26 1
    14    5    6 2
    15    5    7 am
    16    7    8 1
    17    7   27 1
    18    8   13 ar
    19    8    9 ar
    20    9   10 ar
    21    9   28 1
    22   10   11 ar
    23   10   29 1
    24   11   12 ar
    25   11   14 1
    26   12   13 ar
    27   12   30 1
    28   13   31 1
    29   14   15 2
    30   14   16 2
    31   14   17 1
    32   17   32 1
    33   17   33 1
@<TRIPOS>MOLECULE
ZINC04654875
   64    65     0     0     0
SMALL
USER_CHARGES
N-[3-[4-(3-aminopropylamino)butylamino]propyl]-2-(1-naphthyl)acetamide
@<TRIPOS>ATOM
      1 C1         -3.8495   -0.7218    3.5888 C.ar      1 <0>        -0.1196
      2 C2         -2.8010    0.1963    3.6085 C.ar      1 <0>        -0.1075
      3 C3         -2.3339    0.7514    2.4571 C.ar      1 <0>        -0.1176
      4 C4         -2.9126    0.3929    1.2275 C.ar      1 <0>        -0.0322
      5 C5         -3.9818   -0.5375    1.2079 C.ar      1 <0>        -0.0531
      6 C6         -4.4367   -1.0899    2.4176 C.ar      1 <0>        -0.0966
      7 C7         -4.5632   -0.8928   -0.0209 C.ar      1 <0>        -0.0933
      8 C8         -4.0966   -0.3369   -1.1725 C.ar      1 <0>        -0.1187
      9 C9         -3.0488    0.5813   -1.1527 C.ar      1 <0>        -0.0948
     10 C10        -2.4616    0.9495    0.0189 C.ar      1 <0>        -0.0734
     11 C11        -1.3296    1.9443    0.0189 C.3       1 <0>        -0.0991
     12 C12        -0.0144    1.2086    0.0087 C.2       1 <0>         0.5177
     13 O1          0.0021   -0.0041    0.0020 O.2       1 <0>        -0.5092
     14 N1          1.1435    1.8983    0.0013 N.am      1 <0>        -0.7442
     15 C13         2.4220    1.1832   -0.0147 C.3       1 <0>         0.1232
     16 C14         3.5713    2.1931   -0.0203 C.3       1 <0>        -0.1643
     17 C15         4.9065    1.4462   -0.0370 C.3       1 <0>        -0.0016
     18 C16         7.3106    1.7333   -0.0584 C.3       1 <0>        -0.0058
     19 C17         8.4325    2.7736   -0.0636 C.3       1 <0>        -0.1502
     20 C18         9.7872    2.0626   -0.0803 C.3       1 <0>        -0.1504
     21 C19        10.9091    3.1028   -0.0854 C.3       1 <0>        -0.0056
     22 C20        13.3132    3.3899   -0.1069 C.3       1 <0>        -0.0009
     23 C21        14.6485    2.6430   -0.1236 C.3       1 <0>        -0.1889
     24 C22        15.7977    3.6530   -0.1292 C.3       1 <0>         0.0020
     25 H1         -4.2010   -1.1478    4.5169 H         1 <0>         0.1267
     26 H2         -2.3523    0.4710    4.5517 H         1 <0>         0.1220
     27 H3         -1.5202    1.4610    2.4877 H         1 <0>         0.1157
     28 H4         -5.2478   -1.8030    2.4176 H         1 <0>         0.1315
     29 H5         -5.3758   -1.6035   -0.0515 H         1 <0>         0.1317
     30 H6         -4.5450   -0.6120   -2.1157 H         1 <0>         0.1278
     31 H7         -2.6975    1.0076   -2.0808 H         1 <0>         0.1206
     32 H8         -1.3916    2.5653    0.9126 H         1 <0>         0.1075
     33 H9         -1.4000    2.5749   -0.8673 H         1 <0>         0.1082
     34 H10         1.1304    2.8682    0.0067 H         1 <0>         0.4036
     35 H11         2.4967    0.5526    0.8712 H         1 <0>         0.0773
     36 H12         2.4797    0.5621   -0.9086 H         1 <0>         0.0773
     37 H13         3.4966    2.8237   -0.9062 H         1 <0>         0.0968
     38 H14         3.5136    2.8141    0.8737 H         1 <0>         0.0967
     39 H15         4.9812    0.8157    0.8489 H         1 <0>         0.1384
     40 H16         4.9642    0.8252   -0.9309 H         1 <0>         0.1385
     41 H17         7.4020    1.1047    0.8274 H         1 <0>         0.1363
     42 H18         7.3850    1.1143   -0.9525 H         1 <0>         0.1362
     43 H19         8.3411    3.4022   -0.9493 H         1 <0>         0.1007
     44 H20         8.3581    3.3926    0.8305 H         1 <0>         0.1006
     45 H21         9.8786    1.4340    0.8055 H         1 <0>         0.1013
     46 H22         9.8616    1.4435   -0.9744 H         1 <0>         0.1013
     47 H23        10.8177    3.7314   -0.9712 H         1 <0>         0.1392
     48 H24        10.8347    3.7219    0.8086 H         1 <0>         0.1392
     49 H25        13.2385    4.0205   -0.9928 H         1 <0>         0.1445
     50 H26        13.2555    4.0109    0.7871 H         1 <0>         0.1445
     51 H27        14.7232    2.0124    0.7623 H         1 <0>         0.1133
     52 H28        14.7062    2.0220   -1.0175 H         1 <0>         0.1129
     53 H29        15.7230    4.2836   -1.0151 H         1 <0>         0.1437
     54 H30        15.7400    4.2740    0.7648 H         1 <0>         0.1463
     55 H31        17.8551    3.5815   -0.1492 H         1 <0>         0.4555
     56 H32        17.1459    2.2960    0.6321 H         1 <0>         0.4428
     57 N2          6.0087    2.4266   -0.0423 N.4       1 <0>        -0.5198
     58 H33         5.9465    3.0107    0.7997 H         1 <0>         0.4357
     59 H34         5.9305    3.0196   -0.8769 H         1 <0>         0.4358
     60 N3         12.2111    2.4096   -0.1016 N.4       1 <0>        -0.5208
     61 H35        12.2733    1.8254   -0.9437 H         1 <0>         0.4386
     62 H36        12.2894    1.8165    0.7329 H         1 <0>         0.4387
     63 N4         17.0776    2.9237   -0.1673 N.4       1 <0>        -0.6482
     64 H37        17.1258    2.3717   -1.0317 H         1 <0>         0.4453
@<TRIPOS>BOND
     1    1    6 ar
     2    1    2 ar
     3    1   25 1
     4    2    3 ar
     5    2   26 1
     6    3    4 ar
     7    3   27 1
     8    4   10 ar
     9    4    5 ar
    10    5    6 ar
    11    5    7 ar
    12    6   28 1
    13    7    8 ar
    14    7   29 1
    15    8    9 ar
    16    8   30 1
    17    9   10 ar
    18    9   31 1
    19   10   11 1
    20   11   12 1
    21   11   32 1
    22   11   33 1
    23   12   13 2
    24   12   14 am
    25   14   15 1
    26   14   34 1
    27   15   16 1
    28   15   35 1
    29   15   36 1
    30   16   17 1
    31   16   37 1
    32   16   38 1
    33   17   39 1
    34   17   40 1
    35   17   57 1
    36   18   19 1
    37   18   41 1
    38   18   42 1
    39   18   57 1
    40   19   20 1
    41   19   43 1
    42   19   44 1
    43   20   21 1
    44   20   45 1
    45   20   46 1
    46   21   47 1
    47   21   48 1
    48   21   60 1
    49   22   23 1
    50   22   49 1
    51   22   50 1
    52   22   60 1
    53   23   24 1
    54   23   51 1
    55   23   52 1
    56   24   53 1
    57   24   54 1
    58   24   63 1
    59   55   63 1
    60   56   63 1
    61   57   58 1
    62   57   59 1
    63   60   61 1
    64   60   62 1
    65   63   64 1
@<TRIPOS>MOLECULE
ZINC06716957
   61    65     0     0     0
SMALL
USER_CHARGES
4-methyl-N-[3-(4-methylimidazol-1-yl)-5-(trifluoromethyl)phenyl]-3-[4-(3-pyridyl)pyrimidin-2-yl]amino-benzamide
@<TRIPOS>ATOM
      1 C1          4.8797   -3.9669    0.1547 C.3       1 <0>        -0.1225
      2 C2          3.5754   -4.7217    0.1669 C.ar      1 <0>        -0.0869
      3 C3          3.5795   -6.1039    0.1964 C.ar      1 <0>        -0.1014
      4 C4          2.3894   -6.8021    0.2020 C.ar      1 <0>        -0.1034
      5 C5          1.1753   -6.1126    0.1832 C.ar      1 <0>        -0.1270
      6 C6          1.1710   -4.7182    0.1589 C.ar      1 <0>        -0.0590
      7 C7          2.3724   -4.0259    0.1535 C.ar      1 <0>         0.1619
      8 N1          2.3736   -2.6277    0.1286 N.pl3     1 <0>        -0.6325
      9 C8          1.2893   -1.9432   -0.3959 C.ar      1 <0>         0.5614
     10 N2          0.3200   -2.6260   -0.9883 N.ar      1 <0>        -0.5534
     11 C9         -0.7320   -2.0090   -1.5021 C.ar      1 <0>         0.1977
     12 C10        -0.8164   -0.6303   -1.4172 C.ar      1 <0>        -0.2657
     13 C11         0.2206    0.0624   -0.7871 C.ar      1 <0>         0.2658
     14 N3          1.2507   -0.6239   -0.2975 N.ar      1 <0>        -0.5571
     15 C12         0.1772    1.5403   -0.6710 C.ar      1 <0>        -0.1169
     16 C13         1.2145    2.2342   -0.0406 C.ar      1 <0>        -0.0276
     17 C14         1.1266    3.6129    0.0420 C.ar      1 <0>        -0.1784
     18 C15         0.0258    4.2543   -0.4966 C.ar      1 <0>         0.1175
     19 N4         -0.9376    3.5726   -1.0856 N.ar      1 <0>        -0.4841
     20 C16        -0.8952    2.2604   -1.1934 C.ar      1 <0>         0.1340
     21 C17        -0.1012   -6.8583    0.1887 C.2       1 <0>         0.5673
     22 O1         -1.1570   -6.2560    0.1719 O.2       1 <0>        -0.5061
     23 N5         -0.0944   -8.2058    0.2122 N.am      1 <0>        -0.6669
     24 C18        -1.2963   -8.9130    0.1072 C.ar      1 <0>         0.1849
     25 C19        -1.4127  -10.1752    0.6766 C.ar      1 <0>        -0.1112
     26 C20        -2.6011  -10.8720    0.5773 C.ar      1 <0>        -0.1296
     27 C21        -3.6741  -10.3211   -0.0973 C.ar      1 <0>        -0.1084
     28 C22        -3.5624   -9.0626   -0.6729 C.ar      1 <0>         0.1652
     29 C23        -2.3721   -8.3576   -0.5706 C.ar      1 <0>        -0.1152
     30 N6         -4.6520   -8.5044   -1.3568 N.pl3     1 <0>        -0.4135
     31 C24        -4.6878   -7.2792   -1.9710 C.2       1 <0>        -0.0484
     32 C25        -5.9185   -7.1442   -2.5004 C.2       1 <0>         0.0096
     33 N7         -6.6190   -8.2532   -2.2203 N.2       1 <0>        -0.4758
     34 C26        -5.8695   -9.0779   -1.5408 C.2       1 <0>         0.1944
     35 C27        -6.4219   -5.9529   -3.2741 C.3       1 <0>        -0.0703
     36 C28        -2.7260  -12.2385    1.2004 C.3       1 <0>         0.5133
     37 F1         -2.3418  -13.2115    0.2714 F         1 <0>        -0.1709
     38 F2         -1.8981  -12.3154    2.3255 F         1 <0>        -0.1721
     39 F3         -4.0538  -12.4572    1.5826 F         1 <0>        -0.1717
     40 H1          5.1932   -3.7667    1.1793 H         1 <0>         0.0780
     41 H2          5.6404   -4.5642   -0.3479 H         1 <0>         0.0781
     42 H3          4.7488   -3.0240   -0.3761 H         1 <0>         0.0665
     43 H4          4.5175   -6.6391    0.2106 H         1 <0>         0.1366
     44 H5          2.3969   -7.8819    0.2212 H         1 <0>         0.1267
     45 H6          0.2351   -4.1794    0.1439 H         1 <0>         0.1656
     46 H7          3.1337   -2.1370    0.4786 H         1 <0>         0.4259
     47 H8         -1.5163   -2.5753   -1.9823 H         1 <0>         0.1768
     48 H9         -1.6642   -0.1022   -1.8280 H         1 <0>         0.1524
     49 H10         2.0625    1.7077    0.3717 H         1 <0>         0.1463
     50 H11         1.9093    4.1820    0.5216 H         1 <0>         0.1425
     51 H12        -0.0458    5.3301   -0.4343 H         1 <0>         0.1622
     52 H13        -1.7012    1.7376   -1.6869 H         1 <0>         0.1630
     53 H14         0.7441   -8.6851    0.3020 H         1 <0>         0.4178
     54 H15        -0.5744  -10.6101    1.2006 H         1 <0>         0.1488
     55 H16        -4.6008  -10.8701   -0.1765 H         1 <0>         0.1477
     56 H17        -2.2829   -7.3787   -1.0179 H         1 <0>         0.1618
     57 H18        -3.8832   -6.5605   -2.0210 H         1 <0>         0.1795
     58 H19        -6.1682  -10.0519   -1.1825 H         1 <0>         0.2113
     59 H20        -6.2142   -6.0943   -4.3347 H         1 <0>         0.0711
     60 H21        -7.4967   -5.8505   -3.1248 H         1 <0>         0.0731
     61 H22        -5.9187   -5.0522   -2.9223 H         1 <0>         0.0710
@<TRIPOS>BOND
     1    1    2 1
     2    1   40 1
     3    1   41 1
     4    1   42 1
     5    2    7 ar
     6    2    3 ar
     7    3    4 ar
     8    3   43 1
     9    4    5 ar
    10    4   44 1
    11    5    6 ar
    12    5   21 1
    13    6    7 ar
    14    6   45 1
    15    7    8 1
    16    8    9 1
    17    8   46 1
    18    9   14 ar
    19    9   10 ar
    20   10   11 ar
    21   11   12 ar
    22   11   47 1
    23   12   13 ar
    24   12   48 1
    25   13   14 ar
    26   13   15 1
    27   15   20 ar
    28   15   16 ar
    29   16   17 ar
    30   16   49 1
    31   17   18 ar
    32   17   50 1
    33   18   19 ar
    34   18   51 1
    35   19   20 ar
    36   20   52 1
    37   21   22 2
    38   21   23 am
    39   23   24 1
    40   23   53 1
    41   24   29 ar
    42   24   25 ar
    43   25   26 ar
    44   25   54 1
    45   26   27 ar
    46   26   36 1
    47   27   28 ar
    48   27   55 1
    49   28   29 ar
    50   28   30 1
    51   29   56 1
    52   30   34 1
    53   30   31 1
    54   31   32 2
    55   31   57 1
    56   32   33 1
    57   32   35 1
    58   33   34 2
    59   34   58 1
    60   35   59 1
    61   35   60 1
    62   35   61 1
    63   36   37 1
    64   36   38 1
    65   36   39 1
@<TRIPOS>MOLECULE
ZINC16969869
   14    14     0     0     0
SMALL
USER_CHARGES

@<TRIPOS>ATOM
      1 C1         -0.0222    1.7864    0.0119 C.2       1 <0>         0.3566
      2 N1          1.2813    2.0320    0.0007 N.2       1 <0>        -0.3577
      3 N2          2.1329    1.1018   -0.0124 N.2       1 <0>        -0.1157
      4 C2          1.7849   -0.1689   -0.0159 C.2       1 <0>        -0.5637
      5 S1          0.0021   -0.0041    0.0020 S.3       1 <0>         0.1000
      6 S2          2.7879   -1.6175   -0.0337 S.o2      1 <0>         2.7528
      7 O1          3.1517   -1.8762    1.3153 O.2       1 <0>        -0.9384
      8 O2          2.1073   -2.5728   -0.8358 O.2       1 <0>        -0.9428
      9 N3          4.1854   -1.2355   -0.8359 N.pl3     1 <0>        -1.2381
     10 N4         -1.0958    2.6643    0.0316 N.pl3     1 <0>        -0.7629
     11 H1          4.3135   -0.3408   -1.1879 H         1 <0>         0.4233
     12 H2          4.8758   -1.9066   -0.9538 H         1 <0>         0.4264
     13 H3         -2.0029    2.3210    0.0425 H         1 <0>         0.4307
     14 H4         -0.9394    3.6216    0.0345 H         1 <0>         0.4296
@<TRIPOS>BOND
     1    1    5 1
     2    1    2 2
     3    1   10 1
     4    2    3 1
     5    3    4 2
     6    4    5 1
     7    4    6 1
     8    6    7 2
     9    6    8 2
    10    6    9 1
    11    9   11 1
    12    9   12 1
    13   10   13 1
    14   10   14 1
@<TRIPOS>MOLECULE
ZINC16969869
   13    13     0     0     0
SMALL
USER_CHARGES

@<TRIPOS>ATOM
      1 C1         -0.0222    1.7864    0.0119 C.2       1 <0>         0.3260
      2 N1          1.2813    2.0320    0.0007 N.2       1 <0>        -0.3664
      3 N2          2.1329    1.1018   -0.0124 N.2       1 <0>        -0.1390
      4 C2          1.7849   -0.1689   -0.0159 C.2       1 <0>        -0.4090
      5 S1          0.0021   -0.0041    0.0020 S.3       1 <0>         0.0024
      6 S2          2.7879   -1.6175   -0.0337 S.o2      1 <0>         2.6062
      7 O1          3.1517   -1.8762    1.3153 O.2       1 <0>        -1.0408
      8 O2          2.1073   -2.5728   -0.8358 O.2       1 <0>        -1.0448
      9 N3          4.1854   -1.2355   -0.8359 N.2       1 <0>        -1.3165
     10 N4         -1.0958    2.6643    0.0316 N.pl3     1 <0>        -0.7864
     11 H1          4.8758   -1.9066   -0.9538 H         1 <0>         0.3281
     12 H2         -2.0029    2.3210    0.0425 H         1 <0>         0.4206
     13 H3         -0.9394    3.6216    0.0345 H         1 <0>         0.4195
@<TRIPOS>BOND
     1    1    5 1
     2    1    2 2
     3    1   10 1
     4    2    3 1
     5    3    4 2
     6    4    5 1
     7    4    6 1
     8    6    7 2
     9    6    8 2
    10    6    9 1
    11    9   11 1
    12   10   12 1
    13   10   13 1
@<TRIPOS>MOLECULE
ZINC06392199
   37    38     0     0     0
SMALL
USER_CHARGES

@<TRIPOS>ATOM
      1 C1         -0.0167    1.3781    0.0096 C.ar      1 <0>        -0.1239
      2 C2          1.1709    2.0855    0.0021 C.ar      1 <0>        -0.0191
      3 C3          2.3773    1.4107   -0.0130 C.ar      1 <0>        -0.6701
      4 C4          2.3960    0.0285   -0.0201 C.ar      1 <0>        -0.0181
      5 C5          1.2085   -0.6789   -0.0117 C.ar      1 <0>        -0.1211
      6 C6          0.0021   -0.0041    0.0020 C.ar      1 <0>        -0.0415
      7 C7         -1.2926   -0.7753    0.0107 C.3       1 <0>         0.1504
      8 N1         -1.7258   -1.0177   -1.3676 N.pl3     1 <0>        -1.1166
      9 S1         -2.8982   -2.1445   -1.6810 S.o2      1 <0>         2.6988
     10 O1         -3.1132   -2.1271   -3.0855 O.2       1 <0>        -0.9580
     11 O2         -2.5251   -3.3241   -0.9819 O.2       1 <0>        -0.9584
     12 C8         -4.3874   -1.5677   -0.9365 C.ar      1 <0>        -0.7357
     13 C9         -4.6847   -1.9132    0.3691 C.ar      1 <0>         0.0258
     14 C10        -5.8511   -1.4629    0.9557 C.ar      1 <0>        -0.2178
     15 C11        -6.7260   -0.6620    0.2327 C.ar      1 <0>         0.2700
     16 C12        -6.4242   -0.3168   -1.0786 C.ar      1 <0>        -0.2180
     17 C13        -5.2534   -0.7660   -1.6572 C.ar      1 <0>         0.0306
     18 N2         -7.9067   -0.2051    0.8227 N.pl3     1 <0>        -0.8653
     19 S2          3.8911    2.3124   -0.0238 S.o2      1 <0>         2.7009
     20 O3          4.8717    1.4529   -0.5884 O.2       1 <0>        -0.9608
     21 O4          3.5973    3.5927   -0.5658 O.2       1 <0>        -0.9616
     22 N3          4.3274    2.5556    1.5551 N.pl3     1 <0>        -1.2496
     23 H1         -0.9591    1.9053    0.0259 H         1 <0>         0.1383
     24 H2          1.1563    3.1654    0.0076 H         1 <0>         0.1462
     25 H3          3.3385   -0.4987   -0.0326 H         1 <0>         0.1471
     26 H4          1.2231   -1.7588   -0.0179 H         1 <0>         0.1407
     27 H5         -1.1443   -1.7285    0.5180 H         1 <0>         0.0962
     28 H6         -2.0551   -0.1993    0.5352 H         1 <0>         0.0818
     29 H7         -1.3259   -0.5183   -2.0967 H         1 <0>         0.4211
     30 H8         -4.0042   -2.5362    0.9305 H         1 <0>         0.1393
     31 H9         -6.0829   -1.7333    1.9753 H         1 <0>         0.1310
     32 H10        -7.1025    0.3054   -1.6436 H         1 <0>         0.1309
     33 H11        -5.0161   -0.4944   -2.6752 H         1 <0>         0.1396
     34 H12        -8.1165   -0.4471    1.7383 H         1 <0>         0.4040
     35 H13        -8.5169    0.3541    0.3169 H         1 <0>         0.4041
     36 H14         3.7682    2.2150    2.2708 H         1 <0>         0.4169
     37 H15         5.1421    3.0386    1.7642 H         1 <0>         0.4221
@<TRIPOS>BOND
     1    1    6 ar
     2    1    2 ar
     3    1   23 1
     4    2    3 ar
     5    2   24 1
     6    3    4 ar
     7    3   19 1
     8    4    5 ar
     9    4   25 1
    10    5    6 ar
    11    5   26 1
    12    6    7 1
    13    7    8 1
    14    7   27 1
    15    7   28 1
    16    8    9 1
    17    8   29 1
    18    9   10 2
    19    9   11 2
    20    9   12 1
    21   12   17 ar
    22   12   13 ar
    23   13   14 ar
    24   13   30 1
    25   14   15 ar
    26   14   31 1
    27   15   16 ar
    28   15   18 1
    29   16   17 ar
    30   16   32 1
    31   17   33 1
    32   18   34 1
    33   18   35 1
    34   19   20 2
    35   19   21 2
    36   19   22 1
    37   22   36 1
    38   22   37 1
