@<TRIPOS>MOLECULE
ZINC03813042
   19    19     0     0     0
SMALL
USER_CHARGES

@<TRIPOS>ATOM
      1 C1         -0.0184    1.5028    0.0103 C.3       1 <0>        -0.1669
      2 C2          0.0021   -0.0041    0.0020 C.2       1 <0>         0.5048
      3 O1          1.0605   -0.5961   -0.0113 O.2       1 <0>        -0.4597
      4 N1         -1.1558   -0.6938    0.0094 N.am      1 <0>        -0.6127
      5 C3         -1.1370   -2.0844    0.0017 C.2       1 <0>         0.2593
      6 N2         -0.1026   -2.9019   -0.0067 N.2       1 <0>        -0.3105
      7 N3         -0.2439   -4.1575   -0.0130 N.2       1 <0>        -0.1075
      8 C4         -1.4599   -4.6659   -0.0111 C.2       1 <0>        -0.5832
      9 S1         -2.4308   -3.1653    0.0083 S.3       1 <0>         0.2359
     10 S2         -1.9811   -6.3490   -0.0183 S.o2      1 <0>         2.7480
     11 O2         -1.9574   -6.7873    1.3333 O.2       1 <0>        -0.9356
     12 O3         -3.1545   -6.4075   -0.8177 O.2       1 <0>        -0.9350
     13 N4         -0.8199   -7.2178   -0.8179 N.pl3     1 <0>        -1.2313
     14 H1          1.0042    1.8801    0.0026 H         1 <0>         0.1076
     15 H2         -0.5455    1.8639   -0.8728 H         1 <0>         0.1002
     16 H3         -0.5286    1.8543    0.9071 H         1 <0>         0.1002
     17 H4         -2.0023   -0.2203    0.0200 H         1 <0>         0.4348
     18 H5         -0.6611   -8.1456   -0.5837 H         1 <0>         0.4284
     19 H6         -0.2986   -6.7988   -1.5204 H         1 <0>         0.4232
@<TRIPOS>BOND
     1    1    2 1
     2    1   14 1
     3    1   15 1
     4    1   16 1
     5    2    3 2
     6    2    4 am
     7    4    5 1
     8    4   17 1
     9    5    9 1
    10    5    6 2
    11    6    7 1
    12    7    8 2
    13    8    9 1
    14    8   10 1
    15   10   11 2
    16   10   12 2
    17   10   13 1
    18   13   18 1
    19   13   19 1
@<TRIPOS>MOLECULE
ZINC03813042
   18    18     0     0     0
SMALL
USER_CHARGES

@<TRIPOS>ATOM
      1 C1         -0.0184    1.5028    0.0103 C.3       1 <0>        -0.1624
      2 C2          0.0021   -0.0041    0.0020 C.2       1 <0>         0.5010
      3 O1          0.0203   -0.6161    1.0490 O.2       1 <0>        -0.4698
      4 N1          0.0001   -0.6716   -1.1688 N.am      1 <0>        -0.6150
      5 C3          0.0189   -2.0622   -1.1765 C.2       1 <0>         0.2229
      6 N2          0.0342   -2.8992   -0.1578 N.2       1 <0>        -0.3133
      7 N3          0.0506   -4.1518   -0.3231 N.2       1 <0>        -0.1306
      8 C4          0.0525   -4.6369   -1.5486 C.2       1 <0>        -0.4261
      9 S1          0.0209   -3.1183   -2.4906 S.3       1 <0>         0.1375
     10 S2          0.0731   -6.3097   -2.1017 S.o2      1 <0>         2.6009
     11 O2         -1.2748   -6.7592   -2.0864 O.2       1 <0>        -1.0365
     12 O3          0.8728   -6.3393   -3.2760 O.2       1 <0>        -1.0415
     13 N4          0.8799   -7.1939   -0.9573 N.2       1 <0>        -1.3126
     14 H1          1.0042    1.8801    0.0026 H         1 <0>         0.1013
     15 H2         -0.5455    1.8639   -0.8728 H         1 <0>         0.0851
     16 H3         -0.5286    1.8543    0.9071 H         1 <0>         0.1022
     17 H4         -0.0145   -0.1822   -2.0061 H         1 <0>         0.4269
     18 H5          0.9999   -8.1489   -1.0779 H         1 <0>         0.3298
@<TRIPOS>BOND
     1    1    2 1
     2    1   14 1
     3    1   15 1
     4    1   16 1
     5    2    3 2
     6    2    4 am
     7    4    5 1
     8    4   17 1
     9    5    9 1
    10    5    6 2
    11    6    7 1
    12    7    8 2
    13    8    9 1
    14    8   10 1
    15   10   11 2
    16   10   12 2
    17   10   13 1
    18   13   18 1
@<TRIPOS>MOLECULE
ZINC01031283
   19    19     0     0     0
SMALL
USER_CHARGES

@<TRIPOS>ATOM
      1 C1         -0.0167    1.3781    0.0096 C.ar      1 <0>        -0.0767
      2 C2          1.1709    2.0855    0.0021 C.ar      1 <0>        -0.0150
      3 C3          2.3773    1.4107   -0.0130 C.ar      1 <0>        -0.6394
      4 C4          2.3961    0.0285   -0.0201 C.ar      1 <0>        -0.0150
      5 C5          1.2084   -0.6789   -0.0117 C.ar      1 <0>        -0.0767
      6 C6          0.0021   -0.0041    0.0020 C.ar      1 <0>         0.0066
      7 N1         -1.2696   -0.7615    0.0105 N.pl3     1 <0>         0.0214
      8 O1         -2.3247   -0.1714    0.0241 O.2       1 <0>        -0.1403
      9 O2         -1.2532   -1.9704    0.0039 O.3       1 <0>        -0.1404
     10 S1          3.8911    2.3124   -0.0238 S.o2      1 <0>         2.7045
     11 O3          4.8717    1.4529   -0.5884 O.2       1 <0>        -0.9494
     12 O4          3.5973    3.5927   -0.5658 O.2       1 <0>        -0.9494
     13 N2          4.3274    2.5556    1.5551 N.pl3     1 <0>        -1.2463
     14 H1         -0.9591    1.9053    0.0259 H         1 <0>         0.1670
     15 H2          1.1563    3.1654    0.0076 H         1 <0>         0.1689
     16 H3          3.3385   -0.4987   -0.0326 H         1 <0>         0.1689
     17 H4          1.2231   -1.7588   -0.0179 H         1 <0>         0.1670
     18 H5          3.7682    2.2150    2.2708 H         1 <0>         0.4182
     19 H6          5.1421    3.0386    1.7642 H         1 <0>         0.4261
@<TRIPOS>BOND
     1    1    6 ar
     2    1    2 ar
     3    1   14 1
     4    2    3 ar
     5    2   15 1
     6    3    4 ar
     7    3   10 1
     8    4    5 ar
     9    4   16 1
    10    5    6 ar
    11    5   17 1
    12    6    7 1
    13    7    8 2
    14    7    9 1
    15   10   11 2
    16   10   12 2
    17   10   13 1
    18   13   18 1
    19   13   19 1
@<TRIPOS>MOLECULE
ZINC00128953
   22    22     0     0     0
SMALL
USER_CHARGES

@<TRIPOS>ATOM
      1 C1         -0.0178    1.4608    0.0101 C.3       1 <0>         0.0784
      2 N1          0.0021   -0.0041    0.0020 N.pl3     1 <0>        -1.1153
      3 S1          0.7184   -0.8155   -1.2513 S.o2      1 <0>         2.6972
      4 O1          0.5990   -2.2010   -0.9591 O.2       1 <0>        -0.9447
      5 O2          0.2109   -0.2430   -2.4487 O.2       1 <0>        -0.9408
      6 C2          2.4385   -0.4369   -1.2016 C.ar      1 <0>        -0.6406
      7 C3          2.9259    0.6561   -1.8936 C.ar      1 <0>        -0.0198
      8 C4          4.2754    0.9532   -1.8547 C.ar      1 <0>        -0.0757
      9 C5          5.1374    0.1575   -1.1234 C.ar      1 <0>         0.0033
     10 C6          4.6499   -0.9349   -0.4307 C.ar      1 <0>        -0.0757
     11 C7          3.2998   -1.2295   -0.4662 C.ar      1 <0>        -0.0157
     12 N2          6.5826    0.4751   -1.0825 N.pl3     1 <0>         0.0223
     13 O3          7.0090    1.4303   -1.6887 O.2       1 <0>        -0.1417
     14 O4          7.3365   -0.2208   -0.4430 O.3       1 <0>        -0.1418
     15 H1          1.0048    1.8381    0.0023 H         1 <0>         0.0594
     16 H2         -0.5450    1.8219   -0.8730 H         1 <0>         0.0742
     17 H3         -0.5280    1.8123    0.9069 H         1 <0>         0.0893
     18 H4         -0.4044   -0.4986    0.7308 H         1 <0>         0.4241
     19 H5          2.2524    1.2777   -2.4649 H         1 <0>         0.1662
     20 H6          4.6562    1.8067   -2.3958 H         1 <0>         0.1659
     21 H7          5.3235   -1.5567    0.1403 H         1 <0>         0.1658
     22 H8          2.9184   -2.0808    0.0780 H         1 <0>         0.1661
@<TRIPOS>BOND
     1    1    2 1
     2    1   15 1
     3    1   16 1
     4    1   17 1
     5    2    3 1
     6    2   18 1
     7    3    4 2
     8    3    5 2
     9    3    6 1
    10    6   11 ar
    11    6    7 ar
    12    7    8 ar
    13    7   19 1
    14    8    9 ar
    15    8   20 1
    16    9   10 ar
    17    9   12 1
    18   10   11 ar
    19   10   21 1
    20   11   22 1
    21   12   13 2
    22   12   14 1
@<TRIPOS>MOLECULE
ZINC29253676
   22    22     0     0     0
SMALL
USER_CHARGES

@<TRIPOS>ATOM
      1 C1         -0.0184    1.5028    0.0103 C.3       1 <0>        -0.1669
      2 C2          0.0021   -0.0041    0.0020 C.2       1 <0>         0.5049
      3 O1          1.0605   -0.5961   -0.0113 O.2       1 <0>        -0.4606
      4 N1         -1.1558   -0.6938    0.0094 N.am      1 <0>        -0.6132
      5 C3         -1.1370   -2.0844    0.0017 C.2       1 <0>         0.2581
      6 N2         -0.1026   -2.9019   -0.0067 N.2       1 <0>        -0.3111
      7 N3         -0.2439   -4.1575   -0.0130 N.2       1 <0>        -0.1111
      8 C4         -1.4599   -4.6659   -0.0111 C.2       1 <0>        -0.5785
      9 S1         -2.4308   -3.1653    0.0083 S.3       1 <0>         0.2280
     10 S2         -1.9811   -6.3490   -0.0183 S.o2      1 <0>         2.7363
     11 O2         -1.9574   -6.7873    1.3333 O.2       1 <0>        -0.9253
     12 O3         -3.1545   -6.4075   -0.8177 O.2       1 <0>        -0.9368
     13 N4         -0.8199   -7.2178   -0.8179 N.pl3     1 <0>        -1.1010
     14 C5          0.5287   -7.3282   -0.2564 C.3       1 <0>         0.0757
     15 H1          1.0042    1.8801    0.0026 H         1 <0>         0.1074
     16 H2         -0.5455    1.8639   -0.8728 H         1 <0>         0.0999
     17 H3         -0.5286    1.8543    0.9071 H         1 <0>         0.1000
     18 H4         -2.0023   -0.2203    0.0200 H         1 <0>         0.4343
     19 H5         -1.0327   -7.6534   -1.6580 H         1 <0>         0.4247
     20 H6          0.4762   -7.7997    0.7249 H         1 <0>         0.0722
     21 H7          1.1491   -7.9334   -0.9176 H         1 <0>         0.0879
     22 H8          0.9643   -6.3338   -0.1589 H         1 <0>         0.0749
@<TRIPOS>BOND
     1    1    2 1
     2    1   15 1
     3    1   16 1
     4    1   17 1
     5    2    3 2
     6    2    4 am
     7    4    5 1
     8    4   18 1
     9    5    9 1
    10    5    6 2
    11    6    7 1
    12    7    8 2
    13    8    9 1
    14    8   10 1
    15   10   11 2
    16   10   12 2
    17   10   13 1
    18   13   14 1
    19   13   19 1
    20   14   20 1
    21   14   21 1
    22   14   22 1
@<TRIPOS>MOLECULE
ZINC01661527
   20    20     0     0     0
SMALL
USER_CHARGES

@<TRIPOS>ATOM
      1 C1         -0.0178    1.4608    0.0101 C.3       1 <0>         0.0808
      2 N1          0.0021   -0.0041    0.0020 N.pl3     1 <0>        -1.1190
      3 S1         -1.4206   -0.8515    0.0111 S.o2      1 <0>         2.6983
      4 O1         -1.0732   -2.2289   -0.0267 O.2       1 <0>        -0.9539
      5 O2         -2.2182   -0.2952    1.0472 O.2       1 <0>        -0.9507
      6 C2         -2.2468   -0.4988   -1.5048 C.ar      1 <0>        -0.6783
      7 C3         -3.1168    0.5726   -1.5844 C.ar      1 <0>        -0.0090
      8 C4         -3.7652    0.8498   -2.7732 C.ar      1 <0>        -0.1317
      9 C5         -3.5432    0.0548   -3.8836 C.ar      1 <0>         0.0178
     10 C6         -2.6723   -1.0172   -3.8032 C.ar      1 <0>        -0.1318
     11 C7         -2.0203   -1.2900   -2.6155 C.ar      1 <0>        -0.0053
     12 Cl1        -4.3576    0.4020   -5.3769 Cl        1 <0>        -0.0510
     13 H1          1.0048    1.8381    0.0023 H         1 <0>         0.0861
     14 H2         -0.5450    1.8219   -0.8730 H         1 <0>         0.0598
     15 H3         -0.5280    1.8123    0.9069 H         1 <0>         0.0713
     16 H4          0.8486   -0.4776   -0.0086 H         1 <0>         0.4214
     17 H5         -3.2903    1.1928   -0.7175 H         1 <0>         0.1515
     18 H6         -4.4451    1.6865   -2.8352 H         1 <0>         0.1461
     19 H7         -2.4989   -1.6383   -4.6696 H         1 <0>         0.1460
     20 H8         -1.3368   -2.1240   -2.5540 H         1 <0>         0.1515
@<TRIPOS>BOND
     1    1    2 1
     2    1   13 1
     3    1   14 1
     4    1   15 1
     5    2    3 1
     6    2   16 1
     7    3    4 2
     8    3    5 2
     9    3    6 1
    10    6   11 ar
    11    6    7 ar
    12    7    8 ar
    13    7   17 1
    14    8    9 ar
    15    8   18 1
    16    9   10 ar
    17    9   12 1
    18   10   11 ar
    19   10   19 1
    20   11   20 1
@<TRIPOS>MOLECULE
ZINC00004726
   17    17     0     0     0
SMALL
USER_CHARGES

@<TRIPOS>ATOM
      1 C1         -0.0167    1.3782    0.0096 C.ar      1 <0>        -0.0084
      2 C2          1.1706    2.0858    0.0021 C.ar      1 <0>        -0.1323
      3 C3          2.3780    1.4104   -0.0130 C.ar      1 <0>         0.0197
      4 C4          2.3961    0.0270   -0.0206 C.ar      1 <0>        -0.1325
      5 C5          1.2082   -0.6795   -0.0130 C.ar      1 <0>        -0.0032
      6 C6          0.0021   -0.0041    0.0020 C.ar      1 <0>        -0.6784
      7 S1         -1.5119   -0.9054    0.0122 S.o2      1 <0>         2.7042
      8 O1         -1.2185   -2.1862    0.5533 O.2       1 <0>        -0.9587
      9 O2         -2.4924   -0.0460    0.5773 O.2       1 <0>        -0.9564
     10 N1         -1.9483   -1.1474   -1.5669 N.pl3     1 <0>        -1.2469
     11 Cl1         3.8696    2.2984   -0.0231 Cl        1 <0>        -0.0495
     12 H1         -0.9592    1.9053    0.0259 H         1 <0>         0.1538
     13 H2          1.1558    3.1656    0.0076 H         1 <0>         0.1469
     14 H3          3.3383   -0.5007   -0.0327 H         1 <0>         0.1469
     15 H4          1.2222   -1.7594   -0.0193 H         1 <0>         0.1535
     16 H5         -2.4563   -1.9358   -1.8143 H         1 <0>         0.4234
     17 H6         -1.6959   -0.5007   -2.2444 H         1 <0>         0.4178
@<TRIPOS>BOND
     1    1    6 ar
     2    1    2 ar
     3    1   12 1
     4    2    3 ar
     5    2   13 1
     6    3    4 ar
     7    3   11 1
     8    4    5 ar
     9    4   14 1
    10    5    6 ar
    11    5   15 1
    12    6    7 1
    13    7    8 2
    14    7    9 2
    15    7   10 1
    16   10   16 1
    17   10   17 1
@<TRIPOS>MOLECULE
ZINC05925089
   24    24     0     0     0
SMALL
USER_CHARGES

@<TRIPOS>ATOM
      1 C1         -0.0187    1.5258    0.0104 C.3       1 <0>        -0.1032
      2 C2          0.0021   -0.0041    0.0020 C.3       1 <0>        -0.1711
      3 C3         -1.4117   -0.5257    0.0127 C.2       1 <0>         0.4927
      4 O1         -2.3491    0.2539    0.0259 O.co2     1 <0>        -0.7004
      5 O2         -1.6182   -1.7273    0.0082 O.co2     1 <0>        -0.6962
      6 C4          1.3951    2.0474   -0.0003 C.2       1 <0>         0.5020
      7 O3          2.3275    1.2719   -0.0133 O.2       1 <0>        -0.4556
      8 N1          1.6234    3.3757    0.0047 N.am      1 <0>        -0.6108
      9 C5          2.9281    3.8570   -0.0052 C.2       1 <0>         0.2778
     10 N2          4.0623    3.1849   -0.0254 N.2       1 <0>        -0.3125
     11 N3          5.1835    3.7674   -0.0321 N.2       1 <0>        -0.1069
     12 C6          5.2219    5.0848   -0.0184 C.2       1 <0>        -0.5986
     13 S1          3.4728    5.4526   -0.0018 S.3       1 <0>         0.2204
     14 S2          6.6060    6.1752   -0.0227 S.o2      1 <0>         2.7554
     15 O4          6.9991    6.3271   -1.3797 O.2       1 <0>        -0.9398
     16 O5          6.2540    7.2814    0.7969 O.2       1 <0>        -0.9446
     17 N4          7.8476    5.3934    0.7451 N.pl3     1 <0>        -1.2384
     18 H1         -0.5459    1.8868   -0.8726 H         1 <0>         0.1048
     19 H2         -0.5289    1.8773    0.9072 H         1 <0>         0.1048
     20 H3          0.5123   -0.3556   -0.8948 H         1 <0>         0.0681
     21 H4          0.5293   -0.3651    0.8851 H         1 <0>         0.0680
     22 H5          0.8777    3.9959    0.0151 H         1 <0>         0.4346
     23 H6          7.7154    4.4975    1.0927 H         1 <0>         0.4246
     24 H7          8.7070    5.8313    0.8473 H         1 <0>         0.4251
@<TRIPOS>BOND
     1    1    2 1
     2    1    6 1
     3    1   18 1
     4    1   19 1
     5    2    3 1
     6    2   20 1
     7    2   21 1
     8    3    4 2
     9    3    5 1
    10    6    7 2
    11    6    8 am
    12    8    9 1
    13    8   22 1
    14    9   13 1
    15    9   10 2
    16   10   11 1
    17   11   12 2
    18   12   13 1
    19   12   14 1
    20   14   15 2
    21   14   16 2
    22   14   17 1
    23   17   23 1
    24   17   24 1
@<TRIPOS>MOLECULE
ZINC05925089
   23    23     0     0     0
SMALL
USER_CHARGES

@<TRIPOS>ATOM
      1 C1         -0.0187    1.5258    0.0104 C.3       1 <0>        -0.1022
      2 C2          0.0021   -0.0041    0.0020 C.3       1 <0>        -0.1696
      3 C3         -1.4117   -0.5257    0.0127 C.2       1 <0>         0.4939
      4 O1         -2.3491    0.2539    0.0259 O.co2     1 <0>        -0.7025
      5 O2         -1.6182   -1.7273    0.0082 O.co2     1 <0>        -0.7022
      6 C4          1.3951    2.0474   -0.0003 C.2       1 <0>         0.5000
      7 O3          2.3275    1.2719   -0.0133 O.2       1 <0>        -0.4657
      8 N1          1.6234    3.3757    0.0047 N.am      1 <0>        -0.6175
      9 C5          2.9281    3.8570   -0.0052 C.2       1 <0>         0.2446
     10 N2          4.0623    3.1849   -0.0254 N.2       1 <0>        -0.3184
     11 N3          5.1835    3.7674   -0.0321 N.2       1 <0>        -0.1267
     12 C6          5.2219    5.0848   -0.0184 C.2       1 <0>        -0.4438
     13 S1          3.4728    5.4526   -0.0018 S.3       1 <0>         0.1198
     14 S2          6.6060    6.1752   -0.0227 S.o2      1 <0>         2.6097
     15 O4          6.9991    6.3271   -1.3797 O.2       1 <0>        -1.0420
     16 O5          6.2540    7.2814    0.7969 O.2       1 <0>        -1.0465
     17 N4          7.8476    5.3934    0.7451 N.2       1 <0>        -1.3163
     18 H1         -0.5459    1.8868   -0.8726 H         1 <0>         0.0988
     19 H2         -0.5289    1.8773    0.9072 H         1 <0>         0.0990
     20 H3          0.5123   -0.3556   -0.8948 H         1 <0>         0.0672
     21 H4          0.5293   -0.3651    0.8851 H         1 <0>         0.0674
     22 H5          0.8777    3.9959    0.0151 H         1 <0>         0.4266
     23 H6          8.7070    5.8313    0.8473 H         1 <0>         0.3264
@<TRIPOS>BOND
     1    1    2 1
     2    1    6 1
     3    1   18 1
     4    1   19 1
     5    2    3 1
     6    2   20 1
     7    2   21 1
     8    3    4 2
     9    3    5 1
    10    6    7 2
    11    6    8 am
    12    8    9 1
    13    8   22 1
    14    9   13 1
    15    9   10 2
    16   10   11 1
    17   11   12 2
    18   12   13 1
    19   12   14 1
    20   14   15 2
    21   14   16 2
    22   14   17 1
    23   17   23 1
