@<TRIPOS>MOLECULE
ZINC01544687
   50    50     0     0     0
SMALL
USER_CHARGES

@<TRIPOS>ATOM
      1 C1         -1.1732    1.0687    3.0917 C.3       1 <0>        -0.1494
      2 C2          0.2326    0.9205    2.5062 C.3       1 <0>        -0.0936
      3 C3          1.1241    0.1764    3.5025 C.3       1 <0>        -0.1526
      4 C4          0.1595    0.1302    1.1981 C.3       1 <0>        -0.1173
      5 C5          1.5400    0.1066    0.5388 C.3       1 <0>         0.0743
      6 H1          2.2670   -0.3149    1.2329 H         1 <0>         0.1250
      7 C6          1.4869   -0.7387   -0.7077 C.2       1 <0>         0.3275
      8 O1          1.7526   -0.2507   -1.7799 O.2       1 <0>        -0.4413
      9 N1          1.9362    1.4722    0.1863 N.am      1 <0>        -0.7132
     10 C7          3.2417    1.7871    0.0728 C.2       1 <0>         0.5111
     11 O2          4.0900    0.9741    0.3736 O.2       1 <0>        -0.5218
     12 C8          3.6476    3.1494   -0.4277 C.3       1 <0>         0.1431
     13 H2          3.0085    3.9078    0.0244 H         1 <0>         0.1095
     14 C9          3.4991    3.1986   -1.9497 C.3       1 <0>        -0.0914
     15 C10         3.8739    4.5937   -2.4539 C.3       1 <0>        -0.1497
     16 C11         4.4252    2.1604   -2.5863 C.3       1 <0>        -0.1500
     17 N2          5.0433    3.4072   -0.0647 N.pl3     1 <0>        -1.0910
     18 S1          5.4150    4.6496    0.9651 S.o2      1 <0>         2.6929
     19 O3          6.8219    4.6079    1.1607 O.2       1 <0>        -0.9488
     20 O4          4.7488    5.8022    0.4681 O.2       1 <0>        -0.9451
     21 C12         4.6789    4.2744    2.5214 C.ar      1 <0>        -0.6946
     22 C13         3.3915    4.6966    2.7962 C.ar      1 <0>         0.0038
     23 C14         2.8130    4.4025    4.0163 C.ar      1 <0>        -0.1732
     24 C15         3.5232    3.6847    4.9636 C.ar      1 <0>         0.1599
     25 C16         4.8125    3.2623    4.6872 C.ar      1 <0>        -0.1728
     26 C17         5.3871    3.5531    3.4644 C.ar      1 <0>         0.0186
     27 F1          2.9588    3.3969    6.1569 F         1 <0>        -0.1276
     28 H3         -1.7849    1.6711    2.4200 H         1 <0>         0.0557
     29 H4         -1.6241    0.0832    3.2081 H         1 <0>         0.0572
     30 H5         -1.1121    1.5575    4.0640 H         1 <0>         0.0572
     31 H6          0.6510    1.9079    2.3113 H         1 <0>         0.0718
     32 H7          0.7057   -0.8110    3.6974 H         1 <0>         0.0582
     33 H8          2.1256    0.0708    3.0854 H         1 <0>         0.0560
     34 H9          1.1761    0.7394    4.4344 H         1 <0>         0.0553
     35 H10        -0.1605   -0.8905    1.4076 H         1 <0>         0.0897
     36 H11        -0.5559    0.6047    0.5264 H         1 <0>         0.0759
     37 H12         1.2113   -1.7808   -0.6421 H         1 <0>         0.1035
     38 H13         1.2589    2.1499    0.0345 H         1 <0>         0.4042
     39 H14         2.4665    2.9794   -2.2213 H         1 <0>         0.0899
     40 H15         4.9350    4.7706   -2.2782 H         1 <0>         0.0584
     41 H16         3.6660    4.6621   -3.5217 H         1 <0>         0.0631
     42 H17         3.2876    5.3422   -1.9209 H         1 <0>         0.0663
     43 H18         4.1145    1.1610   -2.2818 H         1 <0>         0.0614
     44 H19         4.3715    2.2426   -3.6719 H         1 <0>         0.0629
     45 H20         5.4496    2.3379   -2.2588 H         1 <0>         0.0573
     46 H21         5.7496    2.8501   -0.4275 H         1 <0>         0.4280
     47 H22         2.8378    5.2568    2.0573 H         1 <0>         0.1496
     48 H23         1.8073    4.7327    4.2309 H         1 <0>         0.1471
     49 H24         5.3676    2.7026    5.4255 H         1 <0>         0.1477
     50 H25         6.3911    3.2199    3.2469 H         1 <0>         0.1513
@<TRIPOS>BOND
     1    1    2 1
     2    1   28 1
     3    1   29 1
     4    1   30 1
     5    2    3 1
     6    2    4 1
     7    2   31 1
     8    3   32 1
     9    3   33 1
    10    3   34 1
    11    4    5 1
    12    4   35 1
    13    4   36 1
    14    5    6 1
    15    5    7 1
    16    5    9 1
    17    7    8 2
    18    7   37 1
    19    9   10 am
    20    9   38 1
    21   10   11 2
    22   10   12 1
    23   12   13 1
    24   12   14 1
    25   12   17 1
    26   14   15 1
    27   14   16 1
    28   14   39 1
    29   15   40 1
    30   15   41 1
    31   15   42 1
    32   16   43 1
    33   16   44 1
    34   16   45 1
    35   17   18 1
    36   17   46 1
    37   18   19 2
    38   18   20 2
    39   18   21 1
    40   21   26 ar
    41   21   22 ar
    42   22   23 ar
    43   22   47 1
    44   23   24 ar
    45   23   48 1
    46   24   25 ar
    47   24   27 1
    48   25   26 ar
    49   25   49 1
    50   26   50 1
@<TRIPOS>MOLECULE
ZINC03826241
   64    63     0     0     0
SMALL
USER_CHARGES

@<TRIPOS>ATOM
      1 C1         -0.9023    2.1143    0.2015 C.3       1 <0>        -0.1552
      2 C2         -0.5019    0.6439    0.3372 C.3       1 <0>        -0.1247
      3 C3         -1.7579   -0.2297    0.3263 C.3       1 <0>        -0.1202
      4 C4         -1.3576   -1.7002    0.4620 C.3       1 <0>        -0.1216
      5 C5         -2.6136   -2.5738    0.4511 C.3       1 <0>         0.0734
      6 H1         -3.1952   -2.3627   -0.4462 H         1 <0>         0.1237
      7 C6         -2.2148   -4.0270    0.4610 C.2       1 <0>         0.3279
      8 O1         -2.5694   -4.7443    1.3655 O.2       1 <0>        -0.4402
      9 N1         -3.4222   -2.2812    1.6372 N.am      1 <0>        -0.7103
     10 C7         -4.7499   -2.5122    1.6214 C.2       1 <0>         0.5236
     11 O2         -5.2843   -2.9091    0.6076 O.2       1 <0>        -0.5347
     12 C8         -5.5704   -2.2774    2.8634 C.3       1 <0>         0.1308
     13 H2         -5.3201   -1.3042    3.2857 H         1 <0>         0.1119
     14 C9         -5.2676   -3.3715    3.8892 C.3       1 <0>        -0.1165
     15 C10        -3.7900   -3.3082    4.2811 C.3       1 <0>        -0.1129
     16 C11        -3.5164   -2.0021    5.0297 C.3       1 <0>        -0.1559
     17 C12        -3.4509   -4.4949    5.1853 C.3       1 <0>        -0.1408
     18 N2         -6.9945   -2.3096    2.5212 N.am      1 <0>        -0.7188
     19 C13        -7.8949   -1.7125    3.3270 C.2       1 <0>         0.5055
     20 O3         -7.5196   -1.0732    4.2868 O.2       1 <0>        -0.5044
     21 C14        -9.3680   -1.8393    3.0353 C.3       1 <0>         0.1365
     22 H3         -9.5872   -2.8552    2.7067 H         1 <0>         0.1098
     23 C15        -9.7565   -0.8518    1.9331 C.3       1 <0>        -0.1291
     24 C16       -11.2342   -1.0353    1.5817 C.3       1 <0>        -0.0910
     25 C17       -11.6585    0.0431    0.5827 C.3       1 <0>        -0.1477
     26 C18       -11.4427   -2.4174    0.9594 C.3       1 <0>        -0.1522
     27 N3        -10.1334   -1.5427    4.2487 N.am      1 <0>        -0.7217
     28 C19       -10.0209   -0.3359    4.8383 C.2       1 <0>         0.5169
     29 O4         -9.2860    0.5044    4.3643 O.2       1 <0>        -0.5150
     30 C20       -10.8082   -0.0308    6.0865 C.3       1 <0>        -0.1698
     31 H4         -0.0075    2.7367    0.2092 H         1 <0>         0.0553
     32 H5         -1.4380    2.2600   -0.7365 H         1 <0>         0.0544
     33 H6         -1.5465    2.3939    1.0351 H         1 <0>         0.0541
     34 H7          0.1423    0.3643   -0.4964 H         1 <0>         0.0637
     35 H8          0.0339    0.4983    1.2752 H         1 <0>         0.0622
     36 H9         -2.4022    0.0498    1.1599 H         1 <0>         0.0643
     37 H10        -2.2937   -0.0841   -0.6117 H         1 <0>         0.0677
     38 H11        -0.7133   -1.9797   -0.3716 H         1 <0>         0.0908
     39 H12        -0.8218   -1.8458    1.4000 H         1 <0>         0.0746
     40 H13        -1.6118   -4.4270   -0.3408 H         1 <0>         0.1056
     41 H14        -3.0020   -1.9213    2.4340 H         1 <0>         0.4077
     42 H15        -5.8851   -3.2205    4.7746 H         1 <0>         0.0810
     43 H16        -5.4869   -4.3471    3.4553 H         1 <0>         0.0715
     44 H17        -3.1738   -3.3481    3.3829 H         1 <0>         0.0876
     45 H18        -4.0760   -1.9954    5.9651 H         1 <0>         0.0618
     46 H19        -2.4506   -1.9222    5.2434 H         1 <0>         0.0581
     47 H20        -3.8278   -1.1584    4.4139 H         1 <0>         0.0529
     48 H21        -3.6457   -5.4254    4.6520 H         1 <0>         0.0557
     49 H22        -2.3982   -4.4498    5.4646 H         1 <0>         0.0558
     50 H23        -4.0671   -4.4550    6.0836 H         1 <0>         0.0535
     51 H24        -7.2895   -2.7607    1.7147 H         1 <0>         0.4087
     52 H25        -9.5900    0.1670    2.2829 H         1 <0>         0.0936
     53 H26        -9.1470   -1.0364    1.0485 H         1 <0>         0.0743
     54 H27       -11.8362   -0.9496    2.4863 H         1 <0>         0.0716
     55 H28       -12.7303   -0.0332    0.3991 H         1 <0>         0.0556
     56 H29       -11.4290    1.0273    0.9911 H         1 <0>         0.0550
     57 H30       -11.1187   -0.0966   -0.3539 H         1 <0>         0.0552
     58 H31       -11.1404   -3.1856    1.6711 H         1 <0>         0.0531
     59 H32       -12.4954   -2.5481    0.7090 H         1 <0>         0.0567
     60 H33       -10.8407   -2.5031    0.0547 H         1 <0>         0.0572
     61 H34       -10.7211   -2.2148    4.6279 H         1 <0>         0.4040
     62 H35       -11.4071   -0.8996    6.3598 H         1 <0>         0.0728
     63 H36       -10.1224    0.2080    6.8994 H         1 <0>         0.0939
     64 H37       -11.4646    0.8198    5.9032 H         1 <0>         0.0926
@<TRIPOS>BOND
     1    1    2 1
     2    1   31 1
     3    1   32 1
     4    1   33 1
     5    2    3 1
     6    2   34 1
     7    2   35 1
     8    3    4 1
     9    3   36 1
    10    3   37 1
    11    4    5 1
    12    4   38 1
    13    4   39 1
    14    5    6 1
    15    5    7 1
    16    5    9 1
    17    7    8 2
    18    7   40 1
    19    9   10 am
    20    9   41 1
    21   10   11 2
    22   10   12 1
    23   12   13 1
    24   12   14 1
    25   12   18 1
    26   14   15 1
    27   14   42 1
    28   14   43 1
    29   15   16 1
    30   15   17 1
    31   15   44 1
    32   16   45 1
    33   16   46 1
    34   16   47 1
    35   17   48 1
    36   17   49 1
    37   17   50 1
    38   18   19 am
    39   18   51 1
    40   19   20 2
    41   19   21 1
    42   21   22 1
    43   21   23 1
    44   21   27 1
    45   23   24 1
    46   23   52 1
    47   23   53 1
    48   24   25 1
    49   24   26 1
    50   24   54 1
    51   25   55 1
    52   25   56 1
    53   25   57 1
    54   26   58 1
    55   26   59 1
    56   26   60 1
    57   27   28 am
    58   27   61 1
    59   28   29 2
    60   28   30 1
    61   30   62 1
    62   30   63 1
    63   30   64 1
@<TRIPOS>MOLECULE
ZINC01534489
   54    55     0     0     0
SMALL
USER_CHARGES

@<TRIPOS>ATOM
      1 C1         -0.0187    1.5258    0.0104 C.3       1 <0>        -0.1390
      2 C2          0.0021   -0.0041    0.0020 C.3       1 <0>        -0.1008
      3 C3          0.7421   -0.5109    1.2415 C.3       1 <0>        -0.1480
      4 C4         -1.4333   -0.5336    0.0129 C.3       1 <0>         0.1516
      5 H1         -1.9605   -0.1726   -0.8702 H         1 <0>         0.1198
      6 C5         -1.4129   -2.0405    0.0046 C.2       1 <0>         0.5252
      7 O1         -1.9211   -2.6589    0.9158 O.2       1 <0>        -0.5300
      8 N1         -0.8299   -2.7009   -1.0154 N.am      1 <0>        -0.7064
      9 C6         -0.8100   -4.1658   -1.0235 C.3       1 <0>         0.0836
     10 H2         -0.7057   -4.5333   -0.0026 H         1 <0>         0.1247
     11 C7          0.3705   -4.6552   -1.8648 C.3       1 <0>        -0.0815
     12 C8          1.6618   -4.2426   -1.2065 C.ar      1 <0>        -0.0862
     13 C9          2.2373   -3.0246   -1.5166 C.ar      1 <0>        -0.1116
     14 C10         3.4218   -2.6461   -0.9128 C.ar      1 <0>        -0.1146
     15 C11         4.0305   -3.4854    0.0015 C.ar      1 <0>        -0.1185
     16 C12         3.4545   -4.7030    0.3123 C.ar      1 <0>        -0.1159
     17 C13         2.2678   -5.0796   -0.2883 C.ar      1 <0>        -0.1128
     18 C14        -2.0964   -4.6824   -1.6145 C.2       1 <0>         0.3287
     19 O2         -2.9425   -3.9069   -1.9901 O.2       1 <0>        -0.4403
     20 N2         -2.1190   -0.0612    1.2182 N.am      1 <0>        -0.6893
     21 C15        -2.7041    1.1529    1.2285 C.2       1 <0>         0.6538
     22 O3         -2.6628    1.8557    0.2381 O.2       1 <0>        -0.5648
     23 O4         -3.3343    1.5871    2.3362 O.3       1 <0>        -0.3574
     24 C16        -3.9321    2.8837    2.2764 C.3       1 <0>         0.1293
     25 C17        -4.5858    3.1969    3.5977 C.ar      1 <0>        -0.1011
     26 C18        -5.9050    2.8467    3.8163 C.ar      1 <0>        -0.0930
     27 C19        -6.5046    3.1340    5.0283 C.ar      1 <0>        -0.1232
     28 C20        -5.7848    3.7710    6.0217 C.ar      1 <0>        -0.1073
     29 C21        -4.4653    4.1204    5.8034 C.ar      1 <0>        -0.1236
     30 C22        -3.8644    3.8293    4.5930 C.ar      1 <0>        -0.0934
     31 H3          1.0039    1.9031    0.0027 H         1 <0>         0.0544
     32 H4         -0.5459    1.8868   -0.8726 H         1 <0>         0.0676
     33 H5         -0.5289    1.8773    0.9072 H         1 <0>         0.0542
     34 H6          0.5123   -0.3556   -0.8948 H         1 <0>         0.0847
     35 H7          0.2319   -0.1594    2.1383 H         1 <0>         0.0578
     36 H8          0.7568   -1.6008    1.2356 H         1 <0>         0.0552
     37 H9          1.7647   -0.1336    1.2338 H         1 <0>         0.0621
     38 H10        -0.4234   -2.2064   -1.7442 H         1 <0>         0.4047
     39 H11         0.3342   -5.7417   -1.9444 H         1 <0>         0.1008
     40 H12         0.3138   -4.2158   -2.8607 H         1 <0>         0.0856
     41 H13         1.7618   -2.3689   -2.2310 H         1 <0>         0.1178
     42 H14         3.8718   -1.6949   -1.1556 H         1 <0>         0.1221
     43 H15         4.9563   -3.1900    0.4727 H         1 <0>         0.1212
     44 H16         3.9302   -5.3588    1.0264 H         1 <0>         0.1224
     45 H17         1.8158   -6.0292   -0.0427 H         1 <0>         0.1232
     46 H18        -2.2617   -5.7460   -1.7020 H         1 <0>         0.1077
     47 H19        -2.1520   -0.6222    2.0088 H         1 <0>         0.4163
     48 H20        -3.1646    3.6283    2.0653 H         1 <0>         0.0787
     49 H21        -4.6828    2.9016    1.4864 H         1 <0>         0.0787
     50 H22        -6.4674    2.3490    3.0402 H         1 <0>         0.1249
     51 H23        -7.5355    2.8610    5.1989 H         1 <0>         0.1263
     52 H24        -6.2535    3.9961    6.9684 H         1 <0>         0.1252
     53 H25        -3.9031    4.6184    6.5795 H         1 <0>         0.1262
     54 H26        -2.8324    4.0989    4.4238 H         1 <0>         0.1246
@<TRIPOS>BOND
     1    1    2 1
     2    1   31 1
     3    1   32 1
     4    1   33 1
     5    2    3 1
     6    2    4 1
     7    2   34 1
     8    3   35 1
     9    3   36 1
    10    3   37 1
    11    4    5 1
    12    4    6 1
    13    4   20 1
    14    6    7 2
    15    6    8 am
    16    8    9 1
    17    8   38 1
    18    9   10 1
    19    9   11 1
    20    9   18 1
    21   11   12 1
    22   11   39 1
    23   11   40 1
    24   12   17 ar
    25   12   13 ar
    26   13   14 ar
    27   13   41 1
    28   14   15 ar
    29   14   42 1
    30   15   16 ar
    31   15   43 1
    32   16   17 ar
    33   16   44 1
    34   17   45 1
    35   18   19 2
    36   18   46 1
    37   20   21 am
    38   20   47 1
    39   21   22 2
    40   21   23 1
    41   23   24 1
    42   24   25 1
    43   24   48 1
    44   24   49 1
    45   25   30 ar
    46   25   26 ar
    47   26   27 ar
    48   26   50 1
    49   27   28 ar
    50   27   51 1
    51   28   29 ar
    52   28   52 1
    53   29   30 ar
    54   29   53 1
    55   30   54 1
@<TRIPOS>MOLECULE
ZINC01996112
   54    55     0     0     0
SMALL
USER_CHARGES

@<TRIPOS>ATOM
      1 C1         -0.0187    1.5258    0.0104 C.3       1 <0>        -0.1388
      2 C2          0.0021   -0.0041    0.0020 C.3       1 <0>        -0.1007
      3 C3          0.7421   -0.5109    1.2415 C.3       1 <0>        -0.1535
      4 C4         -1.4333   -0.5336    0.0129 C.3       1 <0>         0.1524
      5 H1         -1.9605   -0.1726   -0.8702 H         1 <0>         0.1187
      6 C5         -1.4129   -2.0405    0.0046 C.2       1 <0>         0.5248
      7 O1         -1.9211   -2.6589    0.9158 O.2       1 <0>        -0.5301
      8 N1         -0.8299   -2.7009   -1.0154 N.am      1 <0>        -0.7063
      9 C6         -0.8100   -4.1658   -1.0235 C.3       1 <0>         0.0832
     10 H2         -1.7322   -4.5441   -0.5824 H         1 <0>         0.1242
     11 C7         -0.6911   -4.6663   -2.4644 C.3       1 <0>        -0.0809
     12 C8         -1.9279   -4.2801   -3.2340 C.ar      1 <0>        -0.0874
     13 C9         -3.0158   -5.1323   -3.2666 C.ar      1 <0>        -0.1131
     14 C10        -4.1503   -4.7781   -3.9726 C.ar      1 <0>        -0.1162
     15 C11        -4.1970   -3.5714   -4.6455 C.ar      1 <0>        -0.1189
     16 C12        -3.1095   -2.7188   -4.6120 C.ar      1 <0>        -0.1162
     17 C13        -1.9766   -3.0712   -3.9026 C.ar      1 <0>        -0.1133
     18 C14         0.3683   -4.6566   -0.2224 C.2       1 <0>         0.3291
     19 O2          1.1145   -3.8645    0.3013 O.2       1 <0>        -0.4383
     20 N2         -2.1190   -0.0612    1.2182 N.am      1 <0>        -0.6893
     21 C15        -2.7041    1.1529    1.2285 C.2       1 <0>         0.6538
     22 O3         -2.6628    1.8557    0.2381 O.2       1 <0>        -0.5654
     23 O4         -3.3343    1.5871    2.3362 O.3       1 <0>        -0.3574
     24 C16        -3.9321    2.8837    2.2764 C.3       1 <0>         0.1295
     25 C17        -4.5858    3.1969    3.5977 C.ar      1 <0>        -0.1012
     26 C18        -5.9050    2.8467    3.8163 C.ar      1 <0>        -0.0931
     27 C19        -6.5046    3.1340    5.0283 C.ar      1 <0>        -0.1233
     28 C20        -5.7848    3.7710    6.0217 C.ar      1 <0>        -0.1072
     29 C21        -4.4653    4.1204    5.8034 C.ar      1 <0>        -0.1235
     30 C22        -3.8644    3.8293    4.5930 C.ar      1 <0>        -0.0932
     31 H3          1.0039    1.9031    0.0027 H         1 <0>         0.0544
     32 H4         -0.5459    1.8868   -0.8726 H         1 <0>         0.0668
     33 H5         -0.5289    1.8773    0.9072 H         1 <0>         0.0537
     34 H6          0.5123   -0.3556   -0.8948 H         1 <0>         0.0845
     35 H7          0.2319   -0.1594    2.1383 H         1 <0>         0.0554
     36 H8          0.7568   -1.6008    1.2356 H         1 <0>         0.0664
     37 H9          1.7647   -0.1336    1.2338 H         1 <0>         0.0605
     38 H10        -0.4234   -2.2064   -1.7442 H         1 <0>         0.4047
     39 H11         0.1840   -4.2172   -2.9340 H         1 <0>         0.0856
     40 H12        -0.5870   -5.7513   -2.4647 H         1 <0>         0.1008
     41 H13        -2.9793   -6.0750   -2.7409 H         1 <0>         0.1238
     42 H14        -5.0000   -5.4442   -3.9987 H         1 <0>         0.1231
     43 H15        -5.0831   -3.2950   -5.1976 H         1 <0>         0.1221
     44 H16        -3.1458   -1.7763   -5.1380 H         1 <0>         0.1231
     45 H17        -1.1283   -2.4034   -3.8734 H         1 <0>         0.1188
     46 H18         0.5454   -5.7167   -0.1165 H         1 <0>         0.1071
     47 H19        -2.1520   -0.6222    2.0088 H         1 <0>         0.4165
     48 H20        -3.1646    3.6283    2.0653 H         1 <0>         0.0787
     49 H21        -4.6828    2.9016    1.4864 H         1 <0>         0.0785
     50 H22        -6.4674    2.3490    3.0402 H         1 <0>         0.1247
     51 H23        -7.5355    2.8610    5.1989 H         1 <0>         0.1263
     52 H24        -6.2535    3.9961    6.9684 H         1 <0>         0.1252
     53 H25        -3.9031    4.6184    6.5795 H         1 <0>         0.1263
     54 H26        -2.8324    4.0989    4.4238 H         1 <0>         0.1247
@<TRIPOS>BOND
     1    1    2 1
     2    1   31 1
     3    1   32 1
     4    1   33 1
     5    2    3 1
     6    2    4 1
     7    2   34 1
     8    3   35 1
     9    3   36 1
    10    3   37 1
    11    4    5 1
    12    4    6 1
    13    4   20 1
    14    6    7 2
    15    6    8 am
    16    8    9 1
    17    8   38 1
    18    9   10 1
    19    9   11 1
    20    9   18 1
    21   11   12 1
    22   11   39 1
    23   11   40 1
    24   12   17 ar
    25   12   13 ar
    26   13   14 ar
    27   13   41 1
    28   14   15 ar
    29   14   42 1
    30   15   16 ar
    31   15   43 1
    32   16   17 ar
    33   16   44 1
    34   17   45 1
    35   18   19 2
    36   18   46 1
    37   20   21 am
    38   20   47 1
    39   21   22 2
    40   21   23 1
    41   23   24 1
    42   24   25 1
    43   24   48 1
    44   24   49 1
    45   25   30 ar
    46   25   26 ar
    47   26   27 ar
    48   26   50 1
    49   27   28 ar
    50   27   51 1
    51   28   29 ar
    52   28   52 1
    53   29   30 ar
    54   29   53 1
    55   30   54 1
