@<TRIPOS>MOLECULE
ZINC03813507
   59    61     0     0     0
SMALL
USER_CHARGES
benzyl [1-[[1-formyl-2-(4-hydroxyphenyl)-ethyl]carbamoyl]-2-phenyl-ethyl]aminoformate
@<TRIPOS>ATOM
      1 C1         -4.6442   -0.1623   -1.3844 C.ar      1 <0>        -0.1171
      2 C2         -4.4522    1.0367   -0.7239 C.ar      1 <0>        -0.1141
      3 C3         -3.1929    1.6046   -0.6743 C.ar      1 <0>        -0.1077
      4 C4         -2.1255    0.9734   -1.2852 C.ar      1 <0>        -0.0679
      5 C5         -2.3185   -0.2230   -1.9502 C.ar      1 <0>        -0.1037
      6 C6         -3.5769   -0.7935   -1.9953 C.ar      1 <0>        -0.1121
      7 C7         -0.7527    1.5927   -1.2315 C.3       1 <0>        -0.0892
      8 C8         -0.0127    1.0858    0.0080 C.3       1 <0>         0.1577
      9 H1          0.0021   -0.0041    0.0020 H         1 <0>         0.1206
     10 C9          1.4011    1.6074   -0.0027 C.2       1 <0>         0.5223
     11 O1          1.7969    2.3051    0.9069 O.2       1 <0>        -0.5264
     12 N1          2.2256    1.2986   -1.0231 N.am      1 <0>        -0.7086
     13 C10         3.6000    1.8057   -1.0335 C.3       1 <0>         0.0957
     14 H2          3.9501    1.8389   -0.0974 H         1 <0>         0.1108
     15 C11         4.4795    0.8781   -1.8743 C.3       1 <0>        -0.0817
     16 C12         4.5585   -0.4742   -1.2139 C.ar      1 <0>        -0.0977
     17 C13         5.5623   -0.7387   -0.3006 C.ar      1 <0>        -0.0947
     18 C14         5.6335   -1.9756    0.3104 C.ar      1 <0>        -0.1419
     19 C15         4.7034   -2.9566   -0.0016 C.ar      1 <0>         0.1076
     20 C16         3.7006   -2.6906   -0.9226 C.ar      1 <0>        -0.1418
     21 C17         3.6304   -1.4502   -1.5266 C.ar      1 <0>        -0.0954
     22 O2          4.7744   -4.1760    0.5942 O.3       1 <0>        -0.4996
     23 C18         3.6199    3.1909   -1.6267 C.2       1 <0>         0.3279
     24 O3          2.5921    3.7018   -2.0021 O.2       1 <0>        -0.4381
     25 N2         -0.6984    1.5583    1.2133 N.am      1 <0>        -0.6956
     26 C19        -1.7412    0.8645    1.7111 C.2       1 <0>         0.6520
     27 O4         -2.1126   -0.1528    1.1601 O.2       1 <0>        -0.5516
     28 O5         -2.3714    1.2987    2.8188 O.3       1 <0>        -0.3635
     29 C20        -3.4862    0.5014    3.2983 C.3       1 <0>         0.1336
     30 C21        -4.0624    1.1374    4.5371 C.ar      1 <0>        -0.1008
     31 C22        -3.5805    0.7839    5.7836 C.ar      1 <0>        -0.0932
     32 C23        -4.1058    1.3708    6.9196 C.ar      1 <0>        -0.1232
     33 C24        -5.1198    2.3038    6.8098 C.ar      1 <0>        -0.1074
     34 C25        -5.6056    2.6531    5.5636 C.ar      1 <0>        -0.1237
     35 C26        -5.0768    2.0701    4.4273 C.ar      1 <0>        -0.0928
     36 H3         -5.6282   -0.6058   -1.4235 H         1 <0>         0.1167
     37 H4         -5.2862    1.5300   -0.2469 H         1 <0>         0.1148
     38 H5         -3.0430    2.5415   -0.1585 H         1 <0>         0.1107
     39 H6         -1.4855   -0.7140   -2.4313 H         1 <0>         0.1157
     40 H7         -3.7269   -1.7301   -2.5117 H         1 <0>         0.1177
     41 H8         -0.8452    2.6775   -1.1811 H         1 <0>         0.0855
     42 H9         -0.1944    1.3168   -2.1261 H         1 <0>         0.0886
     43 H10         1.9090    0.7406   -1.7506 H         1 <0>         0.4051
     44 H11         4.0479    0.7718   -2.8696 H         1 <0>         0.0879
     45 H12         5.4805    1.3017   -1.9557 H         1 <0>         0.1027
     46 H13         6.2887    0.0239   -0.0613 H         1 <0>         0.1295
     47 H14         6.4151   -2.1803    1.0270 H         1 <0>         0.1301
     48 H15         2.9752   -3.4526   -1.1669 H         1 <0>         0.1301
     49 H16         2.8497   -1.2425   -2.2434 H         1 <0>         0.1243
     50 H17         5.3170   -4.8170    0.1149 H         1 <0>         0.3925
     51 H18         4.5534    3.7266   -1.7162 H         1 <0>         0.1090
     52 H19        -0.4019    2.3704    1.6532 H         1 <0>         0.4152
     53 H20        -4.2538    0.4487    2.5263 H         1 <0>         0.0806
     54 H21        -3.1386   -0.5043    3.5343 H         1 <0>         0.0790
     55 H22        -2.7911    0.0519    5.8696 H         1 <0>         0.1244
     56 H23        -3.7265    1.0976    7.8932 H         1 <0>         0.1261
     57 H24        -5.5328    2.7596    7.6975 H         1 <0>         0.1250
     58 H25        -6.3981    3.3818    5.4778 H         1 <0>         0.1260
     59 H26        -5.4563    2.3430    3.4537 H         1 <0>         0.1241
@<TRIPOS>BOND
     1    1    6 ar
     2    1    2 ar
     3    1   36 1
     4    2    3 ar
     5    2   37 1
     6    3    4 ar
     7    3   38 1
     8    4    5 ar
     9    4    7 1
    10    5    6 ar
    11    5   39 1
    12    6   40 1
    13    7    8 1
    14    7   41 1
    15    7   42 1
    16    8    9 1
    17    8   10 1
    18    8   25 1
    19   10   11 2
    20   10   12 am
    21   12   13 1
    22   12   43 1
    23   13   14 1
    24   13   15 1
    25   13   23 1
    26   15   16 1
    27   15   44 1
    28   15   45 1
    29   16   21 ar
    30   16   17 ar
    31   17   18 ar
    32   17   46 1
    33   18   19 ar
    34   18   47 1
    35   19   20 ar
    36   19   22 1
    37   20   21 ar
    38   20   48 1
    39   21   49 1
    40   22   50 1
    41   23   24 2
    42   23   51 1
    43   25   26 am
    44   25   52 1
    45   26   27 2
    46   26   28 1
    47   28   29 1
    48   29   30 1
    49   29   53 1
    50   29   54 1
    51   30   35 ar
    52   30   31 ar
    53   31   32 ar
    54   31   55 1
    55   32   33 ar
    56   32   56 1
    57   33   34 ar
    58   33   57 1
    59   34   35 ar
    60   34   58 1
    61   35   59 1
@<TRIPOS>MOLECULE
ZINC06070256
   51    53     0     0     0
SMALL
USER_CHARGES

@<TRIPOS>ATOM
      1 C1         -0.2587    1.2802    1.1676 C.3       1 <0>        -0.1175
      2 C2         -0.2190   -0.2129    0.9677 C.ar      1 <0>        -0.0689
      3 C3         -0.2256   -0.7370   -0.3133 C.ar      1 <0>        -0.0864
      4 C4         -0.1655   -2.0958   -0.5035 C.ar      1 <0>        -0.1225
      5 C5         -0.0427   -2.9502    0.6076 C.ar      1 <0>         0.0643
      6 C6         -0.0926   -2.4270    1.8857 C.ar      1 <0>         0.1161
      7 C7         -0.1704   -1.0532    2.0647 C.ar      1 <0>        -0.1204
      8 O1         -0.0607   -3.2551    2.9639 O.3       1 <0>        -0.4873
      9 O2          0.2621   -4.2547    0.3629 O.3       1 <0>        -0.2538
     10 C8         -0.6437   -4.9957   -0.3247 C.ar      1 <0>         0.1306
     11 C9         -1.7938   -5.4803    0.2686 C.ar      1 <0>        -0.1280
     12 C10        -2.6875   -6.2316   -0.4748 C.ar      1 <0>        -0.0594
     13 C11        -2.4469   -6.5068   -1.8084 C.ar      1 <0>        -0.1370
     14 C12        -1.2974   -6.0296   -2.4251 C.ar      1 <0>         0.1691
     15 C13        -0.3944   -5.2721   -1.6808 C.ar      1 <0>        -0.2078
     16 C14         0.8503   -4.7230   -2.2698 C.2       1 <0>         0.5393
     17 O3          1.7151   -5.4277   -2.7522 O.2       1 <0>        -0.4336
     18 O4          0.9468   -3.3571   -2.2267 O.3       1 <0>        -0.3204
     19 C15        -0.2957   -2.7221   -1.8702 C.3       1 <0>         0.0813
     20 O5         -1.0569   -6.2970   -3.7330 O.3       1 <0>        -0.3295
     21 C16        -0.3431   -7.4991   -4.0289 C.3       1 <0>         0.0309
     22 C17        -3.4359   -7.3272   -2.5959 C.3       1 <0>         0.1499
     23 H1         -2.9025   -7.9403   -3.3224 H         1 <0>         0.1165
     24 C18        -4.4035   -6.3950   -3.3278 C.3       1 <0>        -0.1405
     25 C19        -5.3585   -7.2248   -4.1882 C.3       1 <0>        -0.0930
     26 C20        -6.4039   -6.3049   -4.8220 C.3       1 <0>        -0.1485
     27 C21        -4.5675   -7.9331   -5.2899 C.3       1 <0>        -0.1504
     28 O6         -4.1691   -8.1719   -1.7066 O.3       1 <0>        -0.5486
     29 H2          0.7588    1.6705    1.1934 H         1 <0>         0.0781
     30 H3         -0.8043    1.7425    0.3450 H         1 <0>         0.0728
     31 H4         -0.7591    1.5077    2.1088 H         1 <0>         0.0723
     32 H5         -0.2786   -0.0757   -1.1655 H         1 <0>         0.1386
     33 H6         -0.1973   -0.6400    3.0622 H         1 <0>         0.1428
     34 H7          0.8303   -3.4433    3.2891 H         1 <0>         0.3961
     35 H8         -1.9946   -5.2737    1.3094 H         1 <0>         0.1493
     36 H9         -3.5853   -6.6077   -0.0070 H         1 <0>         0.1437
     37 H10        -1.0925   -3.4657   -1.8548 H         1 <0>         0.0979
     38 H11        -0.5327   -1.9504   -2.6026 H         1 <0>         0.1157
     39 H12        -0.1324   -7.5429   -5.0974 H         1 <0>         0.1038
     40 H13         0.5944   -7.5111   -3.4729 H         1 <0>         0.0631
     41 H14        -0.9468   -8.3601   -3.7420 H         1 <0>         0.0524
     42 H15        -4.9763   -5.8213   -2.5992 H         1 <0>         0.0680
     43 H16        -3.8397   -5.7135   -3.9648 H         1 <0>         0.0794
     44 H17        -5.8575   -7.9668   -3.5649 H         1 <0>         0.0780
     45 H18        -5.9049   -5.5629   -5.4453 H         1 <0>         0.0543
     46 H19        -7.0843   -6.8960   -5.4349 H         1 <0>         0.0565
     47 H20        -6.9674   -5.8003   -4.0371 H         1 <0>         0.0533
     48 H21        -5.2479   -8.5243   -5.9029 H         1 <0>         0.0557
     49 H22        -4.0685   -7.1911   -5.9132 H         1 <0>         0.0556
     50 H23        -3.8227   -8.5885   -4.8384 H         1 <0>         0.0545
     51 H24        -4.6691   -7.6928   -1.0317 H         1 <0>         0.3737
@<TRIPOS>BOND
     1    1    2 1
     2    1   29 1
     3    1   30 1
     4    1   31 1
     5    2    7 ar
     6    2    3 ar
     7    3    4 ar
     8    3   32 1
     9    4   19 1
    10    4    5 ar
    11    5    6 ar
    12    5    9 1
    13    6    7 ar
    14    6    8 1
    15    7   33 1
    16    8   34 1
    17    9   10 1
    18   10   15 ar
    19   10   11 ar
    20   11   12 ar
    21   11   35 1
    22   12   13 ar
    23   12   36 1
    24   13   14 ar
    25   13   22 1
    26   14   15 ar
    27   14   20 1
    28   15   16 1
    29   16   17 2
    30   16   18 1
    31   18   19 1
    32   19   37 1
    33   19   38 1
    34   20   21 1
    35   21   39 1
    36   21   40 1
    37   21   41 1
    38   22   23 1
    39   22   24 1
    40   22   28 1
    41   24   25 1
    42   24   42 1
    43   24   43 1
    44   25   26 1
    45   25   27 1
    46   25   44 1
    47   26   45 1
    48   26   46 1
    49   26   47 1
    50   27   48 1
    51   27   49 1
    52   27   50 1
    53   28   51 1
@<TRIPOS>MOLECULE
ZINC05706813
   59    61     0     0     0
SMALL
USER_CHARGES
2-(2-benzyloxycarbonylamino-3-phenyl-propanoyl)amino-3-(4-hydroxyphenyl)-propanoic acid
@<TRIPOS>ATOM
      1 C1         -4.6442   -0.1623   -1.3844 C.ar      1 <0>        -0.1240
      2 C2         -4.4522    1.0367   -0.7239 C.ar      1 <0>        -0.1160
      3 C3         -3.1929    1.6046   -0.6743 C.ar      1 <0>        -0.1083
      4 C4         -2.1255    0.9734   -1.2852 C.ar      1 <0>        -0.0567
      5 C5         -2.3185   -0.2230   -1.9502 C.ar      1 <0>        -0.1042
      6 C6         -3.5769   -0.7935   -1.9953 C.ar      1 <0>        -0.1139
      7 C7         -0.7527    1.5927   -1.2315 C.3       1 <0>        -0.0928
      8 C8         -0.0127    1.0858    0.0080 C.3       1 <0>         0.1584
      9 H1          0.0021   -0.0041    0.0020 H         1 <0>         0.1140
     10 C9          1.4011    1.6074   -0.0027 C.2       1 <0>         0.5162
     11 O1          1.7969    2.3051    0.9069 O.2       1 <0>        -0.5349
     12 N1          2.2256    1.2986   -1.0231 N.am      1 <0>        -0.6895
     13 C10         3.6000    1.8057   -1.0335 C.3       1 <0>         0.1102
     14 H2          3.9817    1.8419   -0.0131 H         1 <0>         0.0917
     15 C11         4.4795    0.8781   -1.8743 C.3       1 <0>        -0.0755
     16 C12         4.5585   -0.4742   -1.2139 C.ar      1 <0>        -0.0741
     17 C13         5.5623   -0.7387   -0.3006 C.ar      1 <0>        -0.0988
     18 C14         5.6335   -1.9756    0.3104 C.ar      1 <0>        -0.1412
     19 C15         4.7034   -2.9566   -0.0016 C.ar      1 <0>         0.0879
     20 C16         3.7006   -2.6906   -0.9226 C.ar      1 <0>        -0.1420
     21 C17         3.6304   -1.4502   -1.5266 C.ar      1 <0>        -0.1025
     22 O2          4.7744   -4.1760    0.5942 O.3       1 <0>        -0.5013
     23 C18         3.6199    3.1909   -1.6267 C.2       1 <0>         0.4598
     24 O3          2.5916    3.7020   -2.0023 O.co2     1 <0>        -0.6244
     25 N2         -0.6984    1.5583    1.2133 N.am      1 <0>        -0.6898
     26 C19        -1.7412    0.8645    1.7111 C.2       1 <0>         0.6509
     27 O4         -2.1126   -0.1528    1.1601 O.2       1 <0>        -0.5575
     28 O5         -2.3714    1.2987    2.8188 O.3       1 <0>        -0.3650
     29 C20        -3.4862    0.5014    3.2983 C.3       1 <0>         0.1323
     30 C21        -4.0624    1.1374    4.5371 C.ar      1 <0>        -0.0963
     31 C22        -3.5805    0.7839    5.7836 C.ar      1 <0>        -0.0933
     32 C23        -4.1058    1.3708    6.9196 C.ar      1 <0>        -0.1241
     33 C24        -5.1198    2.3038    6.8098 C.ar      1 <0>        -0.1106
     34 C25        -5.6056    2.6531    5.5636 C.ar      1 <0>        -0.1246
     35 C26        -5.0768    2.0701    4.4273 C.ar      1 <0>        -0.0928
     36 H3         -5.6282   -0.6058   -1.4235 H         1 <0>         0.1126
     37 H4         -5.2862    1.5300   -0.2469 H         1 <0>         0.1116
     38 H5         -3.0430    2.5415   -0.1585 H         1 <0>         0.1111
     39 H6         -1.4855   -0.7140   -2.4313 H         1 <0>         0.1168
     40 H7         -3.7269   -1.7301   -2.5117 H         1 <0>         0.1147
     41 H8         -0.8452    2.6775   -1.1811 H         1 <0>         0.0884
     42 H9         -0.1944    1.3168   -2.1261 H         1 <0>         0.0923
     43 H10         1.9090    0.7406   -1.7506 H         1 <0>         0.3919
     44 H11         4.0479    0.7718   -2.8696 H         1 <0>         0.0744
     45 H12         5.4805    1.3017   -1.9557 H         1 <0>         0.1004
     46 H13         6.2887    0.0239   -0.0613 H         1 <0>         0.1297
     47 H14         6.4151   -2.1803    1.0270 H         1 <0>         0.1250
     48 H15         2.9752   -3.4526   -1.1669 H         1 <0>         0.1247
     49 H16         2.8497   -1.2425   -2.2434 H         1 <0>         0.1232
     50 H17         5.3170   -4.8170    0.1149 H         1 <0>         0.3846
     51 H18        -0.4019    2.3704    1.6532 H         1 <0>         0.4159
     52 H19        -4.2538    0.4487    2.5263 H         1 <0>         0.0793
     53 H20        -3.1386   -0.5043    3.5343 H         1 <0>         0.0774
     54 H21        -2.7911    0.0519    5.8696 H         1 <0>         0.1248
     55 H22        -3.7265    1.0976    7.8932 H         1 <0>         0.1247
     56 H23        -5.5328    2.7596    7.6975 H         1 <0>         0.1230
     57 H24        -6.3981    3.3818    5.4778 H         1 <0>         0.1245
     58 H25        -5.4563    2.3430    3.4537 H         1 <0>         0.1246
     59 O6          4.7801    3.8568   -1.7379 O.co2     1 <0>        -0.7628
@<TRIPOS>BOND
     1    1    6 ar
     2    1    2 ar
     3    1   36 1
     4    2    3 ar
     5    2   37 1
     6    3    4 ar
     7    3   38 1
     8    4    5 ar
     9    4    7 1
    10    5    6 ar
    11    5   39 1
    12    6   40 1
    13    7    8 1
    14    7   41 1
    15    7   42 1
    16    8    9 1
    17    8   10 1
    18    8   25 1
    19   10   11 2
    20   10   12 am
    21   12   13 1
    22   12   43 1
    23   13   14 1
    24   13   15 1
    25   13   23 1
    26   15   16 1
    27   15   44 1
    28   15   45 1
    29   16   21 ar
    30   16   17 ar
    31   17   18 ar
    32   17   46 1
    33   18   19 ar
    34   18   47 1
    35   19   20 ar
    36   19   22 1
    37   20   21 ar
    38   20   48 1
    39   21   49 1
    40   22   50 1
    41   23   24 2
    42   23   59 1
    43   25   26 am
    44   25   51 1
    45   26   27 2
    46   26   28 1
    47   28   29 1
    48   29   30 1
    49   29   52 1
    50   29   53 1
    51   30   35 ar
    52   30   31 ar
    53   31   32 ar
    54   31   54 1
    55   32   33 ar
    56   32   55 1
    57   33   34 ar
    58   33   56 1
    59   34   35 ar
    60   34   57 1
    61   35   58 1
@<TRIPOS>MOLECULE
ZINC00006651
   19    19     0     0     0
SMALL
USER_CHARGES
3-(4-iodophenyl)-2-sulfanyl-prop-2-enoic acid
@<TRIPOS>ATOM
      1 C1         -2.5023    1.2653    0.0049 C.ar      1 <0>        -0.0522
      2 C2         -3.7252    1.9005   -0.0331 C.ar      1 <0>        -0.0949
      3 C3         -3.7900    3.2808   -0.1234 C.ar      1 <0>        -0.0924
      4 C4         -2.6289    4.0341   -0.1698 C.ar      1 <0>        -0.0981
      5 C5         -1.3985    3.4138   -0.1270 C.ar      1 <0>        -0.1098
      6 C6         -1.3248    2.0197   -0.0363 C.ar      1 <0>        -0.0482
      7 C7         -0.0163    1.3502    0.0095 C.3       1 <0>        -0.1049
      8 C8          0.1379    0.2131    0.7290 C.2       1 <0>         0.1432
      9 C9          1.3924   -0.5470    0.6420 C.2       1 <0>         0.4544
     10 O1          2.2919   -0.1553   -0.0759 O.co2     1 <0>        -0.6080
     11 S1         -1.1659   -0.3546    1.7695 S.2       1 <0>        -0.5032
     12 I1         -5.6541    4.2345   -0.1893 I         1 <0>        -0.0602
     13 H1         -2.4534    0.1884    0.0704 H         1 <0>         0.1550
     14 H2         -4.6351    1.3198    0.0030 H         1 <0>         0.1277
     15 H3         -2.6875    5.1102   -0.2402 H         1 <0>         0.1261
     16 H4         -0.4938    4.0026   -0.1636 H         1 <0>         0.1292
     17 H5          0.8207    1.7628   -0.5343 H         1 <0>         0.1717
     18 H6          0.5160    1.7108    0.7754 H         1 <0>         0.1420
     19 O2          1.5459   -1.6792    1.3584 O.co2     1 <0>        -0.6773
@<TRIPOS>BOND
     1    1    6 ar
     2    1    2 ar
     3    1   13 1
     4    2    3 ar
     5    2   14 1
     6    3    4 ar
     7    3   12 1
     8    4    5 ar
     9    4   15 1
    10    5    6 ar
    11    5   16 1
    12    6    7 1
    13    7   17 1
    14    7   18 1
    15    7    8 1
    16    8    9 1
    17    8   11 2
    18    9   10 2
    19    9   19 1
@<TRIPOS>MOLECULE
ZINC05608787
   58    60     0     0     0
SMALL
USER_CHARGES

@<TRIPOS>ATOM
      1 C1         -0.0167    1.3781    0.0096 C.ar      1 <0>        -0.1240
      2 C2          1.1709    2.0855    0.0021 C.ar      1 <0>        -0.1162
      3 C3          2.3773    1.4107   -0.0130 C.ar      1 <0>        -0.1087
      4 C4          2.3960    0.0285   -0.0201 C.ar      1 <0>        -0.0565
      5 C5          1.2084   -0.6789   -0.0117 C.ar      1 <0>        -0.1034
      6 C6          0.0021   -0.0041    0.0020 C.ar      1 <0>        -0.1141
      7 C7          3.7112   -0.7071   -0.0376 C.3       1 <0>        -0.0941
      8 C8          4.1714   -0.9633    1.3989 C.3       1 <0>         0.1584
      9 H1          3.3868   -1.4885    1.9436 H         1 <0>         0.1141
     10 C9          5.4216   -1.8045    1.3834 C.2       1 <0>         0.5088
     11 O1          6.4455   -1.3782    1.8741 O.2       1 <0>        -0.5370
     12 N1          5.4019   -3.0307    0.8243 N.am      1 <0>        -0.6828
     13 C10         6.6173   -3.8485    0.8092 C.3       1 <0>         0.0855
     14 H2          7.1849   -3.6726    1.7230 H         1 <0>         0.0848
     15 C11         6.2357   -5.3276    0.7225 C.3       1 <0>        -0.0782
     16 C12         5.4995   -5.7306    1.9741 C.ar      1 <0>        -0.0661
     17 C13         6.2011   -6.2083    3.0652 C.ar      1 <0>        -0.1165
     18 C14         5.5258   -6.5781    4.2133 C.ar      1 <0>        -0.1186
     19 C15         4.1489   -6.4696    4.2705 C.ar      1 <0>        -0.1337
     20 C16         3.4474   -5.9911    3.1798 C.ar      1 <0>        -0.1194
     21 C17         4.1231   -5.6173    2.0332 C.ar      1 <0>        -0.1181
     22 C18         7.4587   -3.4760   -0.3843 C.2       1 <0>         0.4929
     23 O2          8.6721   -3.5819   -0.3316 O.co2     1 <0>        -0.6903
     24 O3          6.9259   -3.0686   -1.4025 O.co2     1 <0>        -0.6868
     25 N2          4.4511    0.3151    2.0574 N.am      1 <0>        -0.6890
     26 C19         3.4510    1.0070    2.6383 C.2       1 <0>         0.6506
     27 O4          2.3172    0.5705    2.6158 O.2       1 <0>        -0.5563
     28 O5          3.7080    2.1819    3.2434 O.3       1 <0>        -0.3605
     29 C20         2.6005    2.8613    3.8383 C.3       1 <0>         0.1309
     30 C21         3.0768    4.1475    4.4628 C.ar      1 <0>        -0.0954
     31 C22         3.5015    4.1614    5.7782 C.ar      1 <0>        -0.0936
     32 C23         3.9383    5.3412    6.3510 C.ar      1 <0>        -0.1241
     33 C24         3.9509    6.5070    5.6083 C.ar      1 <0>        -0.1110
     34 C25         3.5271    6.4929    4.2926 C.ar      1 <0>        -0.1245
     35 C26         3.0943    5.3123    3.7185 C.ar      1 <0>        -0.0931
     36 H3         -0.9591    1.9053    0.0259 H         1 <0>         0.1126
     37 H4          1.1563    3.1654    0.0076 H         1 <0>         0.1116
     38 H5          3.3051    1.9634   -0.0196 H         1 <0>         0.1109
     39 H6          1.2231   -1.7588   -0.0176 H         1 <0>         0.1172
     40 H7         -0.9258   -0.5567    0.0082 H         1 <0>         0.1148
     41 H8          3.5884   -1.6586   -0.5549 H         1 <0>         0.0945
     42 H9          4.4573   -0.1052   -0.5563 H         1 <0>         0.0870
     43 H10         4.5830   -3.3717    0.4319 H         1 <0>         0.3924
     44 H11         5.5938   -5.4870   -0.1439 H         1 <0>         0.0772
     45 H12         7.1383   -5.9304    0.6219 H         1 <0>         0.0886
     46 H13         7.2769   -6.2931    3.0205 H         1 <0>         0.1226
     47 H14         6.0739   -6.9520    5.0655 H         1 <0>         0.1176
     48 H15         3.6212   -6.7592    5.1672 H         1 <0>         0.1155
     49 H16         2.3716   -5.9067    3.2243 H         1 <0>         0.1176
     50 H17         3.5753   -5.2399    1.1823 H         1 <0>         0.1181
     51 H18         5.3562    0.6636    2.0753 H         1 <0>         0.4160
     52 H19         1.8565    3.0827    3.0731 H         1 <0>         0.0766
     53 H20         2.1553    2.2280    4.6055 H         1 <0>         0.0744
     54 H21         3.4916    3.2506    6.3585 H         1 <0>         0.1246
     55 H22         4.2695    5.3522    7.3789 H         1 <0>         0.1245
     56 H23         4.2916    7.4289    6.0561 H         1 <0>         0.1229
     57 H24         3.5366    7.4038    3.7124 H         1 <0>         0.1245
     58 H25         2.7666    5.3005    2.6894 H         1 <0>         0.1245
@<TRIPOS>BOND
     1    1    6 ar
     2    1    2 ar
     3    1   36 1
     4    2    3 ar
     5    2   37 1
     6    3    4 ar
     7    3   38 1
     8    4    5 ar
     9    4    7 1
    10    5    6 ar
    11    5   39 1
    12    6   40 1
    13    7    8 1
    14    7   41 1
    15    7   42 1
    16    8    9 1
    17    8   10 1
    18    8   25 1
    19   10   11 2
    20   10   12 am
    21   12   13 1
    22   12   43 1
    23   13   14 1
    24   13   15 1
    25   13   22 1
    26   15   16 1
    27   15   44 1
    28   15   45 1
    29   16   21 ar
    30   16   17 ar
    31   17   18 ar
    32   17   46 1
    33   18   19 ar
    34   18   47 1
    35   19   20 ar
    36   19   48 1
    37   20   21 ar
    38   20   49 1
    39   21   50 1
    40   22   23 2
    41   22   24 1
    42   25   26 am
    43   25   51 1
    44   26   27 2
    45   26   28 1
    46   28   29 1
    47   29   30 1
    48   29   52 1
    49   29   53 1
    50   30   35 ar
    51   30   31 ar
    52   31   32 ar
    53   31   54 1
    54   32   33 ar
    55   32   55 1
    56   33   34 ar
    57   33   56 1
    58   34   35 ar
    59   34   57 1
    60   35   58 1
@<TRIPOS>MOLECULE
ZINC00018551
   33    34     0     0     0
SMALL
USER_CHARGES
6-benzyl-3-isopropyl-1H-pyrazin-2-one
@<TRIPOS>ATOM
      1 C1         -3.7930    1.7592    5.1008 C.3       1 <0>        -0.1335
      2 C2         -2.7515    2.8119    4.7158 C.3       1 <0>        -0.0269
      3 C3         -1.7503    2.9812    5.8603 C.3       1 <0>        -0.1457
      4 C4         -2.0237    2.3675    3.4733 C.2       1 <0>         0.0657
      5 C5         -1.0819    3.2246    2.8592 C.2       1 <0>         0.4845
      6 O1         -0.8512    4.3269    3.3278 O.2       1 <0>        -0.5259
      7 N1         -0.4369    2.8034    1.7499 N.am      1 <0>        -0.5915
      8 H1          0.2389    3.3900    1.3035 H         1 <0>         0.4224
      9 C6         -0.7181    1.5718    1.2479 C.2       1 <0>         0.1291
     10 C7         -1.6281    0.7777    1.8642 C.2       1 <0>        -0.0399
     11 N2         -2.2619    1.1860    2.9601 N.2       1 <0>        -0.3879
     12 C8         -0.0127    1.0858    0.0080 C.3       1 <0>        -0.0472
     13 C9         -0.7416    1.5850   -1.2129 C.ar      1 <0>        -0.0939
     14 C10        -1.7499    0.8246   -1.7750 C.ar      1 <0>        -0.1061
     15 C11        -2.4217    1.2848   -2.8921 C.ar      1 <0>        -0.1158
     16 C12        -2.0785    2.5007   -3.4529 C.ar      1 <0>        -0.1149
     17 C13        -1.0663    3.2585   -2.8942 C.ar      1 <0>        -0.1163
     18 C14        -0.3980    2.8008   -1.7740 C.ar      1 <0>        -0.1154
     19 H2         -3.2952    0.8085    5.2917 H         1 <0>         0.0622
     20 H3         -4.3194    2.0806    5.9995 H         1 <0>         0.0574
     21 H4         -4.5062    1.6386    4.2854 H         1 <0>         0.0580
     22 H5         -3.2493    3.7626    4.5249 H         1 <0>         0.0916
     23 H6         -1.0084    3.7311    5.5861 H         1 <0>         0.0668
     24 H7         -2.2768    3.3026    6.7590 H         1 <0>         0.0660
     25 H8         -1.2526    2.0305    6.0512 H         1 <0>         0.0535
     26 H9         -1.8413   -0.2007    1.4595 H         1 <0>         0.1726
     27 H10         0.0021   -0.0041    0.0020 H         1 <0>         0.1124
     28 H11         1.0099    1.4631    0.0003 H         1 <0>         0.0960
     29 H12        -2.0153   -0.1273   -1.3392 H         1 <0>         0.1268
     30 H13        -3.2122    0.6925   -3.3288 H         1 <0>         0.1263
     31 H14        -2.6009    2.8585   -4.3278 H         1 <0>         0.1247
     32 H15        -0.7979    4.2083   -3.3326 H         1 <0>         0.1250
     33 H16         0.3927    3.3928   -1.3375 H         1 <0>         0.1199
@<TRIPOS>BOND
     1    1    2 1
     2    1   19 1
     3    1   20 1
     4    1   21 1
     5    2    3 1
     6    2    4 1
     7    2   22 1
     8    3   23 1
     9    3   24 1
    10    3   25 1
    11    4   11 2
    12    4    5 1
    13    5    6 2
    14    5    7 am
    15    7    8 1
    16    7    9 1
    17    9   10 2
    18    9   12 1
    19   10   11 1
    20   10   26 1
    21   12   13 1
    22   12   27 1
    23   12   28 1
    24   13   18 ar
    25   13   14 ar
    26   14   15 ar
    27   14   29 1
    28   15   16 ar
    29   15   30 1
    30   16   17 ar
    31   16   31 1
    32   17   18 ar
    33   17   32 1
    34   18   33 1
@<TRIPOS>MOLECULE
ZINC01534489
   54    55     0     0     0
SMALL
USER_CHARGES

@<TRIPOS>ATOM
      1 C1         -0.0187    1.5258    0.0104 C.3       1 <0>        -0.1390
      2 C2          0.0021   -0.0041    0.0020 C.3       1 <0>        -0.1008
      3 C3          0.7421   -0.5109    1.2415 C.3       1 <0>        -0.1480
      4 C4         -1.4333   -0.5336    0.0129 C.3       1 <0>         0.1516
      5 H1         -1.9605   -0.1726   -0.8702 H         1 <0>         0.1198
      6 C5         -1.4129   -2.0405    0.0046 C.2       1 <0>         0.5252
      7 O1         -1.9211   -2.6589    0.9158 O.2       1 <0>        -0.5300
      8 N1         -0.8299   -2.7009   -1.0154 N.am      1 <0>        -0.7064
      9 C6         -0.8100   -4.1658   -1.0235 C.3       1 <0>         0.0836
     10 H2         -0.7057   -4.5333   -0.0026 H         1 <0>         0.1247
     11 C7          0.3705   -4.6552   -1.8648 C.3       1 <0>        -0.0815
     12 C8          1.6618   -4.2426   -1.2065 C.ar      1 <0>        -0.0862
     13 C9          2.2373   -3.0246   -1.5166 C.ar      1 <0>        -0.1116
     14 C10         3.4218   -2.6461   -0.9128 C.ar      1 <0>        -0.1146
     15 C11         4.0305   -3.4854    0.0015 C.ar      1 <0>        -0.1185
     16 C12         3.4545   -4.7030    0.3123 C.ar      1 <0>        -0.1159
     17 C13         2.2678   -5.0796   -0.2883 C.ar      1 <0>        -0.1128
     18 C14        -2.0964   -4.6824   -1.6145 C.2       1 <0>         0.3287
     19 O2         -2.9425   -3.9069   -1.9901 O.2       1 <0>        -0.4403
     20 N2         -2.1190   -0.0612    1.2182 N.am      1 <0>        -0.6893
     21 C15        -2.7041    1.1529    1.2285 C.2       1 <0>         0.6538
     22 O3         -2.6628    1.8557    0.2381 O.2       1 <0>        -0.5648
     23 O4         -3.3343    1.5871    2.3362 O.3       1 <0>        -0.3574
     24 C16        -3.9321    2.8837    2.2764 C.3       1 <0>         0.1293
     25 C17        -4.5858    3.1969    3.5977 C.ar      1 <0>        -0.1011
     26 C18        -5.9050    2.8467    3.8163 C.ar      1 <0>        -0.0930
     27 C19        -6.5046    3.1340    5.0283 C.ar      1 <0>        -0.1232
     28 C20        -5.7848    3.7710    6.0217 C.ar      1 <0>        -0.1073
     29 C21        -4.4653    4.1204    5.8034 C.ar      1 <0>        -0.1236
     30 C22        -3.8644    3.8293    4.5930 C.ar      1 <0>        -0.0934
     31 H3          1.0039    1.9031    0.0027 H         1 <0>         0.0544
     32 H4         -0.5459    1.8868   -0.8726 H         1 <0>         0.0676
     33 H5         -0.5289    1.8773    0.9072 H         1 <0>         0.0542
     34 H6          0.5123   -0.3556   -0.8948 H         1 <0>         0.0847
     35 H7          0.2319   -0.1594    2.1383 H         1 <0>         0.0578
     36 H8          0.7568   -1.6008    1.2356 H         1 <0>         0.0552
     37 H9          1.7647   -0.1336    1.2338 H         1 <0>         0.0621
     38 H10        -0.4234   -2.2064   -1.7442 H         1 <0>         0.4047
     39 H11         0.3342   -5.7417   -1.9444 H         1 <0>         0.1008
     40 H12         0.3138   -4.2158   -2.8607 H         1 <0>         0.0856
     41 H13         1.7618   -2.3689   -2.2310 H         1 <0>         0.1178
     42 H14         3.8718   -1.6949   -1.1556 H         1 <0>         0.1221
     43 H15         4.9563   -3.1900    0.4727 H         1 <0>         0.1212
     44 H16         3.9302   -5.3588    1.0264 H         1 <0>         0.1224
     45 H17         1.8158   -6.0292   -0.0427 H         1 <0>         0.1232
     46 H18        -2.2617   -5.7460   -1.7020 H         1 <0>         0.1077
     47 H19        -2.1520   -0.6222    2.0088 H         1 <0>         0.4163
     48 H20        -3.1646    3.6283    2.0653 H         1 <0>         0.0787
     49 H21        -4.6828    2.9016    1.4864 H         1 <0>         0.0787
     50 H22        -6.4674    2.3490    3.0402 H         1 <0>         0.1249
     51 H23        -7.5355    2.8610    5.1989 H         1 <0>         0.1263
     52 H24        -6.2535    3.9961    6.9684 H         1 <0>         0.1252
     53 H25        -3.9031    4.6184    6.5795 H         1 <0>         0.1262
     54 H26        -2.8324    4.0989    4.4238 H         1 <0>         0.1246
@<TRIPOS>BOND
     1    1    2 1
     2    1   31 1
     3    1   32 1
     4    1   33 1
     5    2    3 1
     6    2    4 1
     7    2   34 1
     8    3   35 1
     9    3   36 1
    10    3   37 1
    11    4    5 1
    12    4    6 1
    13    4   20 1
    14    6    7 2
    15    6    8 am
    16    8    9 1
    17    8   38 1
    18    9   10 1
    19    9   11 1
    20    9   18 1
    21   11   12 1
    22   11   39 1
    23   11   40 1
    24   12   17 ar
    25   12   13 ar
    26   13   14 ar
    27   13   41 1
    28   14   15 ar
    29   14   42 1
    30   15   16 ar
    31   15   43 1
    32   16   17 ar
    33   16   44 1
    34   17   45 1
    35   18   19 2
    36   18   46 1
    37   20   21 am
    38   20   47 1
    39   21   22 2
    40   21   23 1
    41   23   24 1
    42   24   25 1
    43   24   48 1
    44   24   49 1
    45   25   30 ar
    46   25   26 ar
    47   26   27 ar
    48   26   50 1
    49   27   28 ar
    50   27   51 1
    51   28   29 ar
    52   28   52 1
    53   29   30 ar
    54   29   53 1
    55   30   54 1
@<TRIPOS>MOLECULE
ZINC01996112
   54    55     0     0     0
SMALL
USER_CHARGES

@<TRIPOS>ATOM
      1 C1         -0.0187    1.5258    0.0104 C.3       1 <0>        -0.1388
      2 C2          0.0021   -0.0041    0.0020 C.3       1 <0>        -0.1007
      3 C3          0.7421   -0.5109    1.2415 C.3       1 <0>        -0.1535
      4 C4         -1.4333   -0.5336    0.0129 C.3       1 <0>         0.1524
      5 H1         -1.9605   -0.1726   -0.8702 H         1 <0>         0.1187
      6 C5         -1.4129   -2.0405    0.0046 C.2       1 <0>         0.5248
      7 O1         -1.9211   -2.6589    0.9158 O.2       1 <0>        -0.5301
      8 N1         -0.8299   -2.7009   -1.0154 N.am      1 <0>        -0.7063
      9 C6         -0.8100   -4.1658   -1.0235 C.3       1 <0>         0.0832
     10 H2         -1.7322   -4.5441   -0.5824 H         1 <0>         0.1242
     11 C7         -0.6911   -4.6663   -2.4644 C.3       1 <0>        -0.0809
     12 C8         -1.9279   -4.2801   -3.2340 C.ar      1 <0>        -0.0874
     13 C9         -3.0158   -5.1323   -3.2666 C.ar      1 <0>        -0.1131
     14 C10        -4.1503   -4.7781   -3.9726 C.ar      1 <0>        -0.1162
     15 C11        -4.1970   -3.5714   -4.6455 C.ar      1 <0>        -0.1189
     16 C12        -3.1095   -2.7188   -4.6120 C.ar      1 <0>        -0.1162
     17 C13        -1.9766   -3.0712   -3.9026 C.ar      1 <0>        -0.1133
     18 C14         0.3683   -4.6566   -0.2224 C.2       1 <0>         0.3291
     19 O2          1.1145   -3.8645    0.3013 O.2       1 <0>        -0.4383
     20 N2         -2.1190   -0.0612    1.2182 N.am      1 <0>        -0.6893
     21 C15        -2.7041    1.1529    1.2285 C.2       1 <0>         0.6538
     22 O3         -2.6628    1.8557    0.2381 O.2       1 <0>        -0.5654
     23 O4         -3.3343    1.5871    2.3362 O.3       1 <0>        -0.3574
     24 C16        -3.9321    2.8837    2.2764 C.3       1 <0>         0.1295
     25 C17        -4.5858    3.1969    3.5977 C.ar      1 <0>        -0.1012
     26 C18        -5.9050    2.8467    3.8163 C.ar      1 <0>        -0.0931
     27 C19        -6.5046    3.1340    5.0283 C.ar      1 <0>        -0.1233
     28 C20        -5.7848    3.7710    6.0217 C.ar      1 <0>        -0.1072
     29 C21        -4.4653    4.1204    5.8034 C.ar      1 <0>        -0.1235
     30 C22        -3.8644    3.8293    4.5930 C.ar      1 <0>        -0.0932
     31 H3          1.0039    1.9031    0.0027 H         1 <0>         0.0544
     32 H4         -0.5459    1.8868   -0.8726 H         1 <0>         0.0668
     33 H5         -0.5289    1.8773    0.9072 H         1 <0>         0.0537
     34 H6          0.5123   -0.3556   -0.8948 H         1 <0>         0.0845
     35 H7          0.2319   -0.1594    2.1383 H         1 <0>         0.0554
     36 H8          0.7568   -1.6008    1.2356 H         1 <0>         0.0664
     37 H9          1.7647   -0.1336    1.2338 H         1 <0>         0.0605
     38 H10        -0.4234   -2.2064   -1.7442 H         1 <0>         0.4047
     39 H11         0.1840   -4.2172   -2.9340 H         1 <0>         0.0856
     40 H12        -0.5870   -5.7513   -2.4647 H         1 <0>         0.1008
     41 H13        -2.9793   -6.0750   -2.7409 H         1 <0>         0.1238
     42 H14        -5.0000   -5.4442   -3.9987 H         1 <0>         0.1231
     43 H15        -5.0831   -3.2950   -5.1976 H         1 <0>         0.1221
     44 H16        -3.1458   -1.7763   -5.1380 H         1 <0>         0.1231
     45 H17        -1.1283   -2.4034   -3.8734 H         1 <0>         0.1188
     46 H18         0.5454   -5.7167   -0.1165 H         1 <0>         0.1071
     47 H19        -2.1520   -0.6222    2.0088 H         1 <0>         0.4165
     48 H20        -3.1646    3.6283    2.0653 H         1 <0>         0.0787
     49 H21        -4.6828    2.9016    1.4864 H         1 <0>         0.0785
     50 H22        -6.4674    2.3490    3.0402 H         1 <0>         0.1247
     51 H23        -7.5355    2.8610    5.1989 H         1 <0>         0.1263
     52 H24        -6.2535    3.9961    6.9684 H         1 <0>         0.1252
     53 H25        -3.9031    4.6184    6.5795 H         1 <0>         0.1263
     54 H26        -2.8324    4.0989    4.4238 H         1 <0>         0.1247
@<TRIPOS>BOND
     1    1    2 1
     2    1   31 1
     3    1   32 1
     4    1   33 1
     5    2    3 1
     6    2    4 1
     7    2   34 1
     8    3   35 1
     9    3   36 1
    10    3   37 1
    11    4    5 1
    12    4    6 1
    13    4   20 1
    14    6    7 2
    15    6    8 am
    16    8    9 1
    17    8   38 1
    18    9   10 1
    19    9   11 1
    20    9   18 1
    21   11   12 1
    22   11   39 1
    23   11   40 1
    24   12   17 ar
    25   12   13 ar
    26   13   14 ar
    27   13   41 1
    28   14   15 ar
    29   14   42 1
    30   15   16 ar
    31   15   43 1
    32   16   17 ar
    33   16   44 1
    34   17   45 1
    35   18   19 2
    36   18   46 1
    37   20   21 am
    38   20   47 1
    39   21   22 2
    40   21   23 1
    41   23   24 1
    42   24   25 1
    43   24   48 1
    44   24   49 1
    45   25   30 ar
    46   25   26 ar
    47   26   27 ar
    48   26   50 1
    49   27   28 ar
    50   27   51 1
    51   28   29 ar
    52   28   52 1
    53   29   30 ar
    54   29   53 1
    55   30   54 1
