@<TRIPOS>MOLECULE
ZINC01544687
   50    50     0     0     0
SMALL
USER_CHARGES

@<TRIPOS>ATOM
      1 C1         -1.1732    1.0687    3.0917 C.3       1 <0>        -0.1494
      2 C2          0.2326    0.9205    2.5062 C.3       1 <0>        -0.0936
      3 C3          1.1241    0.1764    3.5025 C.3       1 <0>        -0.1526
      4 C4          0.1595    0.1302    1.1981 C.3       1 <0>        -0.1173
      5 C5          1.5400    0.1066    0.5388 C.3       1 <0>         0.0743
      6 H1          2.2670   -0.3149    1.2329 H         1 <0>         0.1250
      7 C6          1.4869   -0.7387   -0.7077 C.2       1 <0>         0.3275
      8 O1          1.7526   -0.2507   -1.7799 O.2       1 <0>        -0.4413
      9 N1          1.9362    1.4722    0.1863 N.am      1 <0>        -0.7132
     10 C7          3.2417    1.7871    0.0728 C.2       1 <0>         0.5111
     11 O2          4.0900    0.9741    0.3736 O.2       1 <0>        -0.5218
     12 C8          3.6476    3.1494   -0.4277 C.3       1 <0>         0.1431
     13 H2          3.0085    3.9078    0.0244 H         1 <0>         0.1095
     14 C9          3.4991    3.1986   -1.9497 C.3       1 <0>        -0.0914
     15 C10         3.8739    4.5937   -2.4539 C.3       1 <0>        -0.1497
     16 C11         4.4252    2.1604   -2.5863 C.3       1 <0>        -0.1500
     17 N2          5.0433    3.4072   -0.0647 N.pl3     1 <0>        -1.0910
     18 S1          5.4150    4.6496    0.9651 S.o2      1 <0>         2.6929
     19 O3          6.8219    4.6079    1.1607 O.2       1 <0>        -0.9488
     20 O4          4.7488    5.8022    0.4681 O.2       1 <0>        -0.9451
     21 C12         4.6789    4.2744    2.5214 C.ar      1 <0>        -0.6946
     22 C13         3.3915    4.6966    2.7962 C.ar      1 <0>         0.0038
     23 C14         2.8130    4.4025    4.0163 C.ar      1 <0>        -0.1732
     24 C15         3.5232    3.6847    4.9636 C.ar      1 <0>         0.1599
     25 C16         4.8125    3.2623    4.6872 C.ar      1 <0>        -0.1728
     26 C17         5.3871    3.5531    3.4644 C.ar      1 <0>         0.0186
     27 F1          2.9588    3.3969    6.1569 F         1 <0>        -0.1276
     28 H3         -1.7849    1.6711    2.4200 H         1 <0>         0.0557
     29 H4         -1.6241    0.0832    3.2081 H         1 <0>         0.0572
     30 H5         -1.1121    1.5575    4.0640 H         1 <0>         0.0572
     31 H6          0.6510    1.9079    2.3113 H         1 <0>         0.0718
     32 H7          0.7057   -0.8110    3.6974 H         1 <0>         0.0582
     33 H8          2.1256    0.0708    3.0854 H         1 <0>         0.0560
     34 H9          1.1761    0.7394    4.4344 H         1 <0>         0.0553
     35 H10        -0.1605   -0.8905    1.4076 H         1 <0>         0.0897
     36 H11        -0.5559    0.6047    0.5264 H         1 <0>         0.0759
     37 H12         1.2113   -1.7808   -0.6421 H         1 <0>         0.1035
     38 H13         1.2589    2.1499    0.0345 H         1 <0>         0.4042
     39 H14         2.4665    2.9794   -2.2213 H         1 <0>         0.0899
     40 H15         4.9350    4.7706   -2.2782 H         1 <0>         0.0584
     41 H16         3.6660    4.6621   -3.5217 H         1 <0>         0.0631
     42 H17         3.2876    5.3422   -1.9209 H         1 <0>         0.0663
     43 H18         4.1145    1.1610   -2.2818 H         1 <0>         0.0614
     44 H19         4.3715    2.2426   -3.6719 H         1 <0>         0.0629
     45 H20         5.4496    2.3379   -2.2588 H         1 <0>         0.0573
     46 H21         5.7496    2.8501   -0.4275 H         1 <0>         0.4280
     47 H22         2.8378    5.2568    2.0573 H         1 <0>         0.1496
     48 H23         1.8073    4.7327    4.2309 H         1 <0>         0.1471
     49 H24         5.3676    2.7026    5.4255 H         1 <0>         0.1477
     50 H25         6.3911    3.2199    3.2469 H         1 <0>         0.1513
@<TRIPOS>BOND
     1    1    2 1
     2    1   28 1
     3    1   29 1
     4    1   30 1
     5    2    3 1
     6    2    4 1
     7    2   31 1
     8    3   32 1
     9    3   33 1
    10    3   34 1
    11    4    5 1
    12    4   35 1
    13    4   36 1
    14    5    6 1
    15    5    7 1
    16    5    9 1
    17    7    8 2
    18    7   37 1
    19    9   10 am
    20    9   38 1
    21   10   11 2
    22   10   12 1
    23   12   13 1
    24   12   14 1
    25   12   17 1
    26   14   15 1
    27   14   16 1
    28   14   39 1
    29   15   40 1
    30   15   41 1
    31   15   42 1
    32   16   43 1
    33   16   44 1
    34   16   45 1
    35   17   18 1
    36   17   46 1
    37   18   19 2
    38   18   20 2
    39   18   21 1
    40   21   26 ar
    41   21   22 ar
    42   22   23 ar
    43   22   47 1
    44   23   24 ar
    45   23   48 1
    46   24   25 ar
    47   24   27 1
    48   25   26 ar
    49   25   49 1
    50   26   50 1
