@<TRIPOS>MOLECULE
ZINC13536503
   81    80     0     0     0
SMALL
USER_CHARGES
ethyl (3S,4S)-3-hydroxy-6-methyl-4-[[(2S)-3-methyl-2-[[(2S)-3-methyl-2-(3-methylbutanoylamino)butanoyl]amino]butanoyl]amino]heptanoate
@<TRIPOS>ATOM
      1 C1         -1.4226    1.0845  -10.9292 C.3       1 <0>        -0.1539
      2 C2         -0.4393    0.9897   -9.7608 C.3       1 <0>         0.0626
      3 O1         -1.1573    1.1537   -8.5094 O.3       1 <0>        -0.3617
      4 C3         -0.4344    1.0961   -7.3800 C.2       1 <0>         0.4589
      5 O2          0.7589    0.9148   -7.4351 O.2       1 <0>        -0.4890
      6 C4         -1.1110    1.2577   -6.0431 C.3       1 <0>        -0.1493
      7 C5         -0.0689    1.1517   -4.9279 C.3       1 <0>         0.1140
      8 H1          0.7258    1.8767   -5.1032 H         1 <0>         0.1242
      9 C6         -0.7334    1.4392   -3.5801 C.3       1 <0>         0.1131
     10 H2         -1.1543    2.4446   -3.5896 H         1 <0>         0.1069
     11 C7          0.3087    1.3332   -2.4648 C.3       1 <0>        -0.1206
     12 C8         -0.3255    1.7417   -1.1337 C.3       1 <0>        -0.0915
     13 C9         -0.7132    3.2208   -1.1861 C.3       1 <0>        -0.1399
     14 C10         0.6779    1.5173   -0.0006 C.3       1 <0>        -0.1489
     15 N1         -1.8016    0.4647   -3.3445 N.am      1 <0>        -0.7226
     16 C11        -2.8299    0.7756   -2.5306 C.2       1 <0>         0.5169
     17 O3         -2.8709    1.8621   -1.9933 O.2       1 <0>        -0.5127
     18 C12        -3.9288   -0.2268   -2.2883 C.3       1 <0>         0.1328
     19 H3         -3.5064   -1.1291   -1.8460 H         1 <0>         0.1142
     20 C13        -4.6018   -0.5770   -3.6169 C.3       1 <0>        -0.1005
     21 C14        -5.7174   -1.5947   -3.3709 C.3       1 <0>        -0.1381
     22 C15        -5.1946    0.6895   -4.2377 C.3       1 <0>        -0.1505
     23 N2         -4.9202    0.3467   -1.3749 N.am      1 <0>        -0.7041
     24 C16        -5.6914   -0.4631   -0.6226 C.2       1 <0>         0.5201
     25 O4         -5.6277   -1.6658   -0.7656 O.2       1 <0>        -0.5260
     26 C17        -6.6329    0.1257    0.3962 C.3       1 <0>         0.1353
     27 H4         -7.1248    1.0015   -0.0271 H         1 <0>         0.1094
     28 C18        -5.8448    0.5358    1.6419 C.3       1 <0>        -0.0988
     29 C19        -6.7890    1.1968    2.6480 C.3       1 <0>        -0.1378
     30 C20        -5.2113   -0.7043    2.2756 C.3       1 <0>        -0.1471
     31 N3         -7.6416   -0.8714    0.7628 N.am      1 <0>        -0.7146
     32 C21        -8.8409   -0.4754    1.2331 C.2       1 <0>         0.5169
     33 O5         -9.0851    0.7065    1.3528 O.2       1 <0>        -0.5280
     34 C22        -9.8785   -1.5011    1.6101 C.3       1 <0>        -0.1371
     35 C23       -11.1385   -0.7919    2.1106 C.3       1 <0>        -0.0795
     36 C24       -12.2347   -1.8259    2.3753 C.3       1 <0>        -0.1497
     37 C25       -10.8212   -0.0421    3.4059 C.3       1 <0>        -0.1545
     38 O6          0.4830   -0.1664   -4.9154 O.3       1 <0>        -0.5347
     39 H5         -2.1741    0.3006  -10.8361 H         1 <0>         0.0669
     40 H6         -1.9105    2.0591  -10.9153 H         1 <0>         0.0671
     41 H7         -0.8835    0.9615  -11.8686 H         1 <0>         0.0815
     42 H8          0.3122    1.7737   -9.8539 H         1 <0>         0.0706
     43 H9          0.0486    0.0152   -9.7747 H         1 <0>         0.0709
     44 H10        -1.8587    0.4746   -5.9174 H         1 <0>         0.1076
     45 H11        -1.5952    2.2332   -5.9965 H         1 <0>         0.1169
     46 H12         1.1464    1.9945   -2.6863 H         1 <0>         0.0746
     47 H13         0.6652    0.3053   -2.3972 H         1 <0>         0.0725
     48 H14        -1.2158    1.1388   -0.9553 H         1 <0>         0.0722
     49 H15         0.1772    3.8237   -1.3646 H         1 <0>         0.0414
     50 H16        -1.4280    3.3807   -1.9934 H         1 <0>         0.0706
     51 H17        -1.1650    3.5118   -0.2378 H         1 <0>         0.0478
     52 H18         0.2261    1.8083    0.9477 H         1 <0>         0.0524
     53 H19         0.9541    0.4635    0.0367 H         1 <0>         0.0499
     54 H20         1.5683    2.1202   -0.1791 H         1 <0>         0.0526
     55 H21        -1.7688   -0.4043   -3.7742 H         1 <0>         0.3965
     56 H22        -3.8641   -1.0037   -4.2965 H         1 <0>         0.0800
     57 H23        -6.1968   -1.8442   -4.3174 H         1 <0>         0.0512
     58 H24        -5.2950   -2.4970   -2.9286 H         1 <0>         0.0664
     59 H25        -6.4551   -1.1680   -2.6913 H         1 <0>         0.0576
     60 H26        -4.3998    1.4145   -4.4130 H         1 <0>         0.0544
     61 H27        -5.6741    0.4400   -5.1843 H         1 <0>         0.0621
     62 H28        -5.9323    1.1162   -3.5581 H         1 <0>         0.0589
     63 H29        -5.0217    1.3093   -1.3116 H         1 <0>         0.4125
     64 H30        -5.0620    1.2404    1.3610 H         1 <0>         0.0829
     65 H31        -7.5087    0.4617    3.0082 H         1 <0>         0.0556
     66 H32        -6.2121    1.5825    3.4885 H         1 <0>         0.0517
     67 H33        -7.3190    2.0173    2.1641 H         1 <0>         0.0673
     68 H34        -4.5386   -1.1753    1.5588 H         1 <0>         0.0542
     69 H35        -4.6498   -0.4122    3.1631 H         1 <0>         0.0586
     70 H36        -5.9940   -1.4090    2.5565 H         1 <0>         0.0582
     71 H37        -7.4463   -1.8167    0.6670 H         1 <0>         0.4098
     72 H38       -10.1246   -2.1067    0.7379 H         1 <0>         0.0936
     73 H39        -9.4853   -2.1428    2.3987 H         1 <0>         0.0937
     74 H40       -11.4812   -0.0843    1.3557 H         1 <0>         0.0776
     75 H41       -11.8920   -2.5336    3.1302 H         1 <0>         0.0550
     76 H42       -13.1323   -1.3207    2.7318 H         1 <0>         0.0586
     77 H43       -12.4607   -2.3602    1.4525 H         1 <0>         0.0544
     78 H44       -10.0402    0.6946    3.2173 H         1 <0>         0.0746
     79 H45       -11.7188    0.4632    3.7625 H         1 <0>         0.0524
     80 H46       -10.4785   -0.7497    4.1608 H         1 <0>         0.0470
     81 H47        -0.1690   -0.8643   -4.7641 H         1 <0>         0.3654
@<TRIPOS>BOND
     1    1    2 1
     2    1   39 1
     3    1   40 1
     4    1   41 1
     5    2    3 1
     6    2   42 1
     7    2   43 1
     8    3    4 1
     9    4    5 2
    10    4    6 1
    11    6    7 1
    12    6   44 1
    13    6   45 1
    14    7    8 1
    15    7    9 1
    16    7   38 1
    17    9   10 1
    18    9   11 1
    19    9   15 1
    20   11   12 1
    21   11   46 1
    22   11   47 1
    23   12   13 1
    24   12   14 1
    25   12   48 1
    26   13   49 1
    27   13   50 1
    28   13   51 1
    29   14   52 1
    30   14   53 1
    31   14   54 1
    32   15   16 am
    33   15   55 1
    34   16   17 2
    35   16   18 1
    36   18   19 1
    37   18   20 1
    38   18   23 1
    39   20   21 1
    40   20   22 1
    41   20   56 1
    42   21   57 1
    43   21   58 1
    44   21   59 1
    45   22   60 1
    46   22   61 1
    47   22   62 1
    48   23   24 am
    49   23   63 1
    50   24   25 2
    51   24   26 1
    52   26   27 1
    53   26   28 1
    54   26   31 1
    55   28   29 1
    56   28   30 1
    57   28   64 1
    58   29   65 1
    59   29   66 1
    60   29   67 1
    61   30   68 1
    62   30   69 1
    63   30   70 1
    64   31   32 am
    65   31   71 1
    66   32   33 2
    67   32   34 1
    68   34   35 1
    69   34   72 1
    70   34   73 1
    71   35   36 1
    72   35   37 1
    73   35   74 1
    74   36   75 1
    75   36   76 1
    76   36   77 1
    77   37   78 1
    78   37   79 1
    79   37   80 1
    80   38   81 1
