@<TRIPOS>MOLECULE
ZINC30691809
   63    65     0     0     0
SMALL
USER_CHARGES
3-[3,4-difluoro-5-[(2R)-2-hydroxy-3-[(2-indan-2-yl-1,1-dimethyl-ethyl)amino]propoxy]phenyl]propanoic acid
@<TRIPOS>ATOM
      1 C1          4.8222    8.3801    2.9420 C.3       1 <0>        -0.1852
      2 C2          3.5053    9.1108    3.2114 C.3       1 <0>         0.0671
      3 C3          2.8041    9.4046    1.8837 C.3       1 <0>        -0.1795
      4 C4          3.7913   10.4259    3.9391 C.3       1 <0>        -0.1353
      5 C5          4.4464   10.1296    5.2896 C.3       1 <0>        -0.1177
      6 C6          3.4171    9.5502    6.2832 C.3       1 <0>        -0.0875
      7 C7          3.8146   10.1138    7.6342 C.ar      1 <0>        -0.1079
      8 C8          3.4655    9.7087    8.9118 C.ar      1 <0>        -0.1005
      9 C9          3.9580   10.3812   10.0129 C.ar      1 <0>        -0.1151
     10 C10         4.8027   11.4620    9.8404 C.ar      1 <0>        -0.1065
     11 C11         5.1524   11.8669    8.5672 C.ar      1 <0>        -0.1045
     12 C12         4.6591   11.1942    7.4616 C.ar      1 <0>        -0.0896
     13 C13         4.8859   11.4357    5.9846 C.3       1 <0>        -0.0734
     14 N1          2.6394    8.2676    4.0464 N.4       1 <0>        -0.5399
     15 C14         2.3429    6.9933    3.3782 C.3       1 <0>        -0.0066
     16 C15         1.4409    6.1443    4.2763 C.3       1 <0>         0.1027
     17 H1          1.8584    6.0542    5.2900 H         1 <0>         0.0837
     18 C16         1.2337    4.7696    3.6375 C.3       1 <0>         0.0225
     19 O1          0.4888    3.9375    4.5289 O.3       1 <0>        -0.3059
     20 C17         0.2163    2.6730    4.1103 C.ar      1 <0>         0.1201
     21 C18         0.6614    2.2410    2.8697 C.ar      1 <0>        -0.1902
     22 C19         0.3795    0.9575    2.4428 C.ar      1 <0>         0.0009
     23 C20        -0.3371    0.0981    3.2548 C.ar      1 <0>        -0.1538
     24 C21        -0.7792    0.5227    4.4963 C.ar      1 <0>         0.1145
     25 C22        -0.5034    1.8105    4.9262 C.ar      1 <0>         0.0221
     26 F1         -0.9337    2.2262    6.1375 F         1 <0>        -0.1263
     27 F2         -1.4797   -0.3184    5.2880 F         1 <0>        -0.1198
     28 C23         0.8594    0.4915    1.0924 C.3       1 <0>        -0.0713
     29 C24        -0.2078    0.7957    0.0391 C.3       1 <0>        -0.1516
     30 C25         0.2722    0.3296   -1.3113 C.2       1 <0>         0.4578
     31 O2          1.3565   -0.1922   -1.4201 O.co2     1 <0>        -0.6387
     32 O3         -0.5050    0.4943   -2.3933 O.co2     1 <0>        -0.7680
     33 O4          0.1770    6.7928    4.4315 O.3       1 <0>        -0.6065
     34 H2          5.3263    8.1689    3.8966 H         1 <0>         0.0829
     35 H3          5.4706    9.0115    2.3168 H         1 <0>         0.1069
     36 H4          4.6165    7.4346    2.4189 H         1 <0>         0.0843
     37 H5          1.8573    9.9300    2.0775 H         1 <0>         0.0828
     38 H6          2.5984    8.4591    1.3606 H         1 <0>         0.0841
     39 H7          3.4525   10.0360    1.2585 H         1 <0>         0.1043
     40 H8          4.4692   11.0420    3.3301 H         1 <0>         0.1168
     41 H9          2.8481   10.9684    4.1003 H         1 <0>         0.0922
     42 H10         5.2782    9.4461    5.0637 H         1 <0>         0.1016
     43 H11         2.4058    9.8701    5.9917 H         1 <0>         0.0877
     44 H12         3.4724    8.4517    6.2695 H         1 <0>         0.0678
     45 H13         2.8058    8.8645    9.0473 H         1 <0>         0.1224
     46 H14         3.6839   10.0628   11.0079 H         1 <0>         0.1297
     47 H15         5.1882   11.9894   10.7003 H         1 <0>         0.1298
     48 H16         5.8126   12.7111    8.4332 H         1 <0>         0.1249
     49 H17         5.9461   11.6293    5.7645 H         1 <0>         0.0851
     50 H18         4.2756   12.2721    5.6131 H         1 <0>         0.0894
     51 H19         3.1436    8.0564    5.0010 H         1 <0>         0.4363
     52 H20         1.8307    7.1897    2.4248 H         1 <0>         0.1439
     53 H21         3.2816    6.4531    3.1856 H         1 <0>         0.1452
     54 H22         0.6803    4.8835    2.6937 H         1 <0>         0.0899
     55 H23         2.2115    4.3078    3.4358 H         1 <0>         0.0834
     56 H24         1.2252    2.9092    2.2357 H         1 <0>         0.1425
     57 H25        -0.5527   -0.9058    2.9201 H         1 <0>         0.1536
     58 H26         1.7907    1.0164    0.8331 H         1 <0>         0.0806
     59 H27         1.0457   -0.5922    1.1233 H         1 <0>         0.0860
     60 H28        -1.1391    0.2709    0.2985 H         1 <0>         0.0695
     61 H29        -0.3941    1.8794    0.0081 H         1 <0>         0.0639
     62 H30        -0.6072    6.3289    5.0478 H         1 <0>         0.4497
     63 H31         1.6926    8.7930    4.2402 H         1 <0>         0.4530
@<TRIPOS>BOND
     1    1    2 1
     2    1   34 1
     3    1   35 1
     4    1   36 1
     5    2    3 1
     6    2    4 1
     7    2   14 1
     8    3   37 1
     9    3   38 1
    10    3   39 1
    11    4    5 1
    12    4   40 1
    13    4   41 1
    14    5   13 1
    15    5    6 1
    16    5   42 1
    17    6    7 1
    18    6   43 1
    19    6   44 1
    20    7   12 ar
    21    7    8 ar
    22    8    9 ar
    23    8   45 1
    24    9   10 ar
    25    9   46 1
    26   10   11 ar
    27   10   47 1
    28   11   12 ar
    29   11   48 1
    30   12   13 1
    31   13   49 1
    32   13   50 1
    33   14   15 1
    34   14   51 1
    35   14   63 1
    36   15   16 1
    37   15   52 1
    38   15   53 1
    39   16   17 1
    40   16   18 1
    41   16   33 1
    42   18   19 1
    43   18   54 1
    44   18   55 1
    45   19   20 1
    46   20   25 ar
    47   20   21 ar
    48   21   22 ar
    49   21   56 1
    50   22   23 ar
    51   22   28 1
    52   23   24 ar
    53   23   57 1
    54   24   25 ar
    55   24   27 1
    56   25   26 1
    57   28   29 1
    58   28   58 1
    59   28   59 1
    60   29   30 1
    61   29   60 1
    62   29   61 1
    63   30   31 2
    64   30   32 1
    65   33   62 1
@<TRIPOS>MOLECULE
ZINC45315721
   70    72     0     0     0
SMALL
USER_CHARGES

@<TRIPOS>ATOM
      1 C1         -0.0187    1.5258    0.0104 C.3       1 <0>        -0.1539
      2 C2          0.0021   -0.0041    0.0020 C.3       1 <0>         0.0597
      3 O1          0.6932   -0.4774    1.1597 O.3       1 <0>        -0.3538
      4 C3          0.8006   -1.8076    1.3039 C.2       1 <0>         0.4586
      5 O2          0.3237   -2.5457    0.4746 O.2       1 <0>        -0.5045
      6 C4          1.5162   -2.3806    2.5000 C.3       1 <0>        -0.1103
      7 C5          1.4962   -3.9085    2.4227 C.3       1 <0>        -0.0706
      8 C6          2.2117   -4.4814    3.6188 C.ar      1 <0>        -0.1103
      9 C7          3.5746   -4.7208    3.5575 C.ar      1 <0>        -0.0414
     10 C8          4.2416   -5.2456    4.6471 C.ar      1 <0>        -0.2057
     11 C9          3.5486   -5.5368    5.8121 C.ar      1 <0>         0.1651
     12 C10         2.1694   -5.2956    5.8786 C.ar      1 <0>        -0.0460
     13 C11         1.5081   -4.7596    4.7708 C.ar      1 <0>        -0.0251
     14 C12         1.4433   -5.5928    7.0766 C.1       1 <0>         0.2514
     15 N1          0.8673   -5.8286    8.0269 N.1       1 <0>        -0.4010
     16 O3          4.2026   -6.0533    6.8832 O.3       1 <0>        -0.2955
     17 C13         5.6076   -6.2725    6.7415 C.3       1 <0>         0.0274
     18 C14         6.1666   -6.8542    8.0415 C.3       1 <0>         0.0864
     19 H1          5.6108   -7.7539    8.3056 H         1 <0>         0.1346
     20 C15         7.6435   -7.2050    7.8497 C.3       1 <0>        -0.0501
     21 N2          8.1489   -7.8727    9.0566 N.4       1 <0>        -0.4982
     22 C16         9.5669   -8.2095    8.8725 C.3       1 <0>         0.0599
     23 C17         9.7170   -9.1451    7.6713 C.3       1 <0>        -0.1809
     24 C18        10.3672   -6.9292    8.6249 C.3       1 <0>        -0.1815
     25 C19        10.0933   -8.9049   10.1295 C.3       1 <0>        -0.0916
     26 C20        11.5480   -9.2504    9.9406 C.ar      1 <0>        -0.0974
     27 C21        11.8948  -10.4813    9.3864 C.ar      1 <0>        -0.1203
     28 C22        13.1988  -10.8245    9.2026 C.ar      1 <0>        -0.0903
     29 C23        14.2135   -9.9266    9.5758 C.ar      1 <0>        -0.0469
     30 C24        15.5710  -10.2454    9.4009 C.ar      1 <0>        -0.1081
     31 C25        16.5263   -9.3507    9.7737 C.ar      1 <0>        -0.1044
     32 C26        16.1794   -8.1197   10.3276 C.ar      1 <0>        -0.1051
     33 C27        14.8754   -7.7766   10.5118 C.ar      1 <0>        -0.1105
     34 C28        13.8608   -8.6748   10.1390 C.ar      1 <0>        -0.0531
     35 C29        12.5032   -8.3536   10.3087 C.ar      1 <0>        -0.0885
     36 O4          6.0381   -5.8904    9.0887 O.3       1 <0>        -0.5412
     37 H2          1.0039    1.9031    0.0027 H         1 <0>         0.0671
     38 H3         -0.5459    1.8868   -0.8726 H         1 <0>         0.0820
     39 H4         -0.5289    1.8773    0.9072 H         1 <0>         0.0675
     40 H5         -1.0205   -0.3814    0.0098 H         1 <0>         0.0693
     41 H6          0.5123   -0.3556   -0.8948 H         1 <0>         0.0690
     42 H7          2.5484   -2.0306    2.5079 H         1 <0>         0.1089
     43 H8          1.0156   -2.0564    3.4125 H         1 <0>         0.1097
     44 H9          0.4639   -4.2584    2.4148 H         1 <0>         0.0898
     45 H10         1.9967   -4.2327    1.5103 H         1 <0>         0.0898
     46 H11         4.1189   -4.4961    2.6522 H         1 <0>         0.1392
     47 H12         5.3043   -5.4298    4.5914 H         1 <0>         0.1369
     48 H13         0.4462   -4.5675    4.8156 H         1 <0>         0.1463
     49 H14         5.7857   -6.9717    5.9245 H         1 <0>         0.0871
     50 H15         6.1029   -5.3261    6.5244 H         1 <0>         0.0828
     51 H16         7.7504   -7.8716    6.9939 H         1 <0>         0.1490
     52 H17         8.2136   -6.2929    7.6733 H         1 <0>         0.1432
     53 H18         8.0499   -7.2556    9.8488 H         1 <0>         0.4323
     54 H19         9.3420   -8.6497    6.7757 H         1 <0>         0.0811
     55 H20        10.7691   -9.3950    7.5346 H         1 <0>         0.1119
     56 H21         9.1469  -10.0572    7.8477 H         1 <0>         0.0839
     57 H22        10.2602   -6.2626    9.4806 H         1 <0>         0.0834
     58 H23        11.4193   -7.1791    8.4882 H         1 <0>         0.1112
     59 H24         9.9921   -6.4338    7.7293 H         1 <0>         0.0812
     60 H25         9.9864   -8.2383   10.9853 H         1 <0>         0.0969
     61 H26         9.5232   -9.8170   10.3060 H         1 <0>         0.0980
     62 H27        11.1170  -11.1732    9.0987 H         1 <0>         0.1244
     63 H28        13.4526  -11.7822    8.7726 H         1 <0>         0.1328
     64 H29        15.8546  -11.1957    8.9733 H         1 <0>         0.1321
     65 H30        17.5688   -9.5983    9.6385 H         1 <0>         0.1300
     66 H31        16.9572   -7.4278   10.6153 H         1 <0>         0.1294
     67 H32        14.6215   -6.8194   10.9426 H         1 <0>         0.1294
     68 H33        12.2195   -7.4016   10.7325 H         1 <0>         0.1281
     69 H34         6.5086   -5.0624    8.9211 H         1 <0>         0.3901
     70 H35         7.6211   -8.7170    9.2200 H         1 <0>         0.4290
@<TRIPOS>BOND
     1    1    2 1
     2    1   37 1
     3    1   38 1
     4    1   39 1
     5    2    3 1
     6    2   40 1
     7    2   41 1
     8    3    4 1
     9    4    5 2
    10    4    6 1
    11    6    7 1
    12    6   42 1
    13    6   43 1
    14    7    8 1
    15    7   44 1
    16    7   45 1
    17    8   13 ar
    18    8    9 ar
    19    9   10 ar
    20    9   46 1
    21   10   11 ar
    22   10   47 1
    23   11   12 ar
    24   11   16 1
    25   12   13 ar
    26   12   14 1
    27   13   48 1
    28   14   15 3
    29   16   17 1
    30   17   18 1
    31   17   49 1
    32   17   50 1
    33   18   19 1
    34   18   20 1
    35   18   36 1
    36   20   21 1
    37   20   51 1
    38   20   52 1
    39   21   22 1
    40   21   53 1
    41   21   70 1
    42   22   23 1
    43   22   24 1
    44   22   25 1
    45   23   54 1
    46   23   55 1
    47   23   56 1
    48   24   57 1
    49   24   58 1
    50   24   59 1
    51   25   26 1
    52   25   60 1
    53   25   61 1
    54   26   35 ar
    55   26   27 ar
    56   27   28 ar
    57   27   62 1
    58   28   29 ar
    59   28   63 1
    60   29   34 ar
    61   29   30 ar
    62   30   31 ar
    63   30   64 1
    64   31   32 ar
    65   31   65 1
    66   32   33 ar
    67   32   66 1
    68   33   34 ar
    69   33   67 1
    70   34   35 ar
    71   35   68 1
    72   36   69 1
@<TRIPOS>MOLECULE
ZINC04240722
   38    39     0     0     0
SMALL
USER_CHARGES
N-benzyl-1-(3-methoxyphenyl)-ethanamine
@<TRIPOS>ATOM
      1 C1          6.5563   -0.6523   -1.3790 C.3       1 <0>        -0.1770
      2 C2          5.4058   -1.6554   -1.4850 C.3       1 <0>         0.0838
      3 H1          5.4629   -2.3625   -0.6575 H         1 <0>         0.1472
      4 C3          5.5079   -2.4008   -2.7907 C.ar      1 <0>        -0.1035
      5 C4          5.0526   -1.8154   -3.9579 C.ar      1 <0>        -0.1651
      6 C5          5.1501   -2.4943   -5.1582 C.ar      1 <0>        -0.0611
      7 C6          5.6926   -3.7645   -5.1926 C.ar      1 <0>        -0.1869
      8 C7          6.1449   -4.3562   -4.0224 C.ar      1 <0>         0.1464
      9 C8          6.0511   -3.6704   -2.8198 C.ar      1 <0>        -0.1264
     10 O1          6.6785   -5.6057   -4.0536 O.3       1 <0>        -0.3102
     11 C9          6.7433   -6.2518   -5.3265 C.3       1 <0>         0.0218
     12 C10         3.7112   -0.7071   -0.0387 C.3       1 <0>         0.0494
     13 C11         2.3960    0.0285   -0.0217 C.ar      1 <0>        -0.1674
     14 C12         1.2084   -0.6789   -0.0136 C.ar      1 <0>        -0.0928
     15 C13         0.0021   -0.0041    0.0020 C.ar      1 <0>        -0.1145
     16 C14        -0.0167    1.3781    0.0096 C.ar      1 <0>        -0.0827
     17 C15         1.1709    2.0855    0.0021 C.ar      1 <0>        -0.1147
     18 C16         2.3773    1.4107   -0.0136 C.ar      1 <0>        -0.0933
     19 H2          6.4992    0.0548   -2.2065 H         1 <0>         0.0838
     20 H3          6.4824   -0.1132   -0.4346 H         1 <0>         0.0849
     21 H4          7.5069   -1.1841   -1.4204 H         1 <0>         0.1083
     22 H5          4.6238   -0.8244   -3.9323 H         1 <0>         0.1221
     23 H6          4.7975   -2.0333   -6.0690 H         1 <0>         0.1382
     24 H7          5.7642   -4.2964   -6.1298 H         1 <0>         0.1406
     25 H8          6.4022   -4.1291   -1.9073 H         1 <0>         0.1419
     26 H9          7.1890   -7.2398   -5.2101 H         1 <0>         0.1110
     27 H10         5.7376   -6.3526   -5.7344 H         1 <0>         0.0620
     28 H11         7.3529   -5.6560   -6.0058 H         1 <0>         0.0625
     29 H12         4.4678   -0.1105    0.4708 H         1 <0>         0.1378
     30 H13         3.5989   -1.6640    0.4711 H         1 <0>         0.1378
     31 H14         1.2231   -1.7587   -0.0199 H         1 <0>         0.1315
     32 H15        -0.9258   -0.5567    0.0079 H         1 <0>         0.1361
     33 H16        -0.9592    1.9054    0.0170 H         1 <0>         0.1359
     34 H17         1.1563    3.1654    0.0077 H         1 <0>         0.1361
     35 H18         3.3051    1.9634   -0.0195 H         1 <0>         0.1316
     36 N1          4.1191   -0.9356   -1.4378 N.4       1 <0>        -0.5173
     37 H19         3.4008   -1.4944   -1.9131 H         1 <0>         0.4330
     38 H20         4.2194   -0.0311   -1.9134 H         1 <0>         0.4292
@<TRIPOS>BOND
     1    1    2 1
     2    1   19 1
     3    1   20 1
     4    1   21 1
     5    2    3 1
     6    2    4 1
     7    2   36 1
     8    4    9 ar
     9    4    5 ar
    10    5    6 ar
    11    5   22 1
    12    6    7 ar
    13    6   23 1
    14    7    8 ar
    15    7   24 1
    16    8    9 ar
    17    8   10 1
    18    9   25 1
    19   10   11 1
    20   11   26 1
    21   11   27 1
    22   11   28 1
    23   12   13 1
    24   12   29 1
    25   12   30 1
    26   12   36 1
    27   13   18 ar
    28   13   14 ar
    29   14   15 ar
    30   14   31 1
    31   15   16 ar
    32   15   32 1
    33   16   17 ar
    34   16   33 1
    35   17   18 ar
    36   17   34 1
    37   18   35 1
    38   36   37 1
    39   36   38 1
@<TRIPOS>MOLECULE
ZINC19908248
   38    39     0     0     0
SMALL
USER_CHARGES
(1R)-N-[(2-chlorophenyl)methyl]-1-(3-methoxyphenyl)ethanamine
@<TRIPOS>ATOM
      1 C1         -0.3483    5.8629   -1.3861 C.3       1 <0>        -0.1772
      2 C2         -0.0759    5.3505    0.0295 C.3       1 <0>         0.0884
      3 H1          0.8814    5.7358    0.4103 H         1 <0>         0.1433
      4 C3         -0.0511    3.8437    0.0222 C.ar      1 <0>        -0.1013
      5 C4         -1.2374    3.1332    0.0297 C.ar      1 <0>        -0.1648
      6 C5         -1.2180    1.7509    0.0173 C.ar      1 <0>        -0.0612
      7 C6         -0.0126    1.0758    0.0080 C.ar      1 <0>        -0.1873
      8 C7          1.1788    1.7862    0.0004 C.ar      1 <0>         0.1466
      9 C8          1.1566    3.1736    0.0076 C.ar      1 <0>        -0.1268
     10 O1          2.3657    1.1246   -0.0145 O.3       1 <0>        -0.3099
     11 C9          2.3124   -0.3034   -0.0216 C.3       1 <0>         0.0182
     12 N1         -1.1363    5.8184    0.9321 N.4       1 <0>        -0.5399
     13 C10        -0.8441    7.1683    1.4324 C.3       1 <0>         0.0423
     14 C11        -1.9512    7.6135    2.3529 C.ar      1 <0>        -0.1527
     15 C12        -2.9341    8.4679    1.8893 C.ar      1 <0>        -0.0766
     16 C13        -3.9520    8.8728    2.7322 C.ar      1 <0>        -0.1073
     17 C14        -3.9824    8.4313    4.0421 C.ar      1 <0>        -0.0714
     18 C15        -2.9975    7.5813    4.5081 C.ar      1 <0>        -0.1019
     19 C16        -1.9809    7.1717    3.6634 C.ar      1 <0>        -0.0250
     20 Cl1        -0.7430    6.1044    4.2483 Cl        1 <0>        -0.0531
     21 H2         -0.3664    6.9627   -1.3808 H         1 <0>         0.0849
     22 H3         -1.3200    5.4818   -1.7333 H         1 <0>         0.0857
     23 H4          0.4457    5.5125   -2.0620 H         1 <0>         0.1090
     24 H5         -2.1807    3.6590    0.0412 H         1 <0>         0.1222
     25 H6         -2.1459    1.1982    0.0191 H         1 <0>         0.1381
     26 H7          0.0021   -0.0041    0.0020 H         1 <0>         0.1405
     27 H8          2.0828    3.7290    0.0014 H         1 <0>         0.1414
     28 H9          3.3351   -0.7084   -0.0336 H         1 <0>         0.1125
     29 H10         1.7720   -0.6457   -0.9165 H         1 <0>         0.0634
     30 H11         1.7892   -0.6553    0.8797 H         1 <0>         0.0629
     31 H12        -2.0939    5.8423    0.3914 H         1 <0>         0.4465
     32 H13         0.1082    7.1571    1.9828 H         1 <0>         0.1383
     33 H14        -0.7695    7.8653    0.5847 H         1 <0>         0.1443
     34 H15        -2.9085    8.8163    0.8674 H         1 <0>         0.1439
     35 H16        -4.7215    9.5376    2.3686 H         1 <0>         0.1443
     36 H17        -4.7760    8.7510    4.7012 H         1 <0>         0.1466
     37 H18        -3.0211    7.2370    5.5315 H         1 <0>         0.1473
     38 H19        -1.2164    5.1341    1.7896 H         1 <0>         0.4459
@<TRIPOS>BOND
     1    1    2 1
     2    1   21 1
     3    1   22 1
     4    1   23 1
     5    2    3 1
     6    2    4 1
     7    2   12 1
     8    4    9 ar
     9    4    5 ar
    10    5    6 ar
    11    5   24 1
    12    6    7 ar
    13    6   25 1
    14    7    8 ar
    15    7   26 1
    16    8    9 ar
    17    8   10 1
    18    9   27 1
    19   10   11 1
    20   11   28 1
    21   11   29 1
    22   11   30 1
    23   12   13 1
    24   12   31 1
    25   12   38 1
    26   13   14 1
    27   13   32 1
    28   13   33 1
    29   14   19 ar
    30   14   15 ar
    31   15   16 ar
    32   15   34 1
    33   16   17 ar
    34   16   35 1
    35   17   18 ar
    36   17   36 1
    37   18   19 ar
    38   18   37 1
    39   19   20 1
@<TRIPOS>MOLECULE
ZINC19908248
   37    38     0     0     0
SMALL
USER_CHARGES
(1R)-N-[(2-chlorophenyl)methyl]-1-(3-methoxyphenyl)ethanamine
@<TRIPOS>ATOM
      1 C1         -0.3483    5.8629   -1.3861 C.3       1 <0>        -0.1771
      2 C2         -0.0759    5.3505    0.0295 C.3       1 <0>         0.1153
      3 H1          0.8814    5.7358    0.4103 H         1 <0>         0.0879
      4 C3         -0.0511    3.8437    0.0222 C.ar      1 <0>        -0.0259
      5 C4         -1.2374    3.1332    0.0297 C.ar      1 <0>        -0.1324
      6 C5         -1.2180    1.7509    0.0173 C.ar      1 <0>        -0.0813
      7 C6         -0.0126    1.0758    0.0080 C.ar      1 <0>        -0.2115
      8 C7          1.1788    1.7862    0.0004 C.ar      1 <0>         0.1266
      9 C8          1.1566    3.1736    0.0076 C.ar      1 <0>        -0.1491
     10 O1          2.3657    1.1246   -0.0145 O.3       1 <0>        -0.3191
     11 C9          2.3124   -0.3034   -0.0216 C.3       1 <0>         0.0244
     12 N1         -1.1363    5.8184    0.9321 N.3       1 <0>        -0.6527
     13 C10        -0.8441    7.1683    1.4324 C.3       1 <0>         0.0857
     14 C11        -1.9512    7.6135    2.3529 C.ar      1 <0>        -0.0770
     15 C12        -2.9341    8.4679    1.8893 C.ar      1 <0>        -0.1026
     16 C13        -3.9520    8.8728    2.7322 C.ar      1 <0>        -0.1175
     17 C14        -3.9824    8.4313    4.0421 C.ar      1 <0>        -0.1059
     18 C15        -2.9975    7.5813    4.5081 C.ar      1 <0>        -0.1148
     19 C16        -1.9809    7.1717    3.6634 C.ar      1 <0>        -0.0122
     20 Cl1        -0.7430    6.1044    4.2483 Cl        1 <0>        -0.0570
     21 H2         -0.3664    6.9627   -1.3808 H         1 <0>         0.0597
     22 H3         -1.3200    5.4818   -1.7333 H         1 <0>         0.0642
     23 H4          0.4457    5.5125   -2.0620 H         1 <0>         0.0668
     24 H5         -2.1807    3.6590    0.0412 H         1 <0>         0.1227
     25 H6         -2.1459    1.1982    0.0191 H         1 <0>         0.1231
     26 H7          0.0021   -0.0041    0.0020 H         1 <0>         0.1254
     27 H8          2.0828    3.7290    0.0014 H         1 <0>         0.1268
     28 H9          3.3351   -0.7084   -0.0336 H         1 <0>         0.1016
     29 H10         1.7720   -0.6457   -0.9165 H         1 <0>         0.0560
     30 H11         1.7892   -0.6553    0.8797 H         1 <0>         0.0562
     31 H12         0.1082    7.1571    1.9828 H         1 <0>         0.0876
     32 H13        -0.7695    7.8653    0.5847 H         1 <0>         0.0456
     33 H14        -2.9085    8.8163    0.8674 H         1 <0>         0.1287
     34 H15        -4.7215    9.5376    2.3686 H         1 <0>         0.1284
     35 H16        -4.7760    8.7510    4.7012 H         1 <0>         0.1311
     36 H17        -3.0211    7.2370    5.5315 H         1 <0>         0.1326
     37 H18        -2.0939    5.8423    0.3914 H         1 <0>         0.3399
@<TRIPOS>BOND
     1    1    2 1
     2    1   21 1
     3    1   22 1
     4    1   23 1
     5    2    3 1
     6    2    4 1
     7    2   12 1
     8    4    9 ar
     9    4    5 ar
    10    5    6 ar
    11    5   24 1
    12    6    7 ar
    13    6   25 1
    14    7    8 ar
    15    7   26 1
    16    8    9 ar
    17    8   10 1
    18    9   27 1
    19   10   11 1
    20   11   28 1
    21   11   29 1
    22   11   30 1
    23   12   13 1
    24   12   37 1
    25   13   14 1
    26   13   31 1
    27   13   32 1
    28   14   19 ar
    29   14   15 ar
    30   15   16 ar
    31   15   33 1
    32   16   17 ar
    33   16   34 1
    34   17   18 ar
    35   17   35 1
    36   18   19 ar
    37   18   36 1
    38   19   20 1
@<TRIPOS>MOLECULE
ZINC19909116
   42    43     0     0     0
SMALL
USER_CHARGES
(1R)-1-(3-methoxyphenyl)-N-[(4-methoxyphenyl)methyl]ethanamine
@<TRIPOS>ATOM
      1 C1         -0.3480    5.8634   -1.3855 C.3       1 <0>        -0.1779
      2 C2         -0.0759    5.3505    0.0300 C.3       1 <0>         0.0891
      3 H1          0.8814    5.7357    0.4111 H         1 <0>         0.1421
      4 C3         -0.0511    3.8437    0.0222 C.ar      1 <0>        -0.1003
      5 C4         -1.2374    3.1332    0.0302 C.ar      1 <0>        -0.1641
      6 C5         -1.2180    1.7509    0.0173 C.ar      1 <0>        -0.0620
      7 C6         -0.0126    1.0758    0.0080 C.ar      1 <0>        -0.1880
      8 C7          1.1788    1.7862    0.0004 C.ar      1 <0>         0.1461
      9 C8          1.1566    3.1736    0.0076 C.ar      1 <0>        -0.1279
     10 O1          2.3657    1.1246   -0.0136 O.3       1 <0>        -0.3103
     11 C9          2.3124   -0.3034   -0.0198 C.3       1 <0>         0.0184
     12 N1         -1.1365    5.8181    0.9326 N.4       1 <0>        -0.5392
     13 C10        -0.8444    7.1678    1.4334 C.3       1 <0>         0.0540
     14 C11        -1.9516    7.6127    2.3538 C.ar      1 <0>        -0.2063
     15 C12        -3.0413    8.2940    1.8436 C.ar      1 <0>        -0.0489
     16 C13        -4.0603    8.6979    2.6844 C.ar      1 <0>        -0.2099
     17 C14        -3.9843    8.4293    4.0433 C.ar      1 <0>         0.1675
     18 C15        -2.8872    7.7505    4.5536 C.ar      1 <0>        -0.1512
     19 C16        -1.8735    7.3438    3.7078 C.ar      1 <0>        -0.0510
     20 O2         -4.9830    8.8301    4.8732 O.3       1 <0>        -0.3073
     21 C17        -6.0816    9.5239    4.2785 C.3       1 <0>         0.0174
     22 H2         -0.3661    6.9632   -1.3798 H         1 <0>         0.0842
     23 H3         -1.3197    5.4825   -1.7330 H         1 <0>         0.0843
     24 H4          0.4461    5.5132   -2.0613 H         1 <0>         0.1069
     25 H5         -2.1807    3.6590    0.0424 H         1 <0>         0.1227
     26 H6         -2.1459    1.1983    0.0191 H         1 <0>         0.1373
     27 H7          0.0021   -0.0041    0.0020 H         1 <0>         0.1398
     28 H8          2.0828    3.7290    0.0014 H         1 <0>         0.1408
     29 H9          3.3351   -0.7084   -0.0311 H         1 <0>         0.1124
     30 H10         1.7723   -0.6463   -0.9146 H         1 <0>         0.0632
     31 H11         1.7888   -0.6547    0.8816 H         1 <0>         0.0629
     32 H12        -2.0940    5.8421    0.3917 H         1 <0>         0.4440
     33 H13         0.1078    7.1565    1.9840 H         1 <0>         0.1340
     34 H14        -0.7696    7.8651    0.5860 H         1 <0>         0.1332
     35 H15        -3.0979    8.5067    0.7863 H         1 <0>         0.1335
     36 H16        -4.9133    9.2262    2.2847 H         1 <0>         0.1403
     37 H17        -2.8256    7.5405    5.6112 H         1 <0>         0.1433
     38 H18        -1.0194    6.8150    4.1044 H         1 <0>         0.1379
     39 H19        -6.8126    9.7886    5.0567 H         1 <0>         0.1130
     40 H20        -6.5615    8.8770    3.5294 H         1 <0>         0.0629
     41 H21        -5.7163   10.4402    3.7916 H         1 <0>         0.0638
     42 H22        -1.2167    5.1335    1.7899 H         1 <0>         0.4497
@<TRIPOS>BOND
     1    1    2 1
     2    1   22 1
     3    1   23 1
     4    1   24 1
     5    2    3 1
     6    2    4 1
     7    2   12 1
     8    4    9 ar
     9    4    5 ar
    10    5    6 ar
    11    5   25 1
    12    6    7 ar
    13    6   26 1
    14    7    8 ar
    15    7   27 1
    16    8    9 ar
    17    8   10 1
    18    9   28 1
    19   10   11 1
    20   11   29 1
    21   11   30 1
    22   11   31 1
    23   12   13 1
    24   12   32 1
    25   12   42 1
    26   13   14 1
    27   13   33 1
    28   13   34 1
    29   14   19 ar
    30   14   15 ar
    31   15   16 ar
    32   15   35 1
    33   16   17 ar
    34   16   36 1
    35   17   18 ar
    36   17   20 1
    37   18   19 ar
    38   18   37 1
    39   19   38 1
    40   20   21 1
    41   21   39 1
    42   21   40 1
    43   21   41 1
@<TRIPOS>MOLECULE
ZINC16474423
   59    64     0     0     0
SMALL
USER_CHARGES

@<TRIPOS>ATOM
      1 C1         -0.0167    1.3781    0.0096 C.ar      1 <0>        -0.1083
      2 C2          1.1709    2.0855    0.0021 C.ar      1 <0>        -0.1166
      3 C3          2.3773    1.4107   -0.0130 C.ar      1 <0>        -0.1005
      4 C4          2.3960    0.0285   -0.0201 C.ar      1 <0>        -0.1048
      5 C5          1.2084   -0.6789   -0.0117 C.ar      1 <0>        -0.1014
      6 C6          0.0021   -0.0041    0.0020 C.ar      1 <0>        -0.1155
      7 C7          3.7112   -0.7071   -0.0376 C.3       1 <0>         0.1946
      8 H1          4.5054   -0.0457    0.3086 H         1 <0>         0.0922
      9 C8          4.0186   -1.1791   -1.4633 C.3       1 <0>        -0.1523
     10 C9          5.3811   -1.8808   -1.4956 C.3       1 <0>         0.1294
     11 H2          6.1735   -1.1466   -1.3500 H         1 <0>         0.1348
     12 N1          5.4281   -2.8745   -0.4182 N.pl3     1 <0>        -0.4065
     13 C10         4.6015   -2.8580    0.6546 C.2       1 <0>         0.4413
     14 C11         4.9307   -3.9376    1.4524 C.2       1 <0>        -0.3530
     15 C12         6.0009   -4.6094    0.8090 C.2       1 <0>         0.1162
     16 N2          6.2823   -3.9687   -0.2932 N.2       1 <0>        -0.2853
     17 C13         4.2954   -4.3156    2.7203 C.2       1 <0>         0.6097
     18 O1          3.3800   -3.6483    3.1648 O.2       1 <0>        -0.5565
     19 N3          4.7258   -5.4017    3.3923 N.am      1 <0>        -0.7231
     20 C14         4.0916   -5.7790    4.6578 C.3       1 <0>         0.1890
     21 C15         4.2437   -4.6372    5.6648 C.3       1 <0>        -0.1205
     22 C16         3.5814   -5.0312    6.9865 C.3       1 <0>        -0.0827
     23 C17         4.2531   -6.2904    7.5381 C.3       1 <0>        -0.1113
     24 C18         4.1010   -7.4322    6.5311 C.3       1 <0>        -0.0802
     25 C19         4.7633   -7.0382    5.2094 C.3       1 <0>        -0.1156
     26 C20         2.6150   -7.7089    6.2944 C.3       1 <0>        -0.1113
     27 C21         1.9433   -6.4497    5.7428 C.3       1 <0>        -0.0827
     28 C22         2.0954   -5.3079    6.7498 C.3       1 <0>        -0.1084
     29 C23         2.6056   -6.0557    4.4211 C.3       1 <0>        -0.1205
     30 N4          3.6304   -1.8887    0.8435 N.pl3     1 <0>        -0.7013
     31 C24         5.5680   -2.5757   -2.8458 C.3       1 <0>         0.4576
     32 F1          5.5095   -1.6258   -3.8712 F         1 <0>        -0.1725
     33 F2          6.8119   -3.2152   -2.8730 F         1 <0>        -0.1588
     34 F3          4.5533   -3.5214   -3.0279 F         1 <0>        -0.1727
     35 H3         -0.9591    1.9053    0.0259 H         1 <0>         0.1260
     36 H4          1.1563    3.1654    0.0076 H         1 <0>         0.1276
     37 H5          3.3051    1.9634   -0.0196 H         1 <0>         0.1269
     38 H6          1.2231   -1.7588   -0.0176 H         1 <0>         0.1240
     39 H7         -0.9258   -0.5567    0.0082 H         1 <0>         0.1266
     40 H8          3.2451   -1.8744   -1.7895 H         1 <0>         0.1006
     41 H9          4.0377   -0.3196   -2.1334 H         1 <0>         0.1235
     42 H10         6.4981   -5.4980    1.1691 H         1 <0>         0.1926
     43 H11         5.4555   -5.9336    3.0379 H         1 <0>         0.3968
     44 H12         5.3024   -4.4400    5.8335 H         1 <0>         0.0581
     45 H13         3.7652   -3.7401    5.2719 H         1 <0>         0.0861
     46 H14         3.6897   -4.2177    7.7039 H         1 <0>         0.0705
     47 H15         5.3117   -6.0932    7.7067 H         1 <0>         0.0620
     48 H16         3.7812   -6.5711    8.4797 H         1 <0>         0.0637
     49 H17         4.5795   -8.3293    6.9241 H         1 <0>         0.0741
     50 H18         4.6550   -7.8517    4.4920 H         1 <0>         0.0683
     51 H19         5.8220   -6.8411    5.3781 H         1 <0>         0.0683
     52 H20         2.5067   -8.5224    5.5770 H         1 <0>         0.0620
     53 H21         2.1431   -7.9896    7.2360 H         1 <0>         0.0637
     54 H22         0.8846   -6.6469    5.5742 H         1 <0>         0.0705
     55 H23         1.6235   -5.5886    7.6914 H         1 <0>         0.0611
     56 H24         1.6168   -4.4108    6.3568 H         1 <0>         0.0639
     57 H25         2.1271   -5.1587    4.0282 H         1 <0>         0.0859
     58 H26         2.4973   -6.8692    3.7037 H         1 <0>         0.0582
     59 H27         2.9351   -1.9818    1.5135 H         1 <0>         0.4369
@<TRIPOS>BOND
     1    1    6 ar
     2    1    2 ar
     3    1   35 1
     4    2    3 ar
     5    2   36 1
     6    3    4 ar
     7    3   37 1
     8    4    5 ar
     9    4    7 1
    10    5    6 ar
    11    5   38 1
    12    6   39 1
    13    7    8 1
    14    7   30 1
    15    7    9 1
    16    9   10 1
    17    9   40 1
    18    9   41 1
    19   10   11 1
    20   10   12 1
    21   10   31 1
    22   12   16 1
    23   12   13 1
    24   13   14 2
    25   13   30 1
    26   14   15 1
    27   14   17 1
    28   15   16 2
    29   15   42 1
    30   17   18 2
    31   17   19 am
    32   19   20 1
    33   19   43 1
    34   20   25 1
    35   20   29 1
    36   20   21 1
    37   21   22 1
    38   21   44 1
    39   21   45 1
    40   22   28 1
    41   22   23 1
    42   22   46 1
    43   23   24 1
    44   23   47 1
    45   23   48 1
    46   24   25 1
    47   24   26 1
    48   24   49 1
    49   25   50 1
    50   25   51 1
    51   26   27 1
    52   26   52 1
    53   26   53 1
    54   27   28 1
    55   27   29 1
    56   27   54 1
    57   28   55 1
    58   28   56 1
    59   29   57 1
    60   29   58 1
    61   30   59 1
    62   31   32 1
    63   31   33 1
    64   31   34 1
@<TRIPOS>MOLECULE
ZINC38655136
   66    69     0     0     0
SMALL
USER_CHARGES

@<TRIPOS>ATOM
      1 C1         -0.0187    1.5258    0.0104 C.3       1 <0>        -0.1493
      2 C2          0.0021   -0.0041    0.0020 C.3       1 <0>        -0.1348
      3 C3          0.7421   -0.5109    1.2415 C.3       1 <0>         0.2293
      4 C4          0.7628   -2.0407    1.2331 C.3       1 <0>        -0.1287
      5 C5          1.3918   -2.5494    2.5318 C.3       1 <0>        -0.1489
      6 C6          2.1559    0.0107    1.2308 C.ar      1 <0>        -0.0828
      7 C7          2.7909    0.2617    0.0289 C.ar      1 <0>        -0.1036
      8 C8          4.0878    0.7402    0.0191 C.ar      1 <0>        -0.1176
      9 C9          4.7494    0.9681    1.2112 C.ar      1 <0>        -0.0858
     10 C10         4.1141    0.7179    2.4132 C.ar      1 <0>        -0.1170
     11 C11         2.8157    0.2435    2.4230 C.ar      1 <0>        -0.1124
     12 C12         6.1636    1.4888    1.2005 C.3       1 <0>        -0.1170
     13 N1          0.0564   -0.0384    2.4469 N.am      1 <0>        -0.7180
     14 C13        -1.2274   -0.3827    2.6706 C.2       1 <0>         0.6112
     15 O1         -1.8168   -1.0860    1.8714 O.2       1 <0>        -0.5594
     16 C14        -1.9143    0.0906    3.8781 C.2       1 <0>        -0.3618
     17 C15        -1.3683    0.9160    4.8936 C.2       1 <0>         0.1015
     18 N2         -2.2892    1.1162    5.7971 N.2       1 <0>        -0.2920
     19 N3         -3.4527    0.4467    5.4219 N.pl3     1 <0>        -0.3874
     20 C16        -3.2205   -0.1771    4.2424 C.2       1 <0>         0.4310
     21 N4         -4.1784   -0.9333    3.5902 N.pl3     1 <0>        -0.7035
     22 C17        -5.3861   -1.2688    4.3699 C.3       1 <0>         0.1869
     23 H1         -5.1570   -2.0686    5.0741 H         1 <0>         0.0854
     24 C18        -5.8316   -0.0187    5.1372 C.3       1 <0>        -0.1383
     25 C19        -4.7356    0.3939    6.1304 C.3       1 <0>         0.1891
     26 C20        -4.6495   -0.6217    7.2714 C.3       1 <0>        -0.1605
     27 C21        -5.0663    1.7767    6.6954 C.3       1 <0>        -0.1485
     28 C22        -6.4833   -1.7138    3.4376 C.ar      1 <0>        -0.1001
     29 C23        -6.6669   -1.0692    2.2286 C.ar      1 <0>        -0.1031
     30 C24        -7.6734   -1.4774    1.3735 C.ar      1 <0>        -0.1161
     31 C25        -8.4960   -2.5306    1.7271 C.ar      1 <0>        -0.1119
     32 C26        -8.3118   -3.1758    2.9357 C.ar      1 <0>        -0.1170
     33 C27        -7.3026   -2.7703    3.7889 C.ar      1 <0>        -0.1037
     34 H2          1.0039    1.9031    0.0027 H         1 <0>         0.0556
     35 H3         -0.5459    1.8868   -0.8726 H         1 <0>         0.0507
     36 H4         -0.5289    1.8773    0.9072 H         1 <0>         0.0530
     37 H5         -1.0205   -0.3814    0.0098 H         1 <0>         0.0899
     38 H6          0.5123   -0.3556   -0.8948 H         1 <0>         0.0683
     39 H7         -0.2567   -2.4175    1.1513 H         1 <0>         0.0889
     40 H8          1.3491   -2.3915    0.3838 H         1 <0>         0.0661
     41 H9          0.8055   -2.1987    3.3812 H         1 <0>         0.0535
     42 H10         1.4065   -3.6393    2.5258 H         1 <0>         0.0507
     43 H11         2.4113   -2.1727    2.6137 H         1 <0>         0.0547
     44 H12         2.2739    0.0837   -0.9025 H         1 <0>         0.1263
     45 H13         4.5841    0.9357   -0.9200 H         1 <0>         0.1222
     46 H14         4.6312    0.8957    3.3445 H         1 <0>         0.1221
     47 H15         2.3181    0.0516    3.3621 H         1 <0>         0.1212
     48 H16         6.1496    2.5786    1.2106 H         1 <0>         0.0706
     49 H17         6.6918    1.1240    2.0815 H         1 <0>         0.0662
     50 H18         6.6723    1.1403    0.3017 H         1 <0>         0.0661
     51 H19         0.5262    0.5221    3.0839 H         1 <0>         0.3962
     52 H20        -0.3633    1.3108    4.9159 H         1 <0>         0.1837
     53 H21        -4.0630   -1.2260    2.6727 H         1 <0>         0.4324
     54 H22        -6.0139    0.7930    4.4328 H         1 <0>         0.0858
     55 H23        -6.7497   -0.2365    5.6829 H         1 <0>         0.1060
     56 H24        -3.8641   -0.3226    7.9656 H         1 <0>         0.0728
     57 H25        -5.6038   -0.6596    7.7969 H         1 <0>         0.0796
     58 H26        -4.4193   -1.6065    6.8648 H         1 <0>         0.0615
     59 H27        -5.1323    2.4964    5.8794 H         1 <0>         0.0630
     60 H28        -6.0200    1.7356    7.2216 H         1 <0>         0.0763
     61 H29        -4.2823    2.0834    7.3878 H         1 <0>         0.0769
     62 H30        -6.0242   -0.2464    1.9524 H         1 <0>         0.1229
     63 H31        -7.8172   -0.9733    0.4293 H         1 <0>         0.1252
     64 H32        -9.2827   -2.8490    1.0593 H         1 <0>         0.1248
     65 H33        -8.9547   -3.9984    3.2121 H         1 <0>         0.1262
     66 H34        -7.1564   -3.2769    4.7315 H         1 <0>         0.1249
@<TRIPOS>BOND
     1    1    2 1
     2    1   34 1
     3    1   35 1
     4    1   36 1
     5    2    3 1
     6    2   37 1
     7    2   38 1
     8    3    4 1
     9    3    6 1
    10    3   13 1
    11    4    5 1
    12    4   39 1
    13    4   40 1
    14    5   41 1
    15    5   42 1
    16    5   43 1
    17    6   11 ar
    18    6    7 ar
    19    7    8 ar
    20    7   44 1
    21    8    9 ar
    22    8   45 1
    23    9   10 ar
    24    9   12 1
    25   10   11 ar
    26   10   46 1
    27   11   47 1
    28   12   48 1
    29   12   49 1
    30   12   50 1
    31   13   14 am
    32   13   51 1
    33   14   15 2
    34   14   16 1
    35   16   20 2
    36   16   17 1
    37   17   18 2
    38   17   52 1
    39   18   19 1
    40   19   25 1
    41   19   20 1
    42   20   21 1
    43   21   22 1
    44   21   53 1
    45   22   23 1
    46   22   24 1
    47   22   28 1
    48   24   25 1
    49   24   54 1
    50   24   55 1
    51   25   26 1
    52   25   27 1
    53   26   56 1
    54   26   57 1
    55   26   58 1
    56   27   59 1
    57   27   60 1
    58   27   61 1
    59   28   33 ar
    60   28   29 ar
    61   29   30 ar
    62   29   62 1
    63   30   31 ar
    64   30   63 1
    65   31   32 ar
    66   31   64 1
    67   32   33 ar
    68   32   65 1
    69   33   66 1
@<TRIPOS>MOLECULE
ZINC38655139
   66    69     0     0     0
SMALL
USER_CHARGES

@<TRIPOS>ATOM
      1 C1         -0.0187    1.5258    0.0104 C.3       1 <0>        -0.1493
      2 C2          0.0021   -0.0041    0.0020 C.3       1 <0>        -0.1349
      3 C3          0.7421   -0.5109    1.2415 C.3       1 <0>         0.2293
      4 C4          0.7628   -2.0407    1.2331 C.3       1 <0>        -0.1286
      5 C5          1.3918   -2.5494    2.5318 C.3       1 <0>        -0.1490
      6 C6          2.1559    0.0107    1.2308 C.ar      1 <0>        -0.0828
      7 C7          2.7909    0.2617    0.0289 C.ar      1 <0>        -0.1036
      8 C8          4.0878    0.7402    0.0191 C.ar      1 <0>        -0.1176
      9 C9          4.7494    0.9681    1.2112 C.ar      1 <0>        -0.0858
     10 C10         4.1141    0.7179    2.4132 C.ar      1 <0>        -0.1170
     11 C11         2.8157    0.2435    2.4230 C.ar      1 <0>        -0.1124
     12 C12         6.1636    1.4888    1.2005 C.3       1 <0>        -0.1170
     13 N1          0.0564   -0.0384    2.4469 N.am      1 <0>        -0.7180
     14 C13        -1.2274   -0.3827    2.6706 C.2       1 <0>         0.6112
     15 O1         -1.8168   -1.0860    1.8714 O.2       1 <0>        -0.5594
     16 C14        -1.9143    0.0906    3.8781 C.2       1 <0>        -0.3617
     17 C15        -1.3683    0.9160    4.8936 C.2       1 <0>         0.1015
     18 N2         -2.2888    1.1151    5.7977 N.2       1 <0>        -0.2919
     19 N3         -3.4517    0.4440    5.4235 N.pl3     1 <0>        -0.3871
     20 C16        -3.2205   -0.1771    4.2424 C.2       1 <0>         0.4308
     21 N4         -4.1805   -0.9277    3.5868 N.pl3     1 <0>        -0.7036
     22 C17        -5.5648   -0.7904    4.0807 C.3       1 <0>         0.1877
     23 H1         -5.9864    0.1522    3.7317 H         1 <0>         0.0855
     24 C18        -5.5374   -0.8065    5.6133 C.3       1 <0>        -0.1391
     25 C19        -4.7327    0.3863    6.1350 C.3       1 <0>         0.1896
     26 C20        -5.5210    1.6718    5.8764 C.3       1 <0>        -0.1625
     27 C21        -4.4788    0.2307    7.6358 C.3       1 <0>        -0.1471
     28 C22        -6.3998   -1.9375    3.5728 C.ar      1 <0>        -0.1000
     29 C23        -5.8704   -3.2139    3.5344 C.ar      1 <0>        -0.1029
     30 C24        -6.6363   -4.2661    3.0685 C.ar      1 <0>        -0.1162
     31 C25        -7.9318   -4.0420    2.6415 C.ar      1 <0>        -0.1118
     32 C26        -8.4615   -2.7658    2.6807 C.ar      1 <0>        -0.1170
     33 C27        -7.6970   -1.7143    3.1506 C.ar      1 <0>        -0.1036
     34 H2          1.0039    1.9031    0.0027 H         1 <0>         0.0555
     35 H3         -0.5459    1.8868   -0.8726 H         1 <0>         0.0507
     36 H4         -0.5289    1.8773    0.9072 H         1 <0>         0.0530
     37 H5         -1.0205   -0.3814    0.0098 H         1 <0>         0.0901
     38 H6          0.5123   -0.3556   -0.8948 H         1 <0>         0.0683
     39 H7         -0.2567   -2.4175    1.1513 H         1 <0>         0.0888
     40 H8          1.3491   -2.3915    0.3838 H         1 <0>         0.0662
     41 H9          0.8055   -2.1987    3.3812 H         1 <0>         0.0534
     42 H10         1.4065   -3.6393    2.5258 H         1 <0>         0.0507
     43 H11         2.4113   -2.1727    2.6137 H         1 <0>         0.0549
     44 H12         2.2739    0.0837   -0.9025 H         1 <0>         0.1263
     45 H13         4.5841    0.9357   -0.9200 H         1 <0>         0.1222
     46 H14         4.6312    0.8957    3.3445 H         1 <0>         0.1221
     47 H15         2.3181    0.0516    3.3621 H         1 <0>         0.1212
     48 H16         6.1496    2.5786    1.2106 H         1 <0>         0.0706
     49 H17         6.6918    1.1240    2.0815 H         1 <0>         0.0662
     50 H18         6.6723    1.1403    0.3017 H         1 <0>         0.0661
     51 H19         0.5262    0.5221    3.0839 H         1 <0>         0.3962
     52 H20        -0.3636    1.3116    4.9155 H         1 <0>         0.1838
     53 H21        -3.9566   -1.5107    2.8447 H         1 <0>         0.4324
     54 H22        -6.5571   -0.7520    5.9945 H         1 <0>         0.1066
     55 H23        -5.0717   -1.7298    5.9578 H         1 <0>         0.0846
     56 H24        -5.7048    1.7764    4.8071 H         1 <0>         0.0615
     57 H25        -6.4727    1.6271    6.4060 H         1 <0>         0.0796
     58 H26        -4.9472    2.5276    6.2319 H         1 <0>         0.0721
     59 H27        -3.9018    1.0821    7.9968 H         1 <0>         0.0775
     60 H28        -5.4319    0.1880    8.1629 H         1 <0>         0.0764
     61 H29        -3.9220   -0.6886    7.8167 H         1 <0>         0.0631
     62 H30        -4.8583   -3.3889    3.8681 H         1 <0>         0.1228
     63 H31        -6.2225   -5.2632    3.0379 H         1 <0>         0.1253
     64 H32        -8.5300   -4.8640    2.2768 H         1 <0>         0.1248
     65 H33        -9.4736   -2.5906    2.3467 H         1 <0>         0.1263
     66 H34        -8.1121   -0.7178    3.1847 H         1 <0>         0.1249
@<TRIPOS>BOND
     1    1    2 1
     2    1   34 1
     3    1   35 1
     4    1   36 1
     5    2    3 1
     6    2   37 1
     7    2   38 1
     8    3    4 1
     9    3    6 1
    10    3   13 1
    11    4    5 1
    12    4   39 1
    13    4   40 1
    14    5   41 1
    15    5   42 1
    16    5   43 1
    17    6   11 ar
    18    6    7 ar
    19    7    8 ar
    20    7   44 1
    21    8    9 ar
    22    8   45 1
    23    9   10 ar
    24    9   12 1
    25   10   11 ar
    26   10   46 1
    27   11   47 1
    28   12   48 1
    29   12   49 1
    30   12   50 1
    31   13   14 am
    32   13   51 1
    33   14   15 2
    34   14   16 1
    35   16   20 2
    36   16   17 1
    37   17   18 2
    38   17   52 1
    39   18   19 1
    40   19   25 1
    41   19   20 1
    42   20   21 1
    43   21   22 1
    44   21   53 1
    45   22   23 1
    46   22   24 1
    47   22   28 1
    48   24   25 1
    49   24   54 1
    50   24   55 1
    51   25   26 1
    52   25   27 1
    53   26   56 1
    54   26   57 1
    55   26   58 1
    56   27   59 1
    57   27   60 1
    58   27   61 1
    59   28   33 ar
    60   28   29 ar
    61   29   30 ar
    62   29   62 1
    63   30   31 ar
    64   30   63 1
    65   31   32 ar
    66   31   64 1
    67   32   33 ar
    68   32   65 1
    69   33   66 1
@<TRIPOS>MOLECULE
ZINC00049416
   40    43     0     0     0
SMALL
USER_CHARGES
2-(2-furyl)-3-phenethyl-quinazolin-4-one
@<TRIPOS>ATOM
      1 C1          0.0546    1.5920   -0.2378 C.ar      1 <0>        -0.1198
      2 C2          1.2354    2.2860   -0.4244 C.ar      1 <0>        -0.1198
      3 C3          2.4433    1.6142   -0.3996 C.ar      1 <0>        -0.1108
      4 C4          2.4704    0.2486   -0.1872 C.ar      1 <0>        -0.0807
      5 C5          1.2896   -0.4454   -0.0001 C.ar      1 <0>        -0.1124
      6 C6          0.0817    0.2263   -0.0254 C.ar      1 <0>        -0.1170
      7 C7          3.7872   -0.4838   -0.1600 C.3       1 <0>        -0.0887
      8 C8          4.1383   -0.9542   -1.5730 C.3       1 <0>         0.0950
      9 N1          5.4185   -1.6661   -1.5466 N.am      1 <0>        -0.5404
     10 C9          5.4358   -3.0162   -1.4536 C.2       1 <0>         0.5511
     11 O1          4.4034   -3.6579   -1.3905 O.2       1 <0>        -0.5039
     12 C10         6.7478   -3.6787   -1.4313 C.ar      1 <0>        -0.1998
     13 C11         6.8697   -5.0640   -1.3382 C.ar      1 <0>        -0.0399
     14 C12         8.1243   -5.6335   -1.3216 C.ar      1 <0>        -0.1365
     15 C13         9.2620   -4.8399   -1.3966 C.ar      1 <0>        -0.0710
     16 C14         9.1660   -3.4803   -1.4884 C.ar      1 <0>        -0.1080
     17 C15         7.9067   -2.8719   -1.5076 C.ar      1 <0>         0.1624
     18 N2          7.7724   -1.5349   -1.5976 N.2       1 <0>        -0.5062
     19 C16         6.5922   -0.9613   -1.6219 C.2       1 <0>         0.4808
     20 C17         6.5259    0.5011   -1.7277 C.2       1 <0>        -0.0235
     21 C18         7.5825    1.3384   -1.9399 C.2       1 <0>        -0.0983
     22 C19         7.0633    2.6436   -1.9742 C.2       1 <0>        -0.2186
     23 C20         5.7314    2.5464   -1.7747 C.2       1 <0>        -0.0055
     24 O2          5.4110    1.2531   -1.6265 O.3       1 <0>        -0.1604
     25 H1         -0.8895    2.1160   -0.2624 H         1 <0>         0.1223
     26 H2          1.2142    3.3530   -0.5903 H         1 <0>         0.1229
     27 H3          3.3658    2.1564   -0.5461 H         1 <0>         0.1206
     28 H4          1.3108   -1.5124    0.1655 H         1 <0>         0.1228
     29 H5         -0.8409   -0.3159    0.1204 H         1 <0>         0.1232
     30 H6          4.5672    0.1846    0.2047 H         1 <0>         0.0798
     31 H7          3.7095   -1.3466    0.5014 H         1 <0>         0.0767
     32 H8          3.3584   -1.6225   -1.9377 H         1 <0>         0.1045
     33 H9          4.2160   -0.0913   -2.2344 H         1 <0>         0.1073
     34 H10         5.9886   -5.6856   -1.2793 H         1 <0>         0.1392
     35 H11         8.2241   -6.7065   -1.2500 H         1 <0>         0.1353
     36 H12        10.2368   -5.3046   -1.3825 H         1 <0>         0.1364
     37 H13        10.0598   -2.8769   -1.5463 H         1 <0>         0.1415
     38 H14         8.6171    1.0529   -2.0602 H         1 <0>         0.1663
     39 H15         7.6245    3.5536   -2.1268 H         1 <0>         0.1603
     40 H16         5.0385    3.3741   -1.7402 H         1 <0>         0.2127
@<TRIPOS>BOND
     1    1    6 ar
     2    1    2 ar
     3    1   25 1
     4    2    3 ar
     5    2   26 1
     6    3    4 ar
     7    3   27 1
     8    4    5 ar
     9    4    7 1
    10    5    6 ar
    11    5   28 1
    12    6   29 1
    13    7    8 1
    14    7   30 1
    15    7   31 1
    16    8    9 1
    17    8   32 1
    18    8   33 1
    19    9   19 1
    20    9   10 am
    21   10   11 2
    22   10   12 1
    23   12   17 ar
    24   12   13 ar
    25   13   14 ar
    26   13   34 1
    27   14   15 ar
    28   14   35 1
    29   15   16 ar
    30   15   36 1
    31   16   17 ar
    32   16   37 1
    33   17   18 1
    34   18   19 2
    35   19   20 1
    36   20   24 1
    37   20   21 2
    38   21   22 1
    39   21   38 1
    40   22   23 2
    41   22   39 1
    42   23   24 1
    43   23   40 1
@<TRIPOS>MOLECULE
ZINC03975668
   55    57     0     0     0
SMALL
USER_CHARGES

@<TRIPOS>ATOM
      1 C1          5.4172   -6.5944    1.5236 C.3       1 <0>        -0.1796
      2 C2          6.2018   -6.1937    0.2728 C.3       1 <0>         0.0639
      3 C3          5.5283   -6.7906   -0.9646 C.3       1 <0>        -0.1804
      4 C4          7.6340   -6.7214    0.3784 C.3       1 <0>        -0.0920
      5 C5          7.6086   -8.2236    0.4957 C.ar      1 <0>        -0.0977
      6 C6          7.5488   -8.8127    1.7574 C.ar      1 <0>        -0.1201
      7 C7          7.5189  -10.1660    1.8982 C.ar      1 <0>        -0.0904
      8 C8          7.5606  -10.9848    0.7568 C.ar      1 <0>        -0.0468
      9 C9          7.5383  -12.3861    0.8627 C.ar      1 <0>        -0.1081
     10 C10         7.5798  -13.1473   -0.2646 C.ar      1 <0>        -0.1044
     11 C11         7.6450  -12.5583   -1.5262 C.ar      1 <0>        -0.1051
     12 C12         7.6687  -11.2049   -1.6673 C.ar      1 <0>        -0.1105
     13 C13         7.6269  -10.3860   -0.5260 C.ar      1 <0>        -0.0532
     14 C14         7.6500   -8.9847   -0.6317 C.ar      1 <0>        -0.0884
     15 C15         4.8656   -4.1863    0.0548 C.3       1 <0>        -0.0444
     16 C16         4.9322   -2.6623   -0.0624 C.3       1 <0>         0.0860
     17 H1          5.4989   -2.2578    0.7762 H         1 <0>         0.1353
     18 C17         3.5146   -2.0870   -0.0449 C.3       1 <0>         0.0262
     19 O1          3.5799   -0.6595   -0.0370 O.3       1 <0>        -0.2919
     20 C18         2.4002    0.0111   -0.0212 C.ar      1 <0>         0.1790
     21 C19         1.2027   -0.6870   -0.0135 C.ar      1 <0>        -0.2072
     22 C20         0.0021   -0.0041    0.0020 C.ar      1 <0>        -0.0338
     23 C21        -0.0167    1.3804    0.0096 C.ar      1 <0>        -0.1374
     24 C22         1.1653    2.0923    0.0022 C.ar      1 <0>         0.0405
     25 C23         2.3874    1.4128   -0.0131 C.ar      1 <0>        -0.0447
     26 C24         3.6184    2.1445   -0.0204 C.1       1 <0>         0.2479
     27 N1          4.5949    2.7249   -0.0262 N.1       1 <0>        -0.3846
     28 Cl1         1.1352    3.8280    0.0112 Cl        1 <0>        -0.0266
     29 O2          5.5756   -2.3064   -1.2878 O.3       1 <0>        -0.5410
     30 H2          4.3968   -6.2185    1.4484 H         1 <0>         0.0803
     31 H3          5.3987   -7.6809    1.6085 H         1 <0>         0.1113
     32 H4          5.8969   -6.1692    2.4052 H         1 <0>         0.0833
     33 H5          6.0873   -6.5052   -1.8558 H         1 <0>         0.0829
     34 H6          5.5099   -7.8771   -0.8798 H         1 <0>         0.1108
     35 H7          4.5080   -6.4147   -1.0399 H         1 <0>         0.0804
     36 H8          8.1930   -6.4360   -0.5128 H         1 <0>         0.0967
     37 H9          8.1138   -6.2962    1.2599 H         1 <0>         0.0977
     38 H10         7.5214   -8.1857    2.6364 H         1 <0>         0.1243
     39 H11         7.4688  -10.6084    2.8821 H         1 <0>         0.1328
     40 H12         7.4879  -12.8563    1.8337 H         1 <0>         0.1321
     41 H13         7.5622  -14.2239   -0.1805 H         1 <0>         0.1300
     42 H14         7.6776  -13.1854   -2.4049 H         1 <0>         0.1294
     43 H15         7.7198  -10.7626   -2.6512 H         1 <0>         0.1294
     44 H16         7.7007   -8.5144   -1.6026 H         1 <0>         0.1281
     45 H17         4.2974   -4.4578    0.9444 H         1 <0>         0.1477
     46 H18         4.3766   -4.5976   -0.8283 H         1 <0>         0.1420
     47 H19         2.9936   -2.4319    0.8482 H         1 <0>         0.0891
     48 H20         2.9759   -2.4211   -0.9316 H         1 <0>         0.0846
     49 H21         1.2084   -1.7670   -0.0194 H         1 <0>         0.1425
     50 H22        -0.9278   -0.5534    0.0079 H         1 <0>         0.1495
     51 H23        -0.9605    1.9053    0.0169 H         1 <0>         0.1530
     52 H24         5.1249   -2.6340   -2.0782 H         1 <0>         0.3904
     53 N2          6.2355   -4.7235    0.1583 N.4       1 <0>        -0.5085
     54 H25         6.7665   -4.4612   -0.6804 H         1 <0>         0.4367
     55 H26         6.6919   -4.3294    0.9894 H         1 <0>         0.4331
@<TRIPOS>BOND
     1    1    2 1
     2    1   30 1
     3    1   31 1
     4    1   32 1
     5    2    3 1
     6    2    4 1
     7    2   53 1
     8    3   33 1
     9    3   34 1
    10    3   35 1
    11    4    5 1
    12    4   36 1
    13    4   37 1
    14    5   14 ar
    15    5    6 ar
    16    6    7 ar
    17    6   38 1
    18    7    8 ar
    19    7   39 1
    20    8   13 ar
    21    8    9 ar
    22    9   10 ar
    23    9   40 1
    24   10   11 ar
    25   10   41 1
    26   11   12 ar
    27   11   42 1
    28   12   13 ar
    29   12   43 1
    30   13   14 ar
    31   14   44 1
    32   15   16 1
    33   15   45 1
    34   15   46 1
    35   15   53 1
    36   16   17 1
    37   16   18 1
    38   16   29 1
    39   18   19 1
    40   18   47 1
    41   18   48 1
    42   19   20 1
    43   20   25 ar
    44   20   21 ar
    45   21   22 ar
    46   21   49 1
    47   22   23 ar
    48   22   50 1
    49   23   24 ar
    50   23   51 1
    51   24   25 ar
    52   24   28 1
    53   25   26 1
    54   26   27 3
    55   29   52 1
    56   53   54 1
    57   53   55 1
@<TRIPOS>MOLECULE
ZINC01538900
   44    45     0     0     0
SMALL
USER_CHARGES
3-(2-chlorophenyl)-N-[1-(3-methoxyphenyl)ethyl]propan-1-amine
@<TRIPOS>ATOM
      1 C1         -0.3480    5.8634   -1.3855 C.3       1 <0>        -0.1768
      2 C2         -0.0759    5.3505    0.0300 C.3       1 <0>         0.0849
      3 H1          0.8869    5.7280    0.3744 H         1 <0>         0.1469
      4 C3         -0.0511    3.8437    0.0222 C.ar      1 <0>        -0.1044
      5 C4         -1.2374    3.1332    0.0293 C.ar      1 <0>        -0.1654
      6 C5         -1.2180    1.7509    0.0173 C.ar      1 <0>        -0.0610
      7 C6         -0.0126    1.0758    0.0080 C.ar      1 <0>        -0.1867
      8 C7          1.1788    1.7862    0.0004 C.ar      1 <0>         0.1467
      9 C8          1.1566    3.1736    0.0076 C.ar      1 <0>        -0.1264
     10 O1          2.3657    1.1246   -0.0136 O.3       1 <0>        -0.3101
     11 C9          2.3124   -0.3034   -0.0198 C.3       1 <0>         0.0218
     12 C10        -0.8444    7.1678    1.4334 C.3       1 <0>        -0.0064
     13 C11        -1.9685    7.6195    2.3678 C.3       1 <0>        -0.1461
     14 C12        -1.6643    9.0253    2.8894 C.3       1 <0>        -0.0774
     15 C13        -2.7716    9.4701    3.8098 C.ar      1 <0>        -0.0901
     16 C14        -3.8100   10.2402    3.3203 C.ar      1 <0>        -0.1027
     17 C15        -4.8279   10.6447    4.1634 C.ar      1 <0>        -0.1094
     18 C16        -4.8032   10.2874    5.4988 C.ar      1 <0>        -0.1001
     19 C17        -3.7629    9.5220    5.9905 C.ar      1 <0>        -0.1060
     20 C18        -2.7461    9.1127    5.1459 C.ar      1 <0>        -0.0335
     21 Cl1        -1.4387    8.1516    5.7629 Cl        1 <0>        -0.0672
     22 H2         -1.3109    5.4859   -1.7299 H         1 <0>         0.0838
     23 H3         -0.3660    6.9533   -1.3799 H         1 <0>         0.0849
     24 H4          0.4389    5.5165   -2.0552 H         1 <0>         0.1080
     25 H5         -2.1807    3.6590    0.0407 H         1 <0>         0.1224
     26 H6         -2.1459    1.1983    0.0191 H         1 <0>         0.1383
     27 H7          0.0021   -0.0041    0.0020 H         1 <0>         0.1407
     28 H8          2.0828    3.7290    0.0014 H         1 <0>         0.1418
     29 H9          1.7935   -0.6515    0.8734 H         1 <0>         0.0622
     30 H10         1.7773   -0.6432   -0.9065 H         1 <0>         0.0625
     31 H11         3.3258   -0.7048   -0.0309 H         1 <0>         0.1111
     32 H12         0.0992    7.1566    1.9790 H         1 <0>         0.1336
     33 H13        -0.7703    7.8588    0.5936 H         1 <0>         0.1342
     34 H14        -2.9121    7.6307    1.8222 H         1 <0>         0.0906
     35 H15        -2.0426    6.9285    3.2076 H         1 <0>         0.0897
     36 H16        -0.7208    9.0141    3.4350 H         1 <0>         0.0896
     37 H17        -1.5902    9.7162    2.0497 H         1 <0>         0.0887
     38 H18        -3.8276   10.5230    2.2781 H         1 <0>         0.1329
     39 H19        -5.6407   11.2435    3.7797 H         1 <0>         0.1341
     40 H20        -5.5969   10.6068    6.1579 H         1 <0>         0.1373
     41 H21        -3.7434    9.2435    7.0338 H         1 <0>         0.1376
     42 N1         -1.1452    5.8124    0.9352 N.4       1 <0>        -0.5187
     43 H22        -1.2176    5.1674    1.7308 H         1 <0>         0.4342
     44 H23        -2.0365    5.8289    0.4258 H         1 <0>         0.4300
@<TRIPOS>BOND
     1    1    2 1
     2    1   22 1
     3    1   23 1
     4    1   24 1
     5    2    3 1
     6    2    4 1
     7    2   42 1
     8    4    9 ar
     9    4    5 ar
    10    5    6 ar
    11    5   25 1
    12    6    7 ar
    13    6   26 1
    14    7    8 ar
    15    7   27 1
    16    8    9 ar
    17    8   10 1
    18    9   28 1
    19   10   11 1
    20   11   29 1
    21   11   30 1
    22   11   31 1
    23   12   13 1
    24   12   32 1
    25   12   33 1
    26   12   42 1
    27   13   14 1
    28   13   34 1
    29   13   35 1
    30   14   15 1
    31   14   36 1
    32   14   37 1
    33   15   20 ar
    34   15   16 ar
    35   16   17 ar
    36   16   38 1
    37   17   18 ar
    38   17   39 1
    39   18   19 ar
    40   18   40 1
    41   19   20 ar
    42   19   41 1
    43   20   21 1
    44   42   43 1
    45   42   44 1
@<TRIPOS>MOLECULE
ZINC45256631
   48    50     0     0     0
SMALL
USER_CHARGES

@<TRIPOS>ATOM
      1 C1          0.0064    1.3559   -0.1265 C.3       1 <0>        -0.1804
      2 C2          0.1111   -0.1705   -0.1386 C.3       1 <0>         0.0765
      3 H1          0.6778   -0.4889   -1.0136 H         1 <0>         0.1525
      4 C3         -1.2713   -0.7684   -0.1905 C.ar      1 <0>        -0.1305
      5 C4         -2.0291   -0.8586    0.9624 C.ar      1 <0>        -0.1176
      6 C5         -3.2970   -1.4068    0.9156 C.ar      1 <0>        -0.0888
      7 C6         -3.8081   -1.8657   -0.2841 C.ar      1 <0>        -0.0841
      8 C7         -3.0504   -1.7757   -1.4379 C.ar      1 <0>        -0.0274
      9 C8         -1.7834   -1.2212   -1.3915 C.ar      1 <0>        -0.0813
     10 Cl1        -3.6914   -2.3518   -2.9449 Cl        1 <0>        -0.0390
     11 N1          0.7953   -0.6241    1.0796 N.4       1 <0>        -0.5061
     12 C9          2.1820   -0.1394    1.0717 C.3       1 <0>         0.1233
     13 H2          2.1877    0.9435    0.9476 H         1 <0>         0.1623
     14 C10         2.9428   -0.7894   -0.0857 C.3       1 <0>        -0.1798
     15 C11         2.8474   -0.4992    2.3751 C.2       1 <0>         0.0539
     16 C12         3.9293    0.1720    2.9534 C.2       1 <0>        -0.3169
     17 C13         4.2345   -0.4553    4.1202 C.2       1 <0>         0.3191
     18 N2          3.3659   -1.4911    4.2667 N.pl3     1 <0>        -0.2993
     19 N3          2.5068   -1.4891    3.1603 N.2       1 <0>        -0.2820
     20 C14         3.3329   -2.3965    5.3366 C.ar      1 <0>         0.1422
     21 C15         3.5124   -1.9435    6.6367 C.ar      1 <0>        -0.1005
     22 C16         3.4789   -2.8374    7.6889 C.ar      1 <0>        -0.0690
     23 C17         3.2672   -4.1834    7.4483 C.ar      1 <0>        -0.0820
     24 C18         3.0885   -4.6374    6.1536 C.ar      1 <0>        -0.0736
     25 C19         3.1149   -3.7468    5.0984 C.ar      1 <0>        -0.0956
     26 Br1         3.2226   -5.4046    8.8914 Br        1 <0>        -0.0230
     27 O1          5.2254   -0.1106    4.9817 O.3       1 <0>        -0.2981
     28 C20         6.0985    0.9459    4.5771 C.3       1 <0>         0.0352
     29 H3          1.0063    1.7883   -0.0889 H         1 <0>         0.0877
     30 H4         -0.5013    1.6924   -1.0304 H         1 <0>         0.1111
     31 H5         -0.5602    1.6743    0.7485 H         1 <0>         0.0852
     32 H6         -1.6300   -0.5008    1.9000 H         1 <0>         0.1262
     33 H7         -3.8885   -1.4770    1.8165 H         1 <0>         0.1460
     34 H8         -4.7985   -2.2947   -0.3205 H         1 <0>         0.1471
     35 H9         -1.1931   -1.1466   -2.2928 H         1 <0>         0.1455
     36 H10         0.3164   -0.2600    1.8897 H         1 <0>         0.4279
     37 H11         2.9371   -1.8723    0.0384 H         1 <0>         0.0868
     38 H12         2.4616   -0.5292   -1.0285 H         1 <0>         0.0925
     39 H13         3.9718   -0.4298   -0.0916 H         1 <0>         0.1132
     40 H14         4.4334    1.0354    2.5450 H         1 <0>         0.1686
     41 H15         3.6784   -0.8931    6.8249 H         1 <0>         0.1426
     42 H16         3.6185   -2.4855    8.7004 H         1 <0>         0.1496
     43 H17         2.9238   -5.6886    5.9684 H         1 <0>         0.1484
     44 H18         2.9706   -4.1010    4.0884 H         1 <0>         0.1416
     45 H19         6.8938    1.0621    5.3133 H         1 <0>         0.1187
     46 H20         6.5337    0.7061    3.6069 H         1 <0>         0.0681
     47 H21         5.5339    1.8753    4.5023 H         1 <0>         0.0687
     48 H22         0.7917   -1.6326    1.1117 H         1 <0>         0.4344
@<TRIPOS>BOND
     1    1    2 1
     2    1   29 1
     3    1   30 1
     4    1   31 1
     5    2    3 1
     6    2    4 1
     7    2   11 1
     8    4    9 ar
     9    4    5 ar
    10    5    6 ar
    11    5   32 1
    12    6    7 ar
    13    6   33 1
    14    7    8 ar
    15    7   34 1
    16    8    9 ar
    17    8   10 1
    18    9   35 1
    19   11   12 1
    20   11   36 1
    21   11   48 1
    22   12   13 1
    23   12   14 1
    24   12   15 1
    25   14   37 1
    26   14   38 1
    27   14   39 1
    28   15   19 2
    29   15   16 1
    30   16   17 2
    31   16   40 1
    32   17   18 1
    33   17   27 1
    34   18   19 1
    35   18   20 1
    36   20   25 ar
    37   20   21 ar
    38   21   22 ar
    39   21   41 1
    40   22   23 ar
    41   22   42 1
    42   23   24 ar
    43   23   26 1
    44   24   25 ar
    45   24   43 1
    46   25   44 1
    47   27   28 1
    48   28   45 1
    49   28   46 1
    50   28   47 1
@<TRIPOS>MOLECULE
ZINC45261420
   63    65     0     0     0
SMALL
USER_CHARGES

@<TRIPOS>ATOM
      1 C1         -0.0187    1.5258    0.0104 C.3       1 <0>        -0.1816
      2 C2          0.0021   -0.0041    0.0020 C.3       1 <0>         0.0599
      3 C3          0.7421   -0.5109    1.2415 C.3       1 <0>        -0.1814
      4 C4         -1.4333   -0.5336    0.0129 C.3       1 <0>        -0.0920
      5 C5         -2.1387   -0.0476    1.2528 C.ar      1 <0>        -0.0951
      6 C6         -2.0859   -0.8123    2.4168 C.ar      1 <0>        -0.1188
      7 C7         -2.7122   -0.4024    3.5535 C.ar      1 <0>        -0.0916
      8 C8         -3.4232    0.8098    3.5571 C.ar      1 <0>        -0.0471
      9 C9         -4.0821    1.2661    4.7116 C.ar      1 <0>        -0.1079
     10 C10        -4.7607    2.4453    4.6779 C.ar      1 <0>        -0.1058
     11 C11        -4.8132    3.2101    3.5139 C.ar      1 <0>        -0.1065
     12 C12        -4.1873    2.7999    2.3772 C.ar      1 <0>        -0.1097
     13 C13        -3.4766    1.5875    2.3735 C.ar      1 <0>        -0.0529
     14 C14        -2.8130    1.1340    1.2206 C.ar      1 <0>        -0.0891
     15 N1          0.6897   -0.4778   -1.2066 N.4       1 <0>        -0.4979
     16 C15         2.0678    0.0307   -1.2170 C.3       1 <0>        -0.0503
     17 C16         2.7840   -0.4628   -2.4758 C.3       1 <0>         0.0871
     18 H1          2.7213   -1.5498   -2.5270 H         1 <0>         0.1338
     19 C17         4.2531   -0.0383   -2.4263 C.3       1 <0>         0.0286
     20 O1          4.9483   -0.5972   -3.5427 O.3       1 <0>        -0.2992
     21 C18         6.2715   -0.3151   -3.6486 C.ar      1 <0>         0.1458
     22 C19         6.8927    0.4781   -2.6961 C.ar      1 <0>        -0.2054
     23 C20         8.2394    0.7643   -2.8049 C.ar      1 <0>        -0.0486
     24 C21         8.9791    0.2631   -3.8634 C.ar      1 <0>        -0.0851
     25 C22         8.3779   -0.5274   -4.8190 C.ar      1 <0>        -0.0326
     26 C23         7.0175   -0.8292   -4.7181 C.ar      1 <0>        -0.0513
     27 C24         6.3877   -1.6544   -5.7045 C.1       1 <0>         0.2640
     28 N2          5.8881   -2.3090   -6.4870 N.1       1 <0>        -0.4195
     29 C25        10.4476    0.5839   -3.9707 C.3       1 <0>        -0.0628
     30 C26        11.2580   -0.4826   -3.2315 C.3       1 <0>        -0.1772
     31 C27        12.7266   -0.1618   -3.3388 C.2       1 <0>         0.4876
     32 O2         13.0912    0.8282   -3.9500 O.co2     1 <0>        -0.6963
     33 O3         13.5501   -0.8922   -2.8145 O.co2     1 <0>        -0.7016
     34 O4          2.1628    0.1050   -3.6307 O.3       1 <0>        -0.5423
     35 H2          1.0039    1.9031    0.0027 H         1 <0>         0.0827
     36 H3         -0.5459    1.8868   -0.8726 H         1 <0>         0.0830
     37 H4         -0.5289    1.8773    0.9072 H         1 <0>         0.1099
     38 H5          0.2319   -0.1594    2.1383 H         1 <0>         0.1105
     39 H6          0.7568   -1.6008    1.2356 H         1 <0>         0.0838
     40 H7          1.7647   -0.1336    1.2338 H         1 <0>         0.0829
     41 H8         -1.9605   -0.1726   -0.8702 H         1 <0>         0.0967
     42 H9         -1.4185   -1.6235    0.0069 H         1 <0>         0.0979
     43 H10        -1.5401   -1.7442    2.4168 H         1 <0>         0.1250
     44 H11        -2.6633   -1.0057    4.4479 H         1 <0>         0.1325
     45 H12        -4.0503    0.6838    5.6206 H         1 <0>         0.1316
     46 H13        -5.2665    2.7935    5.5664 H         1 <0>         0.1290
     47 H14        -5.3591    4.1420    3.5139 H         1 <0>         0.1286
     48 H15        -4.2369    3.4027    1.4825 H         1 <0>         0.1293
     49 H16        -2.8414    1.7183    0.3127 H         1 <0>         0.1285
     50 H17         0.7033   -1.4867   -1.2121 H         1 <0>         0.4286
     51 H18         2.0530    1.1205   -1.2110 H         1 <0>         0.1430
     52 H19         2.5950   -0.3304   -0.3340 H         1 <0>         0.1492
     53 H20         4.3186    1.0490   -2.4647 H         1 <0>         0.0800
     54 H21         4.7039   -0.3970   -1.5010 H         1 <0>         0.0846
     55 H22         6.3227    0.8729   -1.8681 H         1 <0>         0.1312
     56 H23         8.7185    1.3830   -2.0606 H         1 <0>         0.1373
     57 H24         8.9584   -0.9161   -5.6426 H         1 <0>         0.1445
     58 H25        10.7402    0.5998   -5.0206 H         1 <0>         0.0778
     59 H26        10.6398    1.5600   -3.5252 H         1 <0>         0.0777
     60 H27        10.9654   -0.4985   -2.1816 H         1 <0>         0.0576
     61 H28        11.0659   -1.4587   -3.6770 H         1 <0>         0.0587
     62 H29         2.1814    1.0716   -3.6522 H         1 <0>         0.3893
     63 H30         0.2017   -0.1436   -2.0240 H         1 <0>         0.4316
@<TRIPOS>BOND
     1    1    2 1
     2    1   35 1
     3    1   36 1
     4    1   37 1
     5    2    3 1
     6    2    4 1
     7    2   15 1
     8    3   38 1
     9    3   39 1
    10    3   40 1
    11    4    5 1
    12    4   41 1
    13    4   42 1
    14    5   14 ar
    15    5    6 ar
    16    6    7 ar
    17    6   43 1
    18    7    8 ar
    19    7   44 1
    20    8   13 ar
    21    8    9 ar
    22    9   10 ar
    23    9   45 1
    24   10   11 ar
    25   10   46 1
    26   11   12 ar
    27   11   47 1
    28   12   13 ar
    29   12   48 1
    30   13   14 ar
    31   14   49 1
    32   15   16 1
    33   15   50 1
    34   15   63 1
    35   16   17 1
    36   16   51 1
    37   16   52 1
    38   17   18 1
    39   17   19 1
    40   17   34 1
    41   19   20 1
    42   19   53 1
    43   19   54 1
    44   20   21 1
    45   21   26 ar
    46   21   22 ar
    47   22   23 ar
    48   22   55 1
    49   23   24 ar
    50   23   56 1
    51   24   25 ar
    52   24   29 1
    53   25   26 ar
    54   25   57 1
    55   26   27 1
    56   27   28 3
    57   29   30 1
    58   29   58 1
    59   29   59 1
    60   30   31 1
    61   30   60 1
    62   30   61 1
    63   31   32 2
    64   31   33 1
    65   34   62 1
@<TRIPOS>MOLECULE
ZINC45261468
   41    43     0     0     0
SMALL
USER_CHARGES

@<TRIPOS>ATOM
      1 C1         -0.0187    1.5258    0.0104 C.3       1 <0>        -0.1805
      2 C2          0.0021   -0.0041    0.0020 C.3       1 <0>         0.0821
      3 H1          0.5123   -0.3556   -0.8948 H         1 <0>         0.1490
      4 C3         -1.4117   -0.5257    0.0127 C.ar      1 <0>        -0.1455
      5 C4         -2.1228   -0.5709    1.1973 C.ar      1 <0>        -0.1218
      6 C5         -3.4197   -1.0494    1.2071 C.ar      1 <0>        -0.1049
      7 C6         -4.0056   -1.4822    0.0323 C.ar      1 <0>        -0.0912
      8 C7         -3.2949   -1.4361   -1.1525 C.ar      1 <0>        -0.1058
      9 C8         -1.9995   -0.9536   -1.1630 C.ar      1 <0>        -0.0873
     10 N1          0.7126   -0.4907    1.1921 N.4       1 <0>        -0.5066
     11 C9          2.1220   -0.0825    1.1220 C.3       1 <0>         0.0889
     12 C10         2.8508   -0.5817    2.3429 C.2       1 <0>         0.0011
     13 C11         3.5865   -1.7687    2.4306 C.2       1 <0>        -0.2442
     14 C12         4.0851   -1.8582    3.6854 C.2       1 <0>         0.0724
     15 N2          3.6785   -0.7643    4.3686 N.pl3     1 <0>        -0.2875
     16 N3          2.9094    0.0231    3.5020 N.2       1 <0>        -0.2562
     17 C13         3.9771   -0.4687    5.7060 C.ar      1 <0>         0.1279
     18 C14         4.7632   -1.3370    6.4515 C.ar      1 <0>        -0.1277
     19 C15         5.0557   -1.0430    7.7689 C.ar      1 <0>        -0.0905
     20 C16         4.5664    0.1147    8.3455 C.ar      1 <0>        -0.1100
     21 C17         3.7829    0.9812    7.6057 C.ar      1 <0>        -0.0953
     22 C18         3.4921    0.6957    6.2860 C.ar      1 <0>        -0.1111
     23 H2          1.0039    1.9031    0.0027 H         1 <0>         0.0861
     24 H3         -0.5459    1.8868   -0.8726 H         1 <0>         0.1089
     25 H4         -0.5289    1.8773    0.9072 H         1 <0>         0.0831
     26 H5         -1.6650   -0.2328    2.1152 H         1 <0>         0.1185
     27 H6         -3.9750   -1.0854    2.1327 H         1 <0>         0.1351
     28 H7         -5.0186   -1.8567    0.0401 H         1 <0>         0.1360
     29 H8         -3.7525   -1.7745   -2.0703 H         1 <0>         0.1375
     30 H9         -1.4455   -0.9141   -2.0892 H         1 <0>         0.1349
     31 H10         0.2896   -0.0986    2.0201 H         1 <0>         0.4264
     32 H11         2.5788   -0.5061    0.2276 H         1 <0>         0.1541
     33 H12         2.1837    1.0050    1.0814 H         1 <0>         0.1476
     34 H13         3.7304   -2.4871    1.6371 H         1 <0>         0.1664
     35 H14         4.6975   -2.6594    4.0719 H         1 <0>         0.1909
     36 H15         5.1453   -2.2415    6.0018 H         1 <0>         0.1336
     37 H16         5.6668   -1.7182    8.3495 H         1 <0>         0.1410
     38 H17         4.7965    0.3424    9.3759 H         1 <0>         0.1372
     39 H18         3.4016    1.8843    8.0590 H         1 <0>         0.1387
     40 H19         2.8840    1.3752    5.7072 H         1 <0>         0.1370
     41 H20         0.6554   -1.4974    1.2298 H         1 <0>         0.4317
@<TRIPOS>BOND
     1    1    2 1
     2    1   23 1
     3    1   24 1
     4    1   25 1
     5    2    3 1
     6    2    4 1
     7    2   10 1
     8    4    9 ar
     9    4    5 ar
    10    5    6 ar
    11    5   26 1
    12    6    7 ar
    13    6   27 1
    14    7    8 ar
    15    7   28 1
    16    8    9 ar
    17    8   29 1
    18    9   30 1
    19   10   11 1
    20   10   31 1
    21   10   41 1
    22   11   12 1
    23   11   32 1
    24   11   33 1
    25   12   16 2
    26   12   13 1
    27   13   14 2
    28   13   34 1
    29   14   15 1
    30   14   35 1
    31   15   16 1
    32   15   17 1
    33   17   22 ar
    34   17   18 ar
    35   18   19 ar
    36   18   36 1
    37   19   20 ar
    38   19   37 1
    39   20   21 ar
    40   20   38 1
    41   21   22 ar
    42   21   39 1
    43   22   40 1
