@<TRIPOS>MOLECULE
ZINC04899695
   64    63     0     0     0
SMALL
USER_CHARGES
2-acetylamino-N-[1-[(5-amino-1-formyl-pentyl)carbamoyl]-2-methyl-propyl]-4-methyl-pentanamide
@<TRIPOS>ATOM
      1 C1          0.7584   -2.5079   -2.8237 C.3       1 <0>        -0.1475
      2 C2          0.5146   -2.0090   -1.3980 C.3       1 <0>        -0.0917
      3 C3          1.6736   -2.4456   -0.4997 C.3       1 <0>        -0.1526
      4 C4          0.4193   -0.4819   -1.4014 C.3       1 <0>        -0.1266
      5 C5          0.0318    0.0079   -0.0046 C.3       1 <0>         0.1362
      6 H1          0.7601   -0.3526    0.7218 H         1 <0>         0.1086
      7 C6          0.0101    1.5147    0.0111 C.2       1 <0>         0.5075
      8 O1         -1.0439    2.1070   -0.0843 O.2       1 <0>        -0.5008
      9 N1          1.1625    2.2041    0.1257 N.am      1 <0>        -0.7149
     10 C7          1.1414    3.6689    0.1410 C.3       1 <0>         0.1382
     11 H2          0.3522    4.0278   -0.5196 H         1 <0>         0.1118
     12 C8          0.8767    4.1602    1.5656 C.3       1 <0>        -0.0968
     13 C9         -0.4737    3.6256    2.0468 C.3       1 <0>        -0.1382
     14 C10         1.9844    3.6564    2.4930 C.3       1 <0>        -0.1526
     15 C11         2.4715    4.1954   -0.3329 C.2       1 <0>         0.5230
     16 O2          3.3505    3.4232   -0.6521 O.2       1 <0>        -0.5263
     17 N2          2.6842    5.5245   -0.4021 N.am      1 <0>        -0.7177
     18 C12         3.9772    6.0364   -0.8629 C.3       1 <0>         0.0905
     19 H3          4.3417    5.4319   -1.5713 H         1 <0>         0.1095
     20 C13         3.7937    7.4426   -1.4373 C.3       1 <0>        -0.1227
     21 C14         2.9170    7.3717   -2.6892 C.3       1 <0>        -0.1200
     22 C15         2.7335    8.7778   -3.2636 C.3       1 <0>        -0.1531
     23 C16         1.8568    8.7069   -4.5155 C.3       1 <0>        -0.0065
     24 C17         4.9387    6.0888    0.2964 C.2       1 <0>         0.3217
     25 O3          4.5808    5.7351    1.3941 O.2       1 <0>        -0.4299
     26 N3         -1.2968   -0.5033    0.3410 N.am      1 <0>        -0.7222
     27 C18        -2.3609   -0.1850   -0.4224 C.2       1 <0>         0.5198
     28 O4         -2.2185    0.5246   -1.3956 O.2       1 <0>        -0.5182
     29 C19        -3.7277   -0.7108   -0.0669 C.3       1 <0>        -0.1730
     30 H4          0.8617   -3.5929   -2.8162 H         1 <0>         0.0574
     31 H5         -0.0841   -2.2274   -3.4558 H         1 <0>         0.0544
     32 H6          1.6713   -2.0587   -3.2147 H         1 <0>         0.0543
     33 H7         -0.4168   -2.4303   -1.0199 H         1 <0>         0.0723
     34 H8          1.4999   -2.0902    0.5160 H         1 <0>         0.0528
     35 H9          1.7415   -3.5335   -0.4973 H         1 <0>         0.0582
     36 H10         2.6050   -2.0243   -0.8778 H         1 <0>         0.0566
     37 H11        -0.3374   -0.1667   -2.1198 H         1 <0>         0.0926
     38 H12         1.3840   -0.0583   -1.6803 H         1 <0>         0.0732
     39 H13         2.0059    1.7304    0.1980 H         1 <0>         0.4084
     40 H14         0.8609    5.2501    1.5770 H         1 <0>         0.0773
     41 H15        -0.4580    2.5358    2.0354 H         1 <0>         0.0563
     42 H16        -0.6623    3.9757    3.0617 H         1 <0>         0.0532
     43 H17        -1.2629    3.9845    1.3861 H         1 <0>         0.0637
     44 H18         2.9465    4.0373    2.1501 H         1 <0>         0.0636
     45 H19         1.7958    4.0065    3.5079 H         1 <0>         0.0603
     46 H20         2.0001    2.5666    2.4816 H         1 <0>         0.0559
     47 H21         1.9811    6.1421   -0.1469 H         1 <0>         0.4046
     48 H22         3.3142    8.0791   -0.6936 H         1 <0>         0.0807
     49 H23         4.7669    7.8583   -1.6983 H         1 <0>         0.0948
     50 H24         3.3964    6.7351   -3.4329 H         1 <0>         0.0807
     51 H25         1.9438    6.9559   -2.4282 H         1 <0>         0.0786
     52 H26         2.2541    9.4144   -2.5199 H         1 <0>         0.0896
     53 H27         3.7067    9.1936   -3.5246 H         1 <0>         0.0904
     54 H28         2.3362    8.0704   -5.2592 H         1 <0>         0.1326
     55 H29         0.8836    8.2912   -4.2546 H         1 <0>         0.1351
     56 H30         1.1047   10.0370   -5.8953 H         1 <0>         0.4414
     57 H31         1.2970   10.6831   -4.3750 H         1 <0>         0.4373
     58 H32         5.9478    6.4428    0.1454 H         1 <0>         0.1074
     59 H33        -1.4107   -1.0708    1.1194 H         1 <0>         0.4054
     60 H34        -4.2257   -0.0069    0.5999 H         1 <0>         0.0926
     61 H35        -4.3184   -0.8310   -0.9750 H         1 <0>         0.0921
     62 H36        -3.6277   -1.6750    0.4317 H         1 <0>         0.0783
     63 N4          1.7047   10.0627   -5.0725 N.4       1 <0>        -0.6476
     64 H37         2.6278   10.4223   -5.3421 H         1 <0>         0.4397
@<TRIPOS>BOND
     1    1    2 1
     2    1   30 1
     3    1   31 1
     4    1   32 1
     5    2    3 1
     6    2    4 1
     7    2   33 1
     8    3   34 1
     9    3   35 1
    10    3   36 1
    11    4    5 1
    12    4   37 1
    13    4   38 1
    14    5    6 1
    15    5    7 1
    16    5   26 1
    17    7    8 2
    18    7    9 am
    19    9   10 1
    20    9   39 1
    21   10   11 1
    22   10   12 1
    23   10   15 1
    24   12   13 1
    25   12   14 1
    26   12   40 1
    27   13   41 1
    28   13   42 1
    29   13   43 1
    30   14   44 1
    31   14   45 1
    32   14   46 1
    33   15   16 2
    34   15   17 am
    35   17   18 1
    36   17   47 1
    37   18   19 1
    38   18   20 1
    39   18   24 1
    40   20   21 1
    41   20   48 1
    42   20   49 1
    43   21   22 1
    44   21   50 1
    45   21   51 1
    46   22   23 1
    47   22   52 1
    48   22   53 1
    49   23   54 1
    50   23   55 1
    51   23   63 1
    52   24   25 2
    53   24   58 1
    54   26   27 am
    55   26   59 1
    56   27   28 2
    57   27   29 1
    58   29   60 1
    59   29   61 1
    60   29   62 1
    61   56   63 1
    62   57   63 1
    63   63   64 1
