@<TRIPOS>MOLECULE
ZINC04095645
   52    52     0     0     0
SMALL
USER_CHARGES

@<TRIPOS>ATOM
      1 C1         -0.7138   -2.5640   -0.4210 C.3       1 <0>        -0.1550
      2 C2         -1.5731   -1.7628    0.5591 C.3       1 <0>        -0.1020
      3 C3         -1.0752   -2.0006    1.9862 C.3       1 <0>        -0.1465
      4 C4         -1.4727   -0.2730    0.2255 C.3       1 <0>        -0.1272
      5 C5         -2.1217   -0.0102   -1.1349 C.3       1 <0>         0.1280
      6 H1         -1.6692   -0.6591   -1.8847 H         1 <0>         0.1152
      7 C6         -3.5991   -0.2948   -1.0500 C.2       1 <0>         0.5162
      8 O1         -4.3871    0.6198   -0.9329 O.2       1 <0>        -0.5177
      9 N1         -4.0448   -1.5655   -1.1042 N.am      1 <0>        -0.7340
     10 C7         -5.4844   -1.8364   -1.1291 C.3       1 <0>         0.1167
     11 C8         -5.7180   -3.3472   -1.1906 C.3       1 <0>        -0.1305
     12 C9         -7.2214   -3.6302   -1.2165 C.3       1 <0>        -0.1313
     13 C10        -7.4550   -5.1410   -1.2780 C.3       1 <0>         0.0931
     14 N2         -8.8945   -5.4119   -1.3029 N.pl3     1 <0>        -0.6928
     15 C11        -9.3469   -6.7016   -1.3579 C.cat     1 <0>         0.7409
     16 N3        -10.6557   -6.9479   -1.3805 N.pl3     1 <0>        -0.7959
     17 N4         -8.4786   -7.7112   -1.3889 N.pl3     1 <0>        -0.7940
     18 N5         -1.9150    1.3902   -1.5121 N.am      1 <0>        -0.7100
     19 C12        -0.8081    1.7485   -2.1925 C.2       1 <0>         0.5464
     20 O2         -0.0284    0.9005   -2.5718 O.2       1 <0>        -0.5314
     21 C13        -0.5393    3.2028   -2.4820 C.3       1 <0>        -0.0416
     22 H2         -1.0786    3.6237   -3.3306 H         1 <0>         0.1494
     23 C14        -0.2465    4.1236   -1.2957 C.3       1 <0>        -0.0276
     24 H3         -0.2465    3.6830   -0.2987 H         1 <0>         0.1137
     25 O3          0.7708    3.7047   -2.2104 O.3       1 <0>        -0.3182
     26 C15        -0.7234    5.5507   -1.3799 C.2       1 <0>         0.5091
     27 O4         -1.9177    5.7932   -1.4162 O.co2     1 <0>        -0.6728
     28 O5          0.0851    6.4627   -1.4118 O.co2     1 <0>        -0.6670
     29 H4         -0.7071   -3.6130   -0.1249 H         1 <0>         0.0565
     30 H5         -1.1272   -2.4726   -1.4254 H         1 <0>         0.0534
     31 H6          0.3052   -2.1772   -0.4109 H         1 <0>         0.0656
     32 H7         -2.6116   -2.0841    0.4784 H         1 <0>         0.0707
     33 H8         -0.0367   -1.6793    2.0669 H         1 <0>         0.0600
     34 H9         -1.6874   -1.4298    2.6844 H         1 <0>         0.0559
     35 H10        -1.1467   -3.0619    2.2239 H         1 <0>         0.0551
     36 H11        -1.9877    0.3064    0.9918 H         1 <0>         0.0766
     37 H12        -0.4239    0.0216    0.1907 H         1 <0>         0.0871
     38 H13        -3.4125   -2.3007   -1.1268 H         1 <0>         0.4033
     39 H14        -5.9455   -1.4339   -0.2271 H         1 <0>         0.0730
     40 H15        -5.9279   -1.3642   -2.0057 H         1 <0>         0.0716
     41 H16        -5.2569   -3.7498   -2.0925 H         1 <0>         0.0792
     42 H17        -5.2745   -3.8195   -0.3140 H         1 <0>         0.0792
     43 H18        -7.6825   -3.2276   -0.3146 H         1 <0>         0.0868
     44 H19        -7.6649   -3.1580   -2.0931 H         1 <0>         0.0868
     45 H20        -6.9939   -5.5435   -2.1800 H         1 <0>         0.0938
     46 H21        -7.0115   -5.6132   -0.4014 H         1 <0>         0.0938
     47 H22        -9.5269   -4.6767   -1.2803 H         1 <0>         0.4368
     48 H23       -11.2880   -6.2127   -1.3580 H         1 <0>         0.4411
     49 H24        -7.5255   -7.5318   -1.3724 H         1 <0>         0.4401
     50 H25        -8.7994   -8.6258   -1.4279 H         1 <0>         0.4400
     51 H26        -2.5747    2.0596   -1.2722 H         1 <0>         0.4200
     52 H27       -10.9765   -7.8625   -1.4195 H         1 <0>         0.4403
@<TRIPOS>BOND
     1    1    2 1
     2    1   29 1
     3    1   30 1
     4    1   31 1
     5    2    3 1
     6    2    4 1
     7    2   32 1
     8    3   33 1
     9    3   34 1
    10    3   35 1
    11    4    5 1
    12    4   36 1
    13    4   37 1
    14    5    6 1
    15    5    7 1
    16    5   18 1
    17    7    8 2
    18    7    9 am
    19    9   10 1
    20    9   38 1
    21   10   11 1
    22   10   39 1
    23   10   40 1
    24   11   12 1
    25   11   41 1
    26   11   42 1
    27   12   13 1
    28   12   43 1
    29   12   44 1
    30   13   14 1
    31   13   45 1
    32   13   46 1
    33   14   15 1
    34   14   47 1
    35   15   16 2
    36   15   17 1
    37   16   48 1
    38   16   52 1
    39   17   49 1
    40   17   50 1
    41   18   19 am
    42   18   51 1
    43   19   20 2
    44   19   21 1
    45   21   22 1
    46   21   25 1
    47   21   23 1
    48   23   24 1
    49   23   25 1
    50   23   26 1
    51   26   27 2
    52   26   28 1
@<TRIPOS>MOLECULE
ZINC04475165
   52    52     0     0     0
SMALL
USER_CHARGES

@<TRIPOS>ATOM
      1 C1         -0.7600   -2.5948   -0.4137 C.3       1 <0>        -0.1547
      2 C2         -1.6080   -1.7789    0.5642 C.3       1 <0>        -0.1033
      3 C3         -1.1153   -2.0220    1.9922 C.3       1 <0>        -0.1443
      4 C4         -1.4843   -0.2914    0.2283 C.3       1 <0>        -0.1230
      5 C5         -2.1282   -0.0207   -1.1330 C.3       1 <0>         0.1313
      6 H1         -1.6851   -0.6777   -1.8815 H         1 <0>         0.1086
      7 C6         -3.6099   -0.2824   -1.0488 C.2       1 <0>         0.5152
      8 O1         -4.3837    0.6443   -0.9325 O.2       1 <0>        -0.4988
      9 N1         -4.0752   -1.5461   -1.1028 N.am      1 <0>        -0.7389
     10 C7         -5.5187   -1.7948   -1.1283 C.3       1 <0>         0.1185
     11 C8         -5.7756   -3.3018   -1.1894 C.3       1 <0>        -0.1294
     12 C9         -7.2832   -3.5615   -1.2160 C.3       1 <0>        -0.1314
     13 C10        -7.5401   -5.0685   -1.2771 C.3       1 <0>         0.0930
     14 N2         -8.9836   -5.3171   -1.3026 N.pl3     1 <0>        -0.6914
     15 C11        -9.4558   -6.5998   -1.3574 C.cat     1 <0>         0.7403
     16 N3        -10.7683   -6.8258   -1.3806 N.pl3     1 <0>        -0.7969
     17 N4         -8.6032   -7.6226   -1.3874 N.pl3     1 <0>        -0.7943
     18 N5         -1.8996    1.3758   -1.5123 N.am      1 <0>        -0.6857
     19 C12        -0.7853    1.7164   -2.1895 C.2       1 <0>         0.5493
     20 O2         -0.0162    0.8565   -2.5634 O.2       1 <0>        -0.5428
     21 C13        -0.4950    3.1660   -2.4823 C.3       1 <0>        -0.0439
     22 H2         -0.0537    3.7346   -1.6637 H         1 <0>         0.1435
     23 C14        -1.4374    3.9033   -3.4358 C.3       1 <0>        -0.0395
     24 H3         -1.6209    4.9617   -3.2508 H         1 <0>         0.1207
     25 O3         -0.1143    3.5128   -3.8152 O.3       1 <0>        -0.3217
     26 C15        -2.5934    3.1310   -4.0173 C.2       1 <0>         0.5042
     27 O4         -3.4773    2.7151   -3.2876 O.co2     1 <0>        -0.6593
     28 O5         -2.6449    2.9221   -5.2173 O.co2     1 <0>        -0.6715
     29 H4         -0.7698   -3.6433   -0.1159 H         1 <0>         0.0548
     30 H5         -1.1709   -2.4987   -1.4187 H         1 <0>         0.0557
     31 H6          0.2648   -2.2237   -0.4031 H         1 <0>         0.0638
     32 H7         -2.6512   -2.0843    0.4828 H         1 <0>         0.0725
     33 H8         -0.0721   -1.7166    2.0735 H         1 <0>         0.0579
     34 H9         -1.7194   -1.4407    2.6888 H         1 <0>         0.0543
     35 H10        -1.2034   -3.0817    2.2315 H         1 <0>         0.0537
     36 H11        -1.9908    0.2972    0.9932 H         1 <0>         0.0726
     37 H12        -0.4310   -0.0130    0.1938 H         1 <0>         0.0828
     38 H13        -3.4542   -2.2910   -1.1247 H         1 <0>         0.3993
     39 H14        -5.9740   -1.3848   -0.2268 H         1 <0>         0.0696
     40 H15        -5.9543   -1.3161   -2.0054 H         1 <0>         0.0719
     41 H16        -5.3203   -3.7118   -2.0909 H         1 <0>         0.0788
     42 H17        -5.3399   -3.7805   -0.3123 H         1 <0>         0.0771
     43 H18        -7.7385   -3.1515   -0.3146 H         1 <0>         0.0858
     44 H19        -7.7188   -3.0828   -2.0931 H         1 <0>         0.0875
     45 H20        -7.0848   -5.4785   -2.1786 H         1 <0>         0.0942
     46 H21        -7.1044   -5.5472   -0.4000 H         1 <0>         0.0933
     47 H22        -9.6045   -4.5722   -1.2807 H         1 <0>         0.4369
     48 H23       -11.3892   -6.0809   -1.3587 H         1 <0>         0.4409
     49 H24        -7.6475   -7.4580   -1.3705 H         1 <0>         0.4403
     50 H25        -8.9381   -8.5322   -1.4263 H         1 <0>         0.4394
     51 H26        -2.5503    2.0552   -1.2760 H         1 <0>         0.4236
     52 H27       -11.1031   -7.7354   -1.4194 H         1 <0>         0.4397
@<TRIPOS>BOND
     1    1    2 1
     2    1   29 1
     3    1   30 1
     4    1   31 1
     5    2    3 1
     6    2    4 1
     7    2   32 1
     8    3   33 1
     9    3   34 1
    10    3   35 1
    11    4    5 1
    12    4   36 1
    13    4   37 1
    14    5    6 1
    15    5    7 1
    16    5   18 1
    17    7    8 2
    18    7    9 am
    19    9   10 1
    20    9   38 1
    21   10   11 1
    22   10   39 1
    23   10   40 1
    24   11   12 1
    25   11   41 1
    26   11   42 1
    27   12   13 1
    28   12   43 1
    29   12   44 1
    30   13   14 1
    31   13   45 1
    32   13   46 1
    33   14   15 1
    34   14   47 1
    35   15   16 2
    36   15   17 1
    37   16   48 1
    38   16   52 1
    39   17   49 1
    40   17   50 1
    41   18   19 am
    42   18   51 1
    43   19   20 2
    44   19   21 1
    45   21   22 1
    46   21   25 1
    47   21   23 1
    48   23   24 1
    49   23   25 1
    50   23   26 1
    51   26   27 2
    52   26   28 1
@<TRIPOS>MOLECULE
ZINC36379291
   32    34     0     0     0
SMALL
USER_CHARGES

@<TRIPOS>ATOM
      1 C1          0.2878    0.9295    0.1333 C.3       1 <0>        -0.1722
      2 C2          0.1896   -0.5791   -0.1024 C.3       1 <0>         0.1039
      3 N1         -1.2171   -0.9872   -0.0741 N.pl3     1 <0>        -0.4641
      4 C3         -1.8950   -1.4700    1.0041 C.2       1 <0>         0.2769
      5 N2         -3.1277   -1.7321    0.6754 N.2       1 <0>        -0.4645
      6 C4         -3.3196   -1.4356   -0.6301 C.ar      1 <0>        -0.0696
      7 C5         -2.0962   -0.9478   -1.1282 C.ar      1 <0>         0.3016
      8 N3         -2.0174   -0.5773   -2.3983 N.ar      1 <0>        -0.5018
      9 C6         -3.0751   -0.6605   -3.1921 C.ar      1 <0>         0.4627
     10 N4         -4.2500   -1.1115   -2.7641 N.ar      1 <0>        -0.5421
     11 C7         -4.4155   -1.5107   -1.5099 C.ar      1 <0>         0.5044
     12 N5         -5.6437   -1.9782   -1.0722 N.pl3     1 <0>        -0.6278
     13 C8         -6.6871   -2.1611   -1.9840 C.ar      1 <0>         0.2135
     14 C9         -6.4125   -2.5724   -3.2818 C.ar      1 <0>        -0.1634
     15 C10        -7.4468   -2.7533   -4.1824 C.ar      1 <0>         0.1557
     16 C11        -8.7552   -2.5241   -3.7910 C.ar      1 <0>        -0.2069
     17 C12        -9.0313   -2.1140   -2.4974 C.ar      1 <0>         0.1557
     18 C13        -8.0005   -1.9374   -1.5918 C.ar      1 <0>        -0.1919
     19 F1        -10.3086   -1.8907   -2.1182 F         1 <0>        -0.1256
     20 F2         -7.1803   -3.1533   -5.4450 F         1 <0>        -0.1248
     21 C14        -2.9482   -0.2500   -4.5581 C.1       1 <0>         0.2859
     22 N6         -2.8475    0.0757   -5.6418 N.1       1 <0>        -0.3467
     23 H1          1.3345    1.2331    0.1123 H         1 <0>         0.0835
     24 H2         -0.2590    1.4558   -0.6490 H         1 <0>         0.0658
     25 H3         -0.1420    1.1742    1.1046 H         1 <0>         0.0649
     26 H4          0.6195   -0.8238   -1.0737 H         1 <0>         0.1005
     27 H5          0.7365   -1.1054    0.6799 H         1 <0>         0.1057
     28 H6         -1.4723   -1.6142    1.9875 H         1 <0>         0.2314
     29 H7         -5.7797   -2.1786   -0.1330 H         1 <0>         0.4368
     30 H8         -5.3922   -2.7505   -3.5878 H         1 <0>         0.1529
     31 H9         -9.5614   -2.6651   -4.4956 H         1 <0>         0.1514
     32 H10        -8.2167   -1.6218   -0.5818 H         1 <0>         0.1480
@<TRIPOS>BOND
     1    1    2 1
     2    1   23 1
     3    1   24 1
     4    1   25 1
     5    2    3 1
     6    2   26 1
     7    2   27 1
     8    3    7 1
     9    3    4 1
    10    4    5 2
    11    4   28 1
    12    5    6 1
    13    6   11 ar
    14    6    7 ar
    15    7    8 ar
    16    8    9 ar
    17    9   10 ar
    18    9   21 1
    19   10   11 ar
    20   11   12 1
    21   12   13 1
    22   12   29 1
    23   13   18 ar
    24   13   14 ar
    25   14   15 ar
    26   14   30 1
    27   15   16 ar
    28   15   20 1
    29   16   17 ar
    30   16   31 1
    31   17   18 ar
    32   17   19 1
    33   18   32 1
    34   21   22 3
