@<TRIPOS>MOLECULE
ZINC36379291
   32    34     0     0     0
SMALL
USER_CHARGES

@<TRIPOS>ATOM
      1 C1          0.2878    0.9295    0.1333 C.3       1 <0>        -0.1722
      2 C2          0.1896   -0.5791   -0.1024 C.3       1 <0>         0.1039
      3 N1         -1.2171   -0.9872   -0.0741 N.pl3     1 <0>        -0.4641
      4 C3         -1.8950   -1.4700    1.0041 C.2       1 <0>         0.2769
      5 N2         -3.1277   -1.7321    0.6754 N.2       1 <0>        -0.4645
      6 C4         -3.3196   -1.4356   -0.6301 C.ar      1 <0>        -0.0696
      7 C5         -2.0962   -0.9478   -1.1282 C.ar      1 <0>         0.3016
      8 N3         -2.0174   -0.5773   -2.3983 N.ar      1 <0>        -0.5018
      9 C6         -3.0751   -0.6605   -3.1921 C.ar      1 <0>         0.4627
     10 N4         -4.2500   -1.1115   -2.7641 N.ar      1 <0>        -0.5421
     11 C7         -4.4155   -1.5107   -1.5099 C.ar      1 <0>         0.5044
     12 N5         -5.6437   -1.9782   -1.0722 N.pl3     1 <0>        -0.6278
     13 C8         -6.6871   -2.1611   -1.9840 C.ar      1 <0>         0.2135
     14 C9         -6.4125   -2.5724   -3.2818 C.ar      1 <0>        -0.1634
     15 C10        -7.4468   -2.7533   -4.1824 C.ar      1 <0>         0.1557
     16 C11        -8.7552   -2.5241   -3.7910 C.ar      1 <0>        -0.2069
     17 C12        -9.0313   -2.1140   -2.4974 C.ar      1 <0>         0.1557
     18 C13        -8.0005   -1.9374   -1.5918 C.ar      1 <0>        -0.1919
     19 F1        -10.3086   -1.8907   -2.1182 F         1 <0>        -0.1256
     20 F2         -7.1803   -3.1533   -5.4450 F         1 <0>        -0.1248
     21 C14        -2.9482   -0.2500   -4.5581 C.1       1 <0>         0.2859
     22 N6         -2.8475    0.0757   -5.6418 N.1       1 <0>        -0.3467
     23 H1          1.3345    1.2331    0.1123 H         1 <0>         0.0835
     24 H2         -0.2590    1.4558   -0.6490 H         1 <0>         0.0658
     25 H3         -0.1420    1.1742    1.1046 H         1 <0>         0.0649
     26 H4          0.6195   -0.8238   -1.0737 H         1 <0>         0.1005
     27 H5          0.7365   -1.1054    0.6799 H         1 <0>         0.1057
     28 H6         -1.4723   -1.6142    1.9875 H         1 <0>         0.2314
     29 H7         -5.7797   -2.1786   -0.1330 H         1 <0>         0.4368
     30 H8         -5.3922   -2.7505   -3.5878 H         1 <0>         0.1529
     31 H9         -9.5614   -2.6651   -4.4956 H         1 <0>         0.1514
     32 H10        -8.2167   -1.6218   -0.5818 H         1 <0>         0.1480
@<TRIPOS>BOND
     1    1    2 1
     2    1   23 1
     3    1   24 1
     4    1   25 1
     5    2    3 1
     6    2   26 1
     7    2   27 1
     8    3    7 1
     9    3    4 1
    10    4    5 2
    11    4   28 1
    12    5    6 1
    13    6   11 ar
    14    6    7 ar
    15    7    8 ar
    16    8    9 ar
    17    9   10 ar
    18    9   21 1
    19   10   11 ar
    20   11   12 1
    21   12   13 1
    22   12   29 1
    23   13   18 ar
    24   13   14 ar
    25   14   15 ar
    26   14   30 1
    27   15   16 ar
    28   15   20 1
    29   16   17 ar
    30   16   31 1
    31   17   18 ar
    32   17   19 1
    33   18   32 1
    34   21   22 3
