@<TRIPOS>MOLECULE
ZINC03872070
   29    31     0     0     0
SMALL
USER_CHARGES

@<TRIPOS>ATOM
      1 C1         -0.0167    1.3795    0.0096 C.ar      1 <0>        -0.0927
      2 C2          1.1683    2.0940    0.0021 C.ar      1 <0>        -0.1229
      3 C3          2.3774    1.4303   -0.0130 C.ar      1 <0>        -0.0794
      4 C4          2.4038    0.0341   -0.0208 C.ar      1 <0>        -0.0750
      5 C5          1.2040   -0.6806   -0.0131 C.ar      1 <0>        -0.0800
      6 C6          0.0021   -0.0041    0.0020 C.ar      1 <0>        -0.1206
      7 C7          3.6945   -0.6834   -0.0374 C.2       1 <0>         0.2076
      8 C8          3.6865   -2.0422   -0.0503 C.2       1 <0>        -0.3115
      9 C9          4.9147   -2.7475   -0.0669 C.2       1 <0>         0.4227
     10 O1          4.9453   -3.9673   -0.0791 O.2       1 <0>        -0.4538
     11 C10         6.1531   -1.9509   -0.0693 C.ar      1 <0>        -0.2663
     12 C11         7.4124   -2.5640   -0.0858 C.ar      1 <0>         0.2193
     13 C12         8.5511   -1.7802   -0.0879 C.ar      1 <0>        -0.2051
     14 C13         8.4449   -0.3935   -0.0739 C.ar      1 <0>         0.1922
     15 C14         7.2019    0.2199   -0.0571 C.ar      1 <0>        -0.1832
     16 C15         6.0486   -0.5493   -0.0551 C.ar      1 <0>         0.1831
     17 O2          4.8303    0.0319   -0.0449 O.3       1 <0>        -0.2180
     18 O3          9.5695    0.3668   -0.0761 O.3       1 <0>        -0.4872
     19 O4          7.5139   -3.9173   -0.0990 O.3       1 <0>        -0.4722
     20 H1         -0.9606    1.9042    0.0260 H         1 <0>         0.1309
     21 H2          1.1464    3.1738    0.0078 H         1 <0>         0.1326
     22 H3          3.3016    1.9892   -0.0192 H         1 <0>         0.1349
     23 H4          1.2173   -1.7605   -0.0194 H         1 <0>         0.1361
     24 H5         -0.9265   -0.5555    0.0079 H         1 <0>         0.1347
     25 H6          2.7503   -2.5805   -0.0475 H         1 <0>         0.1636
     26 H7          9.5256   -2.2457   -0.1002 H         1 <0>         0.1502
     27 H8          7.1320    1.2975   -0.0459 H         1 <0>         0.1533
     28 H9          9.8879    0.5955   -0.9601 H         1 <0>         0.4037
     29 H10         7.5357   -4.3014   -0.9862 H         1 <0>         0.4030
@<TRIPOS>BOND
     1    1    6 ar
     2    1    2 ar
     3    1   20 1
     4    2    3 ar
     5    2   21 1
     6    3    4 ar
     7    3   22 1
     8    4    5 ar
     9    4    7 1
    10    5    6 ar
    11    5   23 1
    12    6   24 1
    13    7   17 1
    14    7    8 2
    15    8    9 1
    16    8   25 1
    17    9   10 2
    18    9   11 1
    19   11   16 ar
    20   11   12 ar
    21   12   13 ar
    22   12   19 1
    23   13   14 ar
    24   13   26 1
    25   14   15 ar
    26   14   18 1
    27   15   16 ar
    28   15   27 1
    29   16   17 1
    30   18   28 1
    31   19   29 1
@<TRIPOS>MOLECULE
ZINC03872070
   28    30     0     0     0
SMALL
USER_CHARGES

@<TRIPOS>ATOM
      1 C1         -0.0167    1.3797    0.0096 C.ar      1 <0>        -0.1070
      2 C2          1.1682    2.0946    0.0022 C.ar      1 <0>        -0.1239
      3 C3          2.3774    1.4315   -0.0129 C.ar      1 <0>        -0.0844
      4 C4          2.4042    0.0344   -0.0206 C.ar      1 <0>        -0.0523
      5 C5          1.2037   -0.6807   -0.0130 C.ar      1 <0>        -0.0872
      6 C6          0.0021   -0.0041    0.0020 C.ar      1 <0>        -0.1230
      7 C7          3.6938   -0.6822   -0.0372 C.2       1 <0>         0.1725
      8 C8          3.6987   -2.0599   -0.0503 C.2       1 <0>        -0.2684
      9 C9          4.9147   -2.7500   -0.0661 C.2       1 <0>         0.3652
     10 C10         6.1116   -2.0009   -0.0682 C.2       1 <0>        -0.3412
     11 C11         7.3668   -2.6443   -0.0844 C.2       1 <0>         0.2654
     12 C12         8.5111   -1.9002   -0.0865 C.2       1 <0>        -0.3783
     13 C13         8.4435   -0.4975   -0.0722 C.2       1 <0>         0.3617
     14 O1          9.5678    0.2204   -0.0740 O.2       1 <0>        -0.6670
     15 C14         7.2040    0.1518   -0.0566 C.2       1 <0>        -0.3151
     16 C15         6.0392   -0.5896   -0.0543 C.2       1 <0>         0.2114
     17 O2          4.8365    0.0229   -0.0448 O.3       1 <0>        -0.2195
     18 O3          7.4365   -3.9993   -0.0974 O.3       1 <0>        -0.4477
     19 O4          4.9436   -4.1007   -0.0786 O.3       1 <0>        -0.5790
     20 H1         -0.9606    1.9042    0.0260 H         1 <0>         0.1247
     21 H2          1.1460    3.1743    0.0078 H         1 <0>         0.1280
     22 H3          3.3014    1.9906   -0.0191 H         1 <0>         0.1359
     23 H4          1.2169   -1.7606   -0.0192 H         1 <0>         0.1351
     24 H5         -0.9266   -0.5554    0.0079 H         1 <0>         0.1291
     25 H6          2.7663   -2.6050   -0.0479 H         1 <0>         0.1462
     26 H7          9.4725   -2.3921   -0.0990 H         1 <0>         0.1160
     27 H8          7.1585    1.2308   -0.0456 H         1 <0>         0.1202
     28 H9          8.3389   -4.3466   -0.1079 H         1 <0>         0.3827
@<TRIPOS>BOND
     1    1    6 ar
     2    1    2 ar
     3    1   20 1
     4    2    3 ar
     5    2   21 1
     6    3    4 ar
     7    3   22 1
     8    4    5 ar
     9    4    7 1
    10    5    6 ar
    11    5   23 1
    12    6   24 1
    13    7   17 1
    14    7    8 2
    15    8    9 1
    16    8   25 1
    17    9   10 2
    18    9   19 1
    19   10   16 1
    20   10   11 1
    21   11   12 2
    22   11   18 1
    23   12   13 1
    24   12   26 1
    25   13   14 2
    26   13   15 1
    27   15   16 2
    28   15   27 1
    29   16   17 1
    30   18   28 1
@<TRIPOS>MOLECULE
ZINC18847037
   33    35     0     0     0
SMALL
USER_CHARGES

@<TRIPOS>ATOM
      1 C1         -0.0173    1.4248    0.0099 C.3       1 <0>         0.0257
      2 O1          0.0021   -0.0041    0.0020 O.3       1 <0>        -0.3163
      3 C2          0.6259   -0.6184    1.0416 C.ar      1 <0>         0.1346
      4 C3          1.2017    0.1413    2.0505 C.ar      1 <0>        -0.2081
      5 C4          1.8351   -0.4792    3.1070 C.ar      1 <0>        -0.0652
      6 C5          1.8965   -1.8707    3.1609 C.ar      1 <0>        -0.0695
      7 C6          1.3173   -2.6308    2.1463 C.ar      1 <0>        -0.0470
      8 C7          0.6807   -2.0044    1.0951 C.ar      1 <0>        -0.1503
      9 C8          2.5773   -2.5411    4.2955 C.2       1 <0>        -0.2301
     10 C9          2.0898   -2.4416    5.5593 C.2       1 <0>         0.1222
     11 O2          2.6644   -3.0420    6.6041 O.3       1 <0>        -0.2153
     12 C10         3.9203   -3.5262    6.5411 C.ar      1 <0>         0.1758
     13 C11         4.6109   -3.8503    7.7004 C.ar      1 <0>        -0.1825
     14 C12         5.8988   -4.3556    7.6239 C.ar      1 <0>         0.1909
     15 C13         6.5160   -4.5473    6.3921 C.ar      1 <0>        -0.2036
     16 C14         5.8471   -4.2284    5.2249 C.ar      1 <0>         0.2177
     17 C15         4.5483   -3.7100    5.2959 C.ar      1 <0>        -0.2618
     18 C16         3.7998   -3.3401    4.0813 C.2       1 <0>         0.4315
     19 O3          4.1694   -3.6700    2.9673 O.2       1 <0>        -0.4364
     20 O4          6.4443   -4.4158    4.0209 O.3       1 <0>        -0.4758
     21 O5          6.5661   -4.6669    8.7643 O.3       1 <0>        -0.4882
     22 H1          1.0053    1.8021    0.0021 H         1 <0>         0.0568
     23 H2         -0.5445    1.7859   -0.8732 H         1 <0>         0.1019
     24 H3         -0.5275    1.7763    0.9067 H         1 <0>         0.0568
     25 H4          1.1541    1.2194    2.0079 H         1 <0>         0.1317
     26 H5          2.2833    0.1125    3.8915 H         1 <0>         0.1264
     27 H6          1.3632   -3.7091    2.1852 H         1 <0>         0.1304
     28 H7          0.2278   -2.5928    0.3108 H         1 <0>         0.1347
     29 H8          1.2005   -1.8518    5.7260 H         1 <0>         0.2010
     30 H9          4.1439   -3.7080    8.6637 H         1 <0>         0.1535
     31 H10         7.5190   -4.9453    6.3475 H         1 <0>         0.1500
     32 H11         6.2888   -5.2893    3.6365 H         1 <0>         0.4049
     33 H12         6.4352   -5.5781    9.0604 H         1 <0>         0.4038
@<TRIPOS>BOND
     1    1    2 1
     2    1   22 1
     3    1   23 1
     4    1   24 1
     5    2    3 1
     6    3    8 ar
     7    3    4 ar
     8    4    5 ar
     9    4   25 1
    10    5    6 ar
    11    5   26 1
    12    6    7 ar
    13    6    9 1
    14    7    8 ar
    15    7   27 1
    16    8   28 1
    17    9   18 1
    18    9   10 2
    19   10   11 1
    20   10   29 1
    21   11   12 1
    22   12   17 ar
    23   12   13 ar
    24   13   14 ar
    25   13   30 1
    26   14   15 ar
    27   14   21 1
    28   15   16 ar
    29   15   31 1
    30   16   17 ar
    31   16   20 1
    32   17   18 1
    33   18   19 2
    34   20   32 1
    35   21   33 1
@<TRIPOS>MOLECULE
ZINC13515668
   42    44     0     0     0
SMALL
USER_CHARGES
chloro-dihydroxy-methyl-BLAHdione
@<TRIPOS>ATOM
      1 C1         -1.3916    1.2428    4.1873 C.3       1 <0>        -0.1768
      2 C2         -0.3366    0.2031    3.8030 C.3       1 <0>         0.1063
      3 H1         -0.8017   -0.7738    3.6047 H         1 <0>         0.1162
      4 C3          0.7005    0.0808    4.9249 C.3       1 <0>        -0.1899
      5 C4          0.9246   -1.3926    5.2565 C.3       1 <0>        -0.0015
      6 H2          0.7945   -1.7033    4.2093 H         1 <0>         0.1562
      7 C5          1.8742   -1.7631    6.3906 C.3       1 <0>         0.0163
      8 H3          2.7381   -2.4364    6.4921 H         1 <0>         0.1664
      9 O1          0.4550   -1.8843    6.5142 O.3       1 <0>        -0.3117
     10 C6          2.5430   -0.6874    7.2013 C.2       1 <0>        -0.1413
     11 C7          3.3594    0.2015    6.6484 C.2       1 <0>        -0.1363
     12 C8          3.6645    0.1861    5.2238 C.2       1 <0>        -0.0284
     13 C9          3.8462    1.3720    4.5837 C.2       1 <0>        -0.2268
     14 C10         4.0794    1.3957    3.1983 C.2       1 <0>         0.3939
     15 O2          4.3970    0.3852    2.6072 O.2       1 <0>        -0.4563
     16 C11         3.8980    2.6919    2.4427 C.3       1 <0>        -0.1499
     17 C12         3.1538    2.4012    1.1652 C.ar      1 <0>         0.0845
     18 C13         1.8744    1.8349    1.2021 C.ar      1 <0>        -0.2050
     19 C14         1.2213    1.5318   -0.0014 C.ar      1 <0>         0.2658
     20 C15         1.8308    1.8249   -1.2090 C.ar      1 <0>        -0.2704
     21 C16         3.0918    2.3991   -1.2310 C.ar      1 <0>         0.2534
     22 C17         3.7525    2.6836   -0.0395 C.ar      1 <0>        -0.1825
     23 Cl1         5.3347    3.3980   -0.0790 Cl        1 <0>        -0.0470
     24 O3          3.6848    2.6856   -2.4177 O.3       1 <0>        -0.4904
     25 O4         -0.0110    0.9628    0.0073 O.3       1 <0>        -0.4757
     26 C18         1.2111    1.5345    2.4826 C.2       1 <0>         0.5285
     27 O5          1.4831    2.2084    3.4592 O.2       1 <0>        -0.5074
     28 O6          0.2919    0.5683    2.5572 O.3       1 <0>        -0.3394
     29 H4         -1.8628    0.9529    5.1380 H         1 <0>         0.0767
     30 H5         -2.1576    1.2963    3.3997 H         1 <0>         0.0682
     31 H6         -0.9127    2.2266    4.3004 H         1 <0>         0.0713
     32 H7          1.6496    0.5303    4.5975 H         1 <0>         0.1208
     33 H8          0.3358    0.6057    5.8202 H         1 <0>         0.0848
     34 H9          2.3394   -0.6499    8.2816 H         1 <0>         0.1317
     35 H10         3.8277    0.9792    7.2696 H         1 <0>         0.1330
     36 H11         3.7488   -0.7584    4.6663 H         1 <0>         0.1359
     37 H12         3.8107    2.3140    5.1505 H         1 <0>         0.1400
     38 H13         3.3231    3.3984    3.0594 H         1 <0>         0.1306
     39 H14         4.8834    3.1234    2.2130 H         1 <0>         0.1180
     40 H15         1.3224    1.6044   -2.1361 H         1 <0>         0.1523
     41 H16         4.6857    3.1414   -2.4365 H         1 <0>         0.4408
     42 H17        -0.5154    0.7287   -0.9418 H         1 <0>         0.4449
@<TRIPOS>BOND
     1    1    2 1
     2    1   29 1
     3    1   30 1
     4    1   31 1
     5    2    3 1
     6    2   28 1
     7    2    4 1
     8    4    5 1
     9    4   32 1
    10    4   33 1
    11    5    6 1
    12    5    9 1
    13    5    7 1
    14    7    8 1
    15    7    9 1
    16    7   10 1
    17   10   11 2
    18   10   34 1
    19   11   12 1
    20   11   35 1
    21   12   13 2
    22   12   36 1
    23   13   14 1
    24   13   37 1
    25   14   15 2
    26   14   16 1
    27   16   17 1
    28   16   38 1
    29   16   39 1
    30   17   22 ar
    31   17   18 ar
    32   18   19 ar
    33   18   26 1
    34   19   20 ar
    35   19   25 1
    36   20   21 ar
    37   20   40 1
    38   21   22 ar
    39   21   24 1
    40   22   23 1
    41   24   41 1
    42   25   42 1
    43   26   27 2
    44   26   28 1
@<TRIPOS>MOLECULE
ZINC13515668
   41    43     0     0     0
SMALL
USER_CHARGES
chloro-dihydroxy-methyl-BLAHdione
@<TRIPOS>ATOM
      1 C1         -1.3916    1.2428    4.1873 C.3       1 <0>        -0.1730
      2 C2         -0.3366    0.2031    3.8030 C.3       1 <0>         0.1038
      3 H1         -0.8017   -0.7738    3.6047 H         1 <0>         0.1053
      4 C3          0.7005    0.0808    4.9249 C.3       1 <0>        -0.1871
      5 C4          0.9246   -1.3926    5.2565 C.3       1 <0>        -0.0013
      6 H2          0.7945   -1.7033    4.2093 H         1 <0>         0.1589
      7 C5          1.8742   -1.7631    6.3906 C.3       1 <0>         0.0154
      8 H3          2.7381   -2.4364    6.4921 H         1 <0>         0.1629
      9 O1          0.4550   -1.8843    6.5142 O.3       1 <0>        -0.3191
     10 C6          2.5430   -0.6874    7.2013 C.2       1 <0>        -0.1563
     11 C7          3.3594    0.2015    6.6484 C.2       1 <0>        -0.1216
     12 C8          3.6645    0.1861    5.2238 C.2       1 <0>        -0.0565
     13 C9          3.8462    1.3720    4.5837 C.2       1 <0>        -0.2003
     14 C10         4.0794    1.3957    3.1983 C.2       1 <0>         0.3909
     15 O2          4.3970    0.3852    2.6072 O.2       1 <0>        -0.4541
     16 C11         3.8980    2.6919    2.4427 C.3       1 <0>        -0.1383
     17 C12         3.1538    2.4012    1.1652 C.ar      1 <0>         0.0680
     18 C13         1.8744    1.8349    1.2021 C.ar      1 <0>        -0.2919
     19 C14         1.2213    1.5318   -0.0014 C.ar      1 <0>         0.2513
     20 C15         1.8308    1.8249   -1.2090 C.ar      1 <0>        -0.3684
     21 C16         3.0918    2.3991   -1.2310 C.ar      1 <0>         0.3296
     22 C17         3.7525    2.6836   -0.0395 C.ar      1 <0>        -0.1818
     23 Cl1         5.3347    3.3980   -0.0790 Cl        1 <0>        -0.0950
     24 O3          3.6848    2.6856   -2.4177 O.3       1 <0>        -0.6768
     25 O4         -0.0110    0.9628    0.0073 O.3       1 <0>        -0.4995
     26 C18         1.2111    1.5345    2.4826 C.2       1 <0>         0.5363
     27 O5          1.4831    2.2084    3.4592 O.2       1 <0>        -0.5412
     28 O6          0.2919    0.5683    2.5572 O.3       1 <0>        -0.3443
     29 H4         -1.8628    0.9529    5.1380 H         1 <0>         0.0676
     30 H5         -2.1576    1.2963    3.3997 H         1 <0>         0.0645
     31 H6         -0.9127    2.2266    4.3004 H         1 <0>         0.0707
     32 H7          1.6496    0.5303    4.5975 H         1 <0>         0.1263
     33 H8          0.3358    0.6057    5.8202 H         1 <0>         0.0771
     34 H9          2.3394   -0.6499    8.2816 H         1 <0>         0.1256
     35 H10         3.8277    0.9792    7.2696 H         1 <0>         0.1278
     36 H11         3.7488   -0.7584    4.6663 H         1 <0>         0.1341
     37 H12         3.8107    2.3140    5.1505 H         1 <0>         0.1350
     38 H13         3.3231    3.3984    3.0594 H         1 <0>         0.1132
     39 H14         4.8834    3.1234    2.2130 H         1 <0>         0.1076
     40 H15         1.3224    1.6044   -2.1361 H         1 <0>         0.1145
     41 H16        -0.5154    0.7287   -0.9418 H         1 <0>         0.4203
@<TRIPOS>BOND
     1    1    2 1
     2    1   29 1
     3    1   30 1
     4    1   31 1
     5    2    3 1
     6    2   28 1
     7    2    4 1
     8    4    5 1
     9    4   32 1
    10    4   33 1
    11    5    6 1
    12    5    9 1
    13    5    7 1
    14    7    8 1
    15    7    9 1
    16    7   10 1
    17   10   11 2
    18   10   34 1
    19   11   12 1
    20   11   35 1
    21   12   13 2
    22   12   36 1
    23   13   14 1
    24   13   37 1
    25   14   15 2
    26   14   16 1
    27   16   17 1
    28   16   38 1
    29   16   39 1
    30   17   22 ar
    31   17   18 ar
    32   18   19 ar
    33   18   26 1
    34   19   20 ar
    35   19   25 1
    36   20   21 ar
    37   20   40 1
    38   21   22 ar
    39   21   24 1
    40   22   23 1
    41   25   41 1
    42   26   27 2
    43   26   28 1
@<TRIPOS>MOLECULE
ZINC13515668
   41    43     0     0     0
SMALL
USER_CHARGES
chloro-dihydroxy-methyl-BLAHdione
@<TRIPOS>ATOM
      1 C1         -1.3916    1.2428    4.1873 C.3       1 <0>        -0.1714
      2 C2         -0.3366    0.2031    3.8030 C.3       1 <0>         0.0991
      3 H1         -0.8017   -0.7738    3.6047 H         1 <0>         0.1045
      4 C3          0.7005    0.0808    4.9249 C.3       1 <0>        -0.1851
      5 C4          0.9246   -1.3926    5.2565 C.3       1 <0>        -0.0012
      6 H2          0.7945   -1.7033    4.2093 H         1 <0>         0.1611
      7 C5          1.8742   -1.7631    6.3906 C.3       1 <0>         0.0133
      8 H3          2.7381   -2.4364    6.4921 H         1 <0>         0.1616
      9 O1          0.4550   -1.8843    6.5142 O.3       1 <0>        -0.3191
     10 C6          2.5430   -0.6874    7.2013 C.2       1 <0>        -0.1532
     11 C7          3.3594    0.2015    6.6484 C.2       1 <0>        -0.1240
     12 C8          3.6645    0.1861    5.2238 C.2       1 <0>        -0.0526
     13 C9          3.8462    1.3720    4.5837 C.2       1 <0>        -0.2030
     14 C10         4.0794    1.3957    3.1983 C.2       1 <0>         0.3929
     15 O2          4.3970    0.3852    2.6072 O.2       1 <0>        -0.4560
     16 C11         3.8980    2.6919    2.4427 C.3       1 <0>        -0.1395
     17 C12         3.1538    2.4012    1.1652 C.ar      1 <0>         0.0851
     18 C13         1.8744    1.8349    1.2021 C.ar      1 <0>        -0.3040
     19 C14         1.2213    1.5318   -0.0014 C.ar      1 <0>         0.3383
     20 C15         1.8308    1.8249   -1.2090 C.ar      1 <0>        -0.2936
     21 C16         3.0918    2.3991   -1.2310 C.ar      1 <0>         0.2267
     22 C17         3.7525    2.6836   -0.0395 C.ar      1 <0>        -0.2425
     23 Cl1         5.3347    3.3980   -0.0790 Cl        1 <0>        -0.1021
     24 O3          3.6848    2.6856   -2.4177 O.3       1 <0>        -0.5085
     25 O4         -0.0110    0.9628    0.0073 O.3       1 <0>        -0.6665
     26 C18         1.2111    1.5345    2.4826 C.2       1 <0>         0.5440
     27 O5          1.4831    2.2084    3.4592 O.2       1 <0>        -0.5538
     28 O6          0.2919    0.5683    2.5572 O.3       1 <0>        -0.3226
     29 H4         -1.8628    0.9529    5.1380 H         1 <0>         0.0650
     30 H5         -2.1576    1.2963    3.3997 H         1 <0>         0.0664
     31 H6         -0.9127    2.2266    4.3004 H         1 <0>         0.0690
     32 H7          1.6496    0.5303    4.5975 H         1 <0>         0.1249
     33 H8          0.3358    0.6057    5.8202 H         1 <0>         0.0757
     34 H9          2.3394   -0.6499    8.2816 H         1 <0>         0.1252
     35 H10         3.8277    0.9792    7.2696 H         1 <0>         0.1274
     36 H11         3.7488   -0.7584    4.6663 H         1 <0>         0.1341
     37 H12         3.8107    2.3140    5.1505 H         1 <0>         0.1345
     38 H13         3.3231    3.3984    3.0594 H         1 <0>         0.1149
     39 H14         4.8834    3.1234    2.2130 H         1 <0>         0.1035
     40 H15         1.3224    1.6044   -2.1361 H         1 <0>         0.1180
     41 H16         4.6857    3.1414   -2.4365 H         1 <0>         0.4136
@<TRIPOS>BOND
     1    1    2 1
     2    1   29 1
     3    1   30 1
     4    1   31 1
     5    2    3 1
     6    2   28 1
     7    2    4 1
     8    4    5 1
     9    4   32 1
    10    4   33 1
    11    5    6 1
    12    5    9 1
    13    5    7 1
    14    7    8 1
    15    7    9 1
    16    7   10 1
    17   10   11 2
    18   10   34 1
    19   11   12 1
    20   11   35 1
    21   12   13 2
    22   12   36 1
    23   13   14 1
    24   13   37 1
    25   14   15 2
    26   14   16 1
    27   16   17 1
    28   16   38 1
    29   16   39 1
    30   17   22 ar
    31   17   18 ar
    32   18   19 ar
    33   18   26 1
    34   19   20 ar
    35   19   25 1
    36   20   21 ar
    37   20   40 1
    38   21   22 ar
    39   21   24 1
    40   22   23 1
    41   24   41 1
    42   26   27 2
    43   26   28 1
@<TRIPOS>MOLECULE
ZINC00002216
   24    25     0     0     0
SMALL
USER_CHARGES

@<TRIPOS>ATOM
      1 C1          0.6409    0.2697    1.1605 C.ar      1 <0>        -0.1053
      2 C2          1.8276    0.9794    1.1670 C.ar      1 <0>        -0.0911
      3 C3          2.3809    1.4153   -0.0261 C.ar      1 <0>         0.0524
      4 C4          1.7399    1.1371   -1.2302 C.ar      1 <0>         0.1181
      5 C5          0.5513    0.4257   -1.2306 C.ar      1 <0>        -0.1276
      6 C6          0.0037   -0.0069   -0.0356 C.ar      1 <0>        -0.0143
      7 Cl1        -1.4859   -0.8984   -0.0377 Cl        1 <0>        -0.0497
      8 O1          2.2792    1.5634   -2.4035 O.3       1 <0>        -0.4836
      9 O2          3.5477    2.1138   -0.0209 O.3       1 <0>        -0.2359
     10 C7          3.4812    3.4679   -0.1180 C.ar      1 <0>         0.1430
     11 C8          2.2494    4.1059   -0.1010 C.ar      1 <0>        -0.1652
     12 C9          2.1838    5.4822   -0.1993 C.ar      1 <0>        -0.0647
     13 C10         3.3456    6.2252   -0.3148 C.ar      1 <0>        -0.0565
     14 C11         4.5754    5.5917   -0.3326 C.ar      1 <0>        -0.0661
     15 C12         4.6461    4.2150   -0.2287 C.ar      1 <0>        -0.0524
     16 Cl2         6.1896    3.4206   -0.2439 Cl        1 <0>        -0.0396
     17 Cl3         3.2597    7.9547   -0.4382 Cl        1 <0>        -0.0530
     18 H1          0.2131   -0.0733    2.0909 H         1 <0>         0.1484
     19 H2          2.3230    1.1944    2.1023 H         1 <0>         0.1499
     20 H3          0.0519    0.2090   -2.1634 H         1 <0>         0.1503
     21 H4          2.8879    0.9310   -2.8093 H         1 <0>         0.4014
     22 H5          1.3422    3.5268   -0.0112 H         1 <0>         0.1432
     23 H6          1.2249    5.9789   -0.1864 H         1 <0>         0.1450
     24 H7          5.4809    6.1734   -0.4232 H         1 <0>         0.1534
@<TRIPOS>BOND
     1    1    6 ar
     2    1    2 ar
     3    1   18 1
     4    2    3 ar
     5    2   19 1
     6    3    4 ar
     7    3    9 1
     8    4    5 ar
     9    4    8 1
    10    5    6 ar
    11    5   20 1
    12    6    7 1
    13    8   21 1
    14    9   10 1
    15   10   15 ar
    16   10   11 ar
    17   11   12 ar
    18   11   22 1
    19   12   13 ar
    20   12   23 1
    21   13   14 ar
    22   13   17 1
    23   14   15 ar
    24   14   24 1
    25   15   16 1
@<TRIPOS>MOLECULE
ZINC00002216
   23    24     0     0     0
SMALL
USER_CHARGES

@<TRIPOS>ATOM
      1 C1          0.6410    0.2696    1.1605 C.ar      1 <0>        -0.2462
      2 C2          1.8276    0.9794    1.1670 C.ar      1 <0>        -0.0518
      3 C3          2.3809    1.4153   -0.0261 C.ar      1 <0>        -0.0995
      4 C4          1.7398    1.1372   -1.2302 C.ar      1 <0>         0.2785
      5 C5          0.5513    0.4258   -1.2306 C.ar      1 <0>        -0.2490
      6 C6          0.0037   -0.0069   -0.0356 C.ar      1 <0>         0.0341
      7 Cl1        -1.4859   -0.8984   -0.0377 Cl        1 <0>        -0.1116
      8 O1          2.2791    1.5635   -2.4035 O.3       1 <0>        -0.6900
      9 O2          3.5477    2.1138   -0.0209 O.3       1 <0>        -0.2158
     10 C7          3.4812    3.4679   -0.1180 C.ar      1 <0>         0.1718
     11 C8          2.2494    4.1059   -0.1010 C.ar      1 <0>        -0.1653
     12 C9          2.1838    5.4822   -0.1993 C.ar      1 <0>        -0.0671
     13 C10         3.3456    6.2252   -0.3148 C.ar      1 <0>        -0.0780
     14 C11         4.5754    5.5917   -0.3326 C.ar      1 <0>        -0.0689
     15 C12         4.6461    4.2150   -0.2287 C.ar      1 <0>        -0.0695
     16 Cl2         6.1896    3.4206   -0.2439 Cl        1 <0>        -0.0570
     17 Cl3         3.2597    7.9547   -0.4382 Cl        1 <0>        -0.0782
     18 H1          0.2132   -0.0734    2.0910 H         1 <0>         0.1135
     19 H2          2.3231    1.1943    2.1023 H         1 <0>         0.1130
     20 H3          0.0518    0.2091   -2.1633 H         1 <0>         0.1145
     21 H4          1.3422    3.5268   -0.0112 H         1 <0>         0.1450
     22 H5          1.2249    5.9789   -0.1864 H         1 <0>         0.1353
     23 H6          5.4809    6.1734   -0.4232 H         1 <0>         0.1422
@<TRIPOS>BOND
     1    1    6 ar
     2    1    2 ar
     3    1   18 1
     4    2    3 ar
     5    2   19 1
     6    3    4 ar
     7    3    9 1
     8    4    5 ar
     9    4    8 1
    10    5    6 ar
    11    5   20 1
    12    6    7 1
    13    9   10 1
    14   10   15 ar
    15   10   11 ar
    16   11   12 ar
    17   11   21 1
    18   12   13 ar
    19   12   22 1
    20   13   14 ar
    21   13   17 1
    22   14   15 ar
    23   14   23 1
    24   15   16 1
@<TRIPOS>MOLECULE
ZINC00156701
   32    34     0     0     0
SMALL
USER_CHARGES

@<TRIPOS>ATOM
      1 C1         -0.0167    1.3784    0.0096 C.ar      1 <0>        -0.0844
      2 C2          1.1695    2.0865    0.0021 C.ar      1 <0>        -0.1442
      3 C3          2.3802    1.4093   -0.0131 C.ar      1 <0>         0.1167
      4 C4          2.3963    0.0221   -0.0206 C.ar      1 <0>        -0.1455
      5 C5          1.2074   -0.6814   -0.0130 C.ar      1 <0>        -0.0729
      6 C6          0.0021   -0.0041    0.0020 C.ar      1 <0>        -0.1034
      7 C7         -1.2934   -0.7740    0.0107 C.3       1 <0>         0.1470
      8 H1         -2.0861   -0.1570   -0.4124 H         1 <0>         0.0915
      9 C8         -1.6545   -1.1532    1.4543 C.3       1 <0>        -0.1930
     10 C9         -2.9435   -1.9533    1.3996 C.2       1 <0>         0.4032
     11 O1         -3.8237   -1.8020    2.2216 O.2       1 <0>        -0.4317
     12 C10        -3.0712   -2.9182    0.3020 C.ar      1 <0>        -0.2944
     13 C11        -4.0969   -3.8768    0.3066 C.ar      1 <0>         0.2227
     14 C12        -4.2019   -4.7673   -0.7467 C.ar      1 <0>        -0.2202
     15 C13        -3.2954   -4.7115   -1.7985 C.ar      1 <0>         0.1984
     16 C14        -2.2752   -3.7691   -1.8056 C.ar      1 <0>        -0.2010
     17 C15        -2.1504   -2.8702   -0.7610 C.ar      1 <0>         0.2145
     18 O2         -1.1470   -1.9614   -0.7679 O.3       1 <0>        -0.2972
     19 O3         -3.4079   -5.5870   -2.8289 O.3       1 <0>        -0.4900
     20 O4         -4.9779   -3.9296    1.3362 O.3       1 <0>        -0.4788
     21 O5          3.5484    2.1036   -0.0209 O.3       1 <0>        -0.4989
     22 H2         -0.9594    1.9052    0.0259 H         1 <0>         0.1316
     23 H3          1.1543    3.1664    0.0076 H         1 <0>         0.1345
     24 H4          3.3375   -0.5074   -0.0328 H         1 <0>         0.1334
     25 H5          1.2194   -1.7613   -0.0189 H         1 <0>         0.1340
     26 H6         -0.8595   -1.7595    1.8887 H         1 <0>         0.1164
     27 H7         -1.8021   -0.2518    2.0490 H         1 <0>         0.1158
     28 H8         -4.9890   -5.5069   -0.7515 H         1 <0>         0.1463
     29 H9         -1.5768   -3.7380   -2.6289 H         1 <0>         0.1490
     30 H10        -3.9680   -5.2733   -3.5521 H         1 <0>         0.4030
     31 H11        -5.7634   -3.3798    1.2103 H         1 <0>         0.4035
     32 H12         3.8951    2.3001    0.8601 H         1 <0>         0.3945
@<TRIPOS>BOND
     1    1    6 ar
     2    1    2 ar
     3    1   22 1
     4    2    3 ar
     5    2   23 1
     6    3    4 ar
     7    3   21 1
     8    4    5 ar
     9    4   24 1
    10    5    6 ar
    11    5   25 1
    12    6    7 1
    13    7    8 1
    14    7   18 1
    15    7    9 1
    16    9   10 1
    17    9   26 1
    18    9   27 1
    19   10   11 2
    20   10   12 1
    21   12   17 ar
    22   12   13 ar
    23   13   14 ar
    24   13   20 1
    25   14   15 ar
    26   14   28 1
    27   15   16 ar
    28   15   19 1
    29   16   17 ar
    30   16   29 1
    31   17   18 1
    32   19   30 1
    33   20   31 1
    34   21   32 1
@<TRIPOS>MOLECULE
ZINC06483512
   33    36     0     0     0
SMALL
USER_CHARGES

@<TRIPOS>ATOM
      1 C1         -0.0173    1.4248    0.0099 C.3       1 <0>         0.0200
      2 O1          0.0021   -0.0041    0.0020 O.3       1 <0>        -0.2984
      3 C2          0.6053   -0.6066   -1.0548 C.ar      1 <0>         0.2142
      4 C3          1.1713    0.1703   -2.0597 C.ar      1 <0>        -0.2556
      5 C4          1.7874   -0.4334   -3.1392 C.ar      1 <0>         0.2259
      6 C5          1.8380   -1.8334   -3.2146 C.ar      1 <0>        -0.1865
      7 C6          1.2647   -2.6155   -2.1969 C.ar      1 <0>         0.2234
      8 C7          0.6561   -1.9901   -1.1191 C.ar      1 <0>        -0.1791
      9 O2          1.3108   -3.9644   -2.2647 O.3       1 <0>        -0.2599
     10 C8          1.8955   -4.6066   -3.2898 C.2       1 <0>         0.5536
     11 O3          1.9090   -5.8242   -3.3016 O.2       1 <0>        -0.4460
     12 C9          2.4936   -3.8984   -4.3523 C.2       1 <0>        -0.2849
     13 C10         2.4839   -2.5047   -4.3472 C.2       1 <0>         0.1929
     14 O4          3.1074   -2.0604   -5.4488 O.3       1 <0>        -0.1517
     15 C11         3.5480   -3.0833   -6.2154 C.ar      1 <0>         0.0589
     16 C12         3.1948   -4.2874   -5.5871 C.ar      1 <0>        -0.0563
     17 C13         3.5303   -5.5078   -6.1676 C.ar      1 <0>        -0.0803
     18 C14         4.2111   -5.5312   -7.3697 C.ar      1 <0>         0.0868
     19 C15         4.5603   -4.3357   -7.9972 C.ar      1 <0>         0.1134
     20 C16         4.2338   -3.1212   -7.4229 C.ar      1 <0>        -0.1090
     21 O5          5.2311   -4.3647   -9.1800 O.3       1 <0>        -0.4774
     22 O6          4.5413   -6.7209   -7.9412 O.3       1 <0>        -0.4794
     23 O7          2.3400    0.3237   -4.1211 O.3       1 <0>        -0.4800
     24 H1          1.0053    1.8021    0.0021 H         1 <0>         0.0641
     25 H2         -0.5445    1.7859   -0.8732 H         1 <0>         0.0648
     26 H3         -0.5275    1.7763    0.9067 H         1 <0>         0.1110
     27 H4          1.1290    1.2476   -1.9964 H         1 <0>         0.1547
     28 H5          0.2170   -2.5825   -0.3300 H         1 <0>         0.1646
     29 H6          3.2596   -6.4327   -5.6798 H         1 <0>         0.1512
     30 H7          4.5090   -2.2004   -7.9157 H         1 <0>         0.1514
     31 H8          4.6567   -4.3774   -9.9578 H         1 <0>         0.3946
     32 H9          3.8680   -7.0691   -8.5416 H         1 <0>         0.3925
     33 H10         3.2684    0.5476   -3.9697 H         1 <0>         0.4065
@<TRIPOS>BOND
     1    1    2 1
     2    1   24 1
     3    1   25 1
     4    1   26 1
     5    2    3 1
     6    3    8 ar
     7    3    4 ar
     8    4    5 ar
     9    4   27 1
    10    5    6 ar
    11    5   23 1
    12    6   13 1
    13    6    7 ar
    14    7    8 ar
    15    7    9 1
    16    8   28 1
    17    9   10 1
    18   10   11 2
    19   10   12 1
    20   12   16 1
    21   12   13 2
    22   13   14 1
    23   14   15 1
    24   15   20 ar
    25   15   16 ar
    26   16   17 ar
    27   17   18 ar
    28   17   29 1
    29   18   19 ar
    30   18   22 1
    31   19   20 ar
    32   19   21 1
    33   20   30 1
    34   21   31 1
    35   22   32 1
    36   23   33 1
