@<TRIPOS>MOLECULE
ZINC03780994
   67    68     0     0     0
SMALL
USER_CHARGES
5-dipentylamino-4-(2-naphthylcarbonylamino)-5-oxo-pentanoic acid
@<TRIPOS>ATOM
      1 C1         -2.9532   12.2847   -0.5756 C.3       1 <0>        -0.1517
      2 C2         -3.0558   10.8013   -0.9360 C.3       1 <0>        -0.1261
      3 C3         -3.2864    9.9823    0.3355 C.3       1 <0>        -0.1139
      4 C4         -3.3889    8.4989   -0.0249 C.3       1 <0>        -0.1385
      5 C5         -3.6195    7.6799    1.2467 C.3       1 <0>         0.1186
      6 N1         -3.7177    6.2595    0.9016 N.am      1 <0>        -0.6063
      7 C6         -5.0309    5.6478    0.6834 C.3       1 <0>         0.0933
      8 C7         -5.5474    5.0653    2.0005 C.3       1 <0>        -0.1366
      9 C8         -6.9188    4.4264    1.7726 C.3       1 <0>        -0.1209
     10 C9         -7.4354    3.8440    3.0897 C.3       1 <0>        -0.1225
     11 C10        -8.8068    3.2051    2.8618 C.3       1 <0>        -0.1535
     12 C11        -2.5999    5.5155    0.7849 C.2       1 <0>         0.5218
     13 O1         -1.5168    6.0072    1.0214 O.2       1 <0>        -0.5404
     14 C12        -2.6960    4.0727    0.3605 C.3       1 <0>         0.1253
     15 H1         -3.5187    3.5922    0.8901 H         1 <0>         0.1109
     16 C13        -2.9483    4.0002   -1.1468 C.3       1 <0>        -0.1030
     17 C14        -3.1849    2.5447   -1.5548 C.3       1 <0>        -0.1439
     18 C15        -3.4334    2.4732   -3.0395 C.2       1 <0>         0.4581
     19 O2         -3.4223    3.4828   -3.7032 O.co2     1 <0>        -0.6464
     20 N2         -1.4422    3.3853    0.6794 N.am      1 <0>        -0.7076
     21 C16        -1.4353    2.0516    0.8731 C.2       1 <0>         0.5576
     22 O3         -2.4694    1.4189    0.7832 O.2       1 <0>        -0.5187
     23 C17        -0.1706    1.3582    1.1948 C.ar      1 <0>        -0.1276
     24 C18         1.0239    2.0946    1.2919 C.ar      1 <0>        -0.0867
     25 C19         2.1989    1.4798    1.5807 C.ar      1 <0>        -0.1137
     26 C20         2.2332    0.0885    1.7873 C.ar      1 <0>        -0.0347
     27 C21         3.4375   -0.5699    2.0870 C.ar      1 <0>        -0.1128
     28 C22         3.4399   -1.9174    2.2813 C.ar      1 <0>        -0.1089
     29 C23         2.2632   -2.6583    2.1878 C.ar      1 <0>        -0.1246
     30 C24         1.0776   -2.0557    1.8994 C.ar      1 <0>        -0.0916
     31 C25         1.0358   -0.6651    1.6922 C.ar      1 <0>        -0.0630
     32 C26        -0.1695   -0.0124    1.3928 C.ar      1 <0>        -0.0319
     33 H2         -2.7889   12.8682   -1.4815 H         1 <0>         0.0523
     34 H3         -3.8785   12.6075   -0.0984 H         1 <0>         0.0520
     35 H4         -2.1192   12.4353    0.1098 H         1 <0>         0.0524
     36 H5         -2.1305   10.4786   -1.4133 H         1 <0>         0.0623
     37 H6         -3.8898   10.6508   -1.6214 H         1 <0>         0.0617
     38 H7         -4.2116   10.3050    0.8128 H         1 <0>         0.0603
     39 H8         -2.4523   10.1328    1.0209 H         1 <0>         0.0619
     40 H9         -2.4636    8.1761   -0.5021 H         1 <0>         0.0695
     41 H10        -4.2230    8.3483   -0.7103 H         1 <0>         0.0656
     42 H11        -4.5448    8.0026    1.7240 H         1 <0>         0.0765
     43 H12        -2.7854    7.8304    1.9321 H         1 <0>         0.0799
     44 H13        -5.7282    6.4036    0.3221 H         1 <0>         0.0843
     45 H14        -4.9425    4.8518   -0.0561 H         1 <0>         0.0937
     46 H15        -4.8500    4.3095    2.3618 H         1 <0>         0.0655
     47 H16        -5.6357    5.8613    2.7399 H         1 <0>         0.0644
     48 H17        -7.6162    5.1822    1.4113 H         1 <0>         0.0638
     49 H18        -6.8305    3.6305    1.0331 H         1 <0>         0.0706
     50 H19        -6.7380    3.0882    3.4510 H         1 <0>         0.0616
     51 H20        -7.5237    4.6399    3.8291 H         1 <0>         0.0576
     52 H21        -9.5042    3.9609    2.5005 H         1 <0>         0.0524
     53 H22        -8.7185    2.4092    2.1223 H         1 <0>         0.0568
     54 H23        -9.1748    2.7901    3.8001 H         1 <0>         0.0510
     55 H24        -3.8265    4.5951   -1.3973 H         1 <0>         0.0766
     56 H25        -2.0811    4.3904   -1.6795 H         1 <0>         0.0698
     57 H26        -2.3067    1.9497   -1.3044 H         1 <0>         0.0670
     58 H27        -4.0521    2.1544   -1.0221 H         1 <0>         0.0688
     59 H28        -0.6170    3.8901    0.7512 H         1 <0>         0.4060
     60 H29         1.0057    3.1630    1.1347 H         1 <0>         0.1282
     61 H30         3.1078    2.0588    1.6518 H         1 <0>         0.1318
     62 H31         4.3577   -0.0095    2.1625 H         1 <0>         0.1275
     63 H32         4.3678   -2.4198    2.5111 H         1 <0>         0.1226
     64 H33         2.2928   -3.7262    2.3462 H         1 <0>         0.1238
     65 H34         0.1734   -2.6423    1.8297 H         1 <0>         0.1312
     66 H35        -1.0887   -0.5742    1.3171 H         1 <0>         0.1451
     67 O4         -3.6670    1.2880   -3.6246 O.co2     1 <0>        -0.7744
@<TRIPOS>BOND
     1    1    2 1
     2    1   33 1
     3    1   34 1
     4    1   35 1
     5    2    3 1
     6    2   36 1
     7    2   37 1
     8    3    4 1
     9    3   38 1
    10    3   39 1
    11    4    5 1
    12    4   40 1
    13    4   41 1
    14    5    6 1
    15    5   42 1
    16    5   43 1
    17    6    7 1
    18    6   12 am
    19    7    8 1
    20    7   44 1
    21    7   45 1
    22    8    9 1
    23    8   46 1
    24    8   47 1
    25    9   10 1
    26    9   48 1
    27    9   49 1
    28   10   11 1
    29   10   50 1
    30   10   51 1
    31   11   52 1
    32   11   53 1
    33   11   54 1
    34   12   13 2
    35   12   14 1
    36   14   15 1
    37   14   16 1
    38   14   20 1
    39   16   17 1
    40   16   55 1
    41   16   56 1
    42   17   18 1
    43   17   57 1
    44   17   58 1
    45   18   19 2
    46   18   67 1
    47   20   21 am
    48   20   59 1
    49   21   22 2
    50   21   23 1
    51   23   32 ar
    52   23   24 ar
    53   24   25 ar
    54   24   60 1
    55   25   26 ar
    56   25   61 1
    57   26   31 ar
    58   26   27 ar
    59   27   28 ar
    60   27   62 1
    61   28   29 ar
    62   28   63 1
    63   29   30 ar
    64   29   64 1
    65   30   31 ar
    66   30   65 1
    67   31   32 ar
    68   32   66 1
@<TRIPOS>MOLECULE
ZINC04534207
   92    94     0     0     0
SMALL
USER_CHARGES

@<TRIPOS>ATOM
      1 C1         -0.1679    0.5599    0.2732 C.3       1 <0>        -0.1918
      2 C2         -0.0129   -0.9581    0.1612 C.3       1 <0>         0.1389
      3 C3          0.7899   -1.4783    1.3553 C.3       1 <0>        -0.1851
      4 C4         -1.3958   -1.6127    0.1523 C.3       1 <0>        -0.1393
      5 O1          0.6737   -1.2787   -1.0504 O.3       1 <0>        -0.3635
      6 C5          1.9137   -0.7764   -1.2016 C.2       1 <0>         0.6587
      7 O2          2.3995   -0.0846   -0.3287 O.2       1 <0>        -0.5340
      8 N1          2.6160   -1.0407   -2.3211 N.am      1 <0>        -0.6956
      9 C6          3.9652   -0.4941   -2.4856 C.3       1 <0>         0.1652
     10 H1          4.3717   -0.8126   -3.4455 H         1 <0>         0.1140
     11 C7          3.9055    1.0340   -2.4389 C.3       1 <0>        -0.0641
     12 C8          3.1223    1.5426   -3.6218 C.2       1 <0>        -0.1621
     13 C9          3.6259    1.9479   -4.7982 C.2       1 <0>         0.0541
     14 N2          2.6123    2.3414   -5.6289 N.pl3     1 <0>        -0.5955
     15 H2          2.7297    2.6739   -6.5326 H         1 <0>         0.4148
     16 C10         1.4008    2.1951   -4.9911 C.ar      1 <0>         0.0937
     17 C11         1.6667    1.6823   -3.7080 C.ar      1 <0>        -0.0928
     18 C12         0.6134    1.4247   -2.8289 C.ar      1 <0>        -0.0721
     19 C13        -0.6727    1.6690   -3.2210 C.ar      1 <0>        -0.1480
     20 C14        -0.9405    2.1710   -4.4869 C.ar      1 <0>        -0.0987
     21 C15         0.0846    2.4411   -5.3672 C.ar      1 <0>        -0.1343
     22 C16         4.8497   -0.9965   -1.3738 C.2       1 <0>         0.5007
     23 O3          4.3558   -1.4216   -0.3510 O.2       1 <0>        -0.5014
     24 N3          6.1898   -0.9734   -1.5161 N.am      1 <0>        -0.7065
     25 C17         7.0497   -1.4618   -0.4353 C.3       1 <0>         0.1383
     26 H3          6.5971   -1.2201    0.5264 H         1 <0>         0.1175
     27 C18         7.2099   -2.9785   -0.5568 C.3       1 <0>        -0.1054
     28 C19         5.8554   -3.6540   -0.3330 C.3       1 <0>        -0.0657
     29 S1          6.0453   -5.4522   -0.4771 S.3       1 <0>        -0.2781
     30 C20         4.3734   -6.0945   -0.1895 C.3       1 <0>        -0.1156
     31 C21         8.4022   -0.8043   -0.5334 C.2       1 <0>         0.5311
     32 O4          8.6258   -0.0064   -1.4189 O.2       1 <0>        -0.5436
     33 N4          9.3633   -1.1031    0.3630 N.am      1 <0>        -0.6740
     34 C22        10.7097   -0.5476    0.2058 C.3       1 <0>         0.1606
     35 H4         10.6395    0.4794   -0.1525 H         1 <0>         0.1171
     36 C23        11.4309   -0.5687    1.5551 C.3       1 <0>        -0.1901
     37 C24        10.7368    0.3676    2.5103 C.2       1 <0>         0.4928
     38 O5          9.8198    1.0690    2.1183 O.co2     1 <0>        -0.6819
     39 O6         11.0922    0.4237    3.6753 O.co2     1 <0>        -0.6976
     40 C25        11.4816   -1.3752   -0.7893 C.2       1 <0>         0.5180
     41 O7         10.9585   -2.3346   -1.3155 O.2       1 <0>        -0.5367
     42 N5         12.7532   -1.0492   -1.0946 N.am      1 <0>        -0.7073
     43 C26        13.5036   -1.8537   -2.0621 C.3       1 <0>         0.1368
     44 H5         12.8281   -2.2102   -2.8397 H         1 <0>         0.1150
     45 C27        14.6025   -0.9973   -2.6943 C.3       1 <0>        -0.0831
     46 C28        13.9747    0.1112   -3.4994 C.ar      1 <0>        -0.0843
     47 C29        13.6753   -0.0880   -4.8342 C.ar      1 <0>        -0.1153
     48 C30        13.0995    0.9288   -5.5726 C.ar      1 <0>        -0.1194
     49 C31        12.8226    2.1447   -4.9763 C.ar      1 <0>        -0.1197
     50 C32        13.1211    2.3437   -3.6413 C.ar      1 <0>        -0.1117
     51 C33        13.6930    1.3255   -2.9017 C.ar      1 <0>        -0.1062
     52 C34        14.1269   -3.0321   -1.3593 C.2       1 <0>         0.5029
     53 O8         13.9608   -3.1848   -0.1677 O.2       1 <0>        -0.5185
     54 N6         14.8691   -3.9162   -2.0550 N.am      1 <0>        -0.8573
     55 H6          0.8173    1.0262    0.2796 H         1 <0>         0.0907
     56 H7         -0.7398    0.9305   -0.5775 H         1 <0>         0.0609
     57 H8         -0.6916    0.8044    1.1973 H         1 <0>         0.0681
     58 H9          0.2662   -1.2338    2.2794 H         1 <0>         0.0639
     59 H10         0.9003   -2.5598    1.2755 H         1 <0>         0.0550
     60 H11         1.7751   -1.0120    1.3617 H         1 <0>         0.0967
     61 H12        -1.9677   -1.2421   -0.6984 H         1 <0>         0.0643
     62 H13        -1.2853   -2.6941    0.0725 H         1 <0>         0.0640
     63 H14        -1.9195   -1.3681    1.0764 H         1 <0>         0.0774
     64 H15         2.2281   -1.5929   -3.0179 H         1 <0>         0.4064
     65 H16         3.4177    1.3506   -1.5170 H         1 <0>         0.1042
     66 H17         4.9172    1.4383   -2.4721 H         1 <0>         0.0897
     67 H18         4.6757    1.9618   -5.0514 H         1 <0>         0.1720
     68 H19         0.8142    1.0335   -1.8425 H         1 <0>         0.1271
     69 H20        -1.4873    1.4696   -2.5405 H         1 <0>         0.1177
     70 H21        -1.9623    2.3582   -4.7826 H         1 <0>         0.1218
     71 H22        -0.1341    2.8304   -6.3506 H         1 <0>         0.1165
     72 H23         6.5848   -0.6334   -2.3342 H         1 <0>         0.4080
     73 H24         7.5794   -3.2263   -1.5519 H         1 <0>         0.0816
     74 H25         7.9194   -3.3301    0.1922 H         1 <0>         0.0876
     75 H26         5.4859   -3.4062    0.6620 H         1 <0>         0.0884
     76 H27         5.1459   -3.3024   -1.0821 H         1 <0>         0.0833
     77 H28         4.3856   -7.1824   -0.2566 H         1 <0>         0.0972
     78 H29         4.0350   -5.7955    0.8026 H         1 <0>         0.0746
     79 H30         3.6951   -5.6917   -0.9415 H         1 <0>         0.0719
     80 H31         9.1635   -1.6860    1.1122 H         1 <0>         0.4027
     81 H32        11.4133   -1.5803    1.9606 H         1 <0>         0.0710
     82 H33        12.4642   -0.2494    1.4198 H         1 <0>         0.0772
     83 H34        13.1716   -0.2819   -0.6738 H         1 <0>         0.4039
     84 H35        15.2256   -0.5684   -1.9096 H         1 <0>         0.0869
     85 H36        15.2163   -1.6178   -3.3472 H         1 <0>         0.0913
     86 H37        13.8917   -1.0380   -5.3001 H         1 <0>         0.1199
     87 H38        12.8662    0.7733   -6.6156 H         1 <0>         0.1195
     88 H39        12.3733    2.9394   -5.5534 H         1 <0>         0.1196
     89 H40        12.9050    3.2938   -3.1754 H         1 <0>         0.1238
     90 H41        13.9228    1.4797   -1.8578 H         1 <0>         0.1220
     91 H42        15.0020   -3.7941   -3.0080 H         1 <0>         0.3983
     92 H43        15.2703   -4.6747   -1.6026 H         1 <0>         0.4008
@<TRIPOS>BOND
     1    1    2 1
     2    1   55 1
     3    1   56 1
     4    1   57 1
     5    2    3 1
     6    2    4 1
     7    2    5 1
     8    3   58 1
     9    3   59 1
    10    3   60 1
    11    4   61 1
    12    4   62 1
    13    4   63 1
    14    5    6 1
    15    6    7 2
    16    6    8 am
    17    8    9 1
    18    8   64 1
    19    9   10 1
    20    9   11 1
    21    9   22 1
    22   11   12 1
    23   11   65 1
    24   11   66 1
    25   12   17 1
    26   12   13 2
    27   13   14 1
    28   13   67 1
    29   14   15 1
    30   14   16 1
    31   16   21 ar
    32   16   17 ar
    33   17   18 ar
    34   18   19 ar
    35   18   68 1
    36   19   20 ar
    37   19   69 1
    38   20   21 ar
    39   20   70 1
    40   21   71 1
    41   22   23 2
    42   22   24 am
    43   24   25 1
    44   24   72 1
    45   25   26 1
    46   25   27 1
    47   25   31 1
    48   27   28 1
    49   27   73 1
    50   27   74 1
    51   28   29 1
    52   28   75 1
    53   28   76 1
    54   29   30 1
    55   30   77 1
    56   30   78 1
    57   30   79 1
    58   31   32 2
    59   31   33 am
    60   33   34 1
    61   33   80 1
    62   34   35 1
    63   34   36 1
    64   34   40 1
    65   36   37 1
    66   36   81 1
    67   36   82 1
    68   37   38 2
    69   37   39 1
    70   40   41 2
    71   40   42 am
    72   42   43 1
    73   42   83 1
    74   43   44 1
    75   43   45 1
    76   43   52 1
    77   45   46 1
    78   45   84 1
    79   45   85 1
    80   46   51 ar
    81   46   47 ar
    82   47   48 ar
    83   47   86 1
    84   48   49 ar
    85   48   87 1
    86   49   50 ar
    87   49   88 1
    88   50   51 ar
    89   50   89 1
    90   51   90 1
    91   52   53 2
    92   52   54 am
    93   54   91 1
    94   54   92 1
@<TRIPOS>MOLECULE
ZINC04534208
   92    94     0     0     0
SMALL
USER_CHARGES

@<TRIPOS>ATOM
      1 C1          0.3732    1.9587    0.7695 C.3       1 <0>        -0.1844
      2 C2          0.3144    0.4299    0.7776 C.3       1 <0>         0.1388
      3 C3          1.1462   -0.1064    1.9444 C.3       1 <0>        -0.1835
      4 C4         -1.1382   -0.0238    0.9359 C.3       1 <0>        -0.1401
      5 O1          0.8393   -0.0735   -0.4525 O.3       1 <0>        -0.3640
      6 C5          2.1160    0.2379   -0.7453 C.2       1 <0>         0.6583
      7 O2          2.7668    0.9184    0.0227 O.2       1 <0>        -0.5380
      8 N1          2.6722   -0.2053   -1.8901 N.am      1 <0>        -0.6943
      9 C6          4.0615    0.1335   -2.2087 C.3       1 <0>         0.1630
     10 H1          4.3331   -0.3098   -3.1667 H         1 <0>         0.1168
     11 C7          4.9828   -0.4109   -1.1152 C.3       1 <0>        -0.0590
     12 C8          4.9292   -1.9170   -1.1171 C.2       1 <0>        -0.1610
     13 C9          4.1431   -2.6889   -0.3503 C.2       1 <0>         0.0632
     14 N2          4.3704   -4.0091   -0.6295 N.pl3     1 <0>        -0.5959
     15 H2          3.9205   -4.7545   -0.2020 H         1 <0>         0.4141
     16 C10         5.3329   -4.1217   -1.6076 C.ar      1 <0>         0.0959
     17 C11         5.7207   -2.8160   -1.9605 C.ar      1 <0>        -0.1004
     18 C12         6.6907   -2.6195   -2.9449 C.ar      1 <0>        -0.0690
     19 C13         7.2569   -3.6981   -3.5642 C.ar      1 <0>        -0.1452
     20 C14         6.8750   -4.9879   -3.2227 C.ar      1 <0>        -0.0986
     21 C15         5.9261   -5.2049   -2.2473 C.ar      1 <0>        -0.1333
     22 C16         4.2075    1.6313   -2.2888 C.2       1 <0>         0.5015
     23 O3          3.3850    2.3499   -1.7615 O.2       1 <0>        -0.5031
     24 N3          5.2521    2.1723   -2.9466 N.am      1 <0>        -0.7061
     25 C17         5.3941    3.6283   -3.0245 C.3       1 <0>         0.1390
     26 H3          4.4075    4.0864   -3.0932 H         1 <0>         0.1157
     27 C18         6.1074    4.1390   -1.7710 C.3       1 <0>        -0.1062
     28 C19         5.2293    3.8830   -0.5445 C.3       1 <0>        -0.0647
     29 S1          6.0750    4.4885    0.9417 S.3       1 <0>        -0.2820
     30 C20         4.9180    4.1149    2.2879 C.3       1 <0>        -0.1122
     31 C21         6.2017    3.9896   -4.2444 C.2       1 <0>         0.5303
     32 O4          6.6178    3.1169   -4.9767 O.2       1 <0>        -0.5433
     33 N4          6.4617    5.2827   -4.5218 N.am      1 <0>        -0.6740
     34 C22         7.3356    5.6295   -5.6452 C.3       1 <0>         0.1607
     35 H4          7.1443    4.9516   -6.4771 H         1 <0>         0.1169
     36 C23         7.0549    7.0679   -6.0846 C.3       1 <0>        -0.1901
     37 C24         5.6573    7.1596   -6.6409 C.2       1 <0>         0.4931
     38 O5          4.9877    6.1498   -6.7763 O.co2     1 <0>        -0.6828
     39 O6          5.1963    8.2435   -6.9556 O.co2     1 <0>        -0.6976
     40 C25         8.7756    5.5067   -5.2181 C.2       1 <0>         0.5177
     41 O7          9.0453    5.1633   -4.0866 O.2       1 <0>        -0.5358
     42 N5          9.7637    5.7785   -6.0934 N.am      1 <0>        -0.7073
     43 C26        11.1635    5.6591   -5.6782 C.3       1 <0>         0.1367
     44 H5         11.2653    4.8300   -4.9779 H         1 <0>         0.1153
     45 C27        12.0394    5.4004   -6.9058 C.3       1 <0>        -0.0830
     46 C28        11.6851    4.0627   -7.5026 C.ar      1 <0>        -0.0845
     47 C29        12.3379    2.9211   -7.0767 C.ar      1 <0>        -0.1152
     48 C30        12.0129    1.6941   -7.6242 C.ar      1 <0>        -0.1189
     49 C31        11.0349    1.6087   -8.5973 C.ar      1 <0>        -0.1194
     50 C32        10.3814    2.7502   -9.0226 C.ar      1 <0>        -0.1119
     51 C33        10.7034    3.9766   -8.4721 C.ar      1 <0>        -0.1065
     52 C34        11.6001    6.9374   -5.0101 C.2       1 <0>         0.5030
     53 O8         10.8189    7.8576   -4.8924 O.2       1 <0>        -0.5189
     54 N6         12.8587    7.0581   -4.5434 N.am      1 <0>        -0.8572
     55 H6          1.4080    2.2819    0.6567 H         1 <0>         0.0954
     56 H7         -0.2194    2.3407   -0.0618 H         1 <0>         0.0577
     57 H8         -0.0272    2.3427    1.7078 H         1 <0>         0.0626
     58 H9          0.7459    0.2776    2.8827 H         1 <0>         0.0661
     59 H10         1.1043   -1.1955    1.9501 H         1 <0>         0.0539
     60 H11         2.1811    0.2168    1.8316 H         1 <0>         0.0894
     61 H12        -1.7308    0.3582    0.1046 H         1 <0>         0.0658
     62 H13        -1.1801   -1.1130    0.9416 H         1 <0>         0.0628
     63 H14        -1.5385    0.3601    1.8742 H         1 <0>         0.0773
     64 H15         2.1527   -0.7485   -2.5032 H         1 <0>         0.4083
     65 H16         6.0049   -0.0834   -1.3050 H         1 <0>         0.0863
     66 H17         4.6557   -0.0369   -0.1450 H         1 <0>         0.1018
     67 H18         3.4361   -2.3224    0.3792 H         1 <0>         0.1618
     68 H19         6.9923   -1.6186   -3.2164 H         1 <0>         0.1238
     69 H20         8.0074   -3.5456   -4.3258 H         1 <0>         0.1224
     70 H21         7.3310   -5.8303   -3.7215 H         1 <0>         0.1228
     71 H22         5.6347   -6.2124   -1.9894 H         1 <0>         0.1166
     72 H23         5.9100    1.5975   -3.3683 H         1 <0>         0.4086
     73 H24         7.0563    3.6154   -1.6542 H         1 <0>         0.0814
     74 H25         6.2924    5.2087   -1.8686 H         1 <0>         0.0859
     75 H26         4.2804    4.4066   -0.6614 H         1 <0>         0.0854
     76 H27         5.0444    2.8133   -0.4469 H         1 <0>         0.0929
     77 H28         5.3435    4.4464    3.2351 H         1 <0>         0.0939
     78 H29         3.9757    4.6336    2.1115 H         1 <0>         0.0728
     79 H30         4.7396    3.0403    2.3260 H         1 <0>         0.0753
     80 H31         6.0702    5.9837   -3.9775 H         1 <0>         0.4027
     81 H32         7.1492    7.7346   -5.2274 H         1 <0>         0.0711
     82 H33         7.7715    7.3597   -6.8524 H         1 <0>         0.0774
     83 H34         9.5480    6.0532   -6.9984 H         1 <0>         0.4038
     84 H35        11.8704    6.1840   -7.6443 H         1 <0>         0.0866
     85 H36        13.0885    5.3999   -6.6100 H         1 <0>         0.0913
     86 H37        13.1020    2.9878   -6.3164 H         1 <0>         0.1199
     87 H38        12.5234    0.8023   -7.2919 H         1 <0>         0.1198
     88 H39        10.7815    0.6501   -9.0256 H         1 <0>         0.1199
     89 H40         9.6175    2.6835   -9.7832 H         1 <0>         0.1236
     90 H41        10.1903    4.8679   -8.8016 H         1 <0>         0.1216
     91 H42        13.4835    6.3222   -4.6375 H         1 <0>         0.3984
     92 H43        13.1397    7.8809   -4.1133 H         1 <0>         0.4007
@<TRIPOS>BOND
     1    1    2 1
     2    1   55 1
     3    1   56 1
     4    1   57 1
     5    2    3 1
     6    2    4 1
     7    2    5 1
     8    3   58 1
     9    3   59 1
    10    3   60 1
    11    4   61 1
    12    4   62 1
    13    4   63 1
    14    5    6 1
    15    6    7 2
    16    6    8 am
    17    8    9 1
    18    8   64 1
    19    9   10 1
    20    9   11 1
    21    9   22 1
    22   11   12 1
    23   11   65 1
    24   11   66 1
    25   12   17 1
    26   12   13 2
    27   13   14 1
    28   13   67 1
    29   14   15 1
    30   14   16 1
    31   16   21 ar
    32   16   17 ar
    33   17   18 ar
    34   18   19 ar
    35   18   68 1
    36   19   20 ar
    37   19   69 1
    38   20   21 ar
    39   20   70 1
    40   21   71 1
    41   22   23 2
    42   22   24 am
    43   24   25 1
    44   24   72 1
    45   25   26 1
    46   25   27 1
    47   25   31 1
    48   27   28 1
    49   27   73 1
    50   27   74 1
    51   28   29 1
    52   28   75 1
    53   28   76 1
    54   29   30 1
    55   30   77 1
    56   30   78 1
    57   30   79 1
    58   31   32 2
    59   31   33 am
    60   33   34 1
    61   33   80 1
    62   34   35 1
    63   34   36 1
    64   34   40 1
    65   36   37 1
    66   36   81 1
    67   36   82 1
    68   37   38 2
    69   37   39 1
    70   40   41 2
    71   40   42 am
    72   42   43 1
    73   42   83 1
    74   43   44 1
    75   43   45 1
    76   43   52 1
    77   45   46 1
    78   45   84 1
    79   45   85 1
    80   46   51 ar
    81   46   47 ar
    82   47   48 ar
    83   47   86 1
    84   48   49 ar
    85   48   87 1
    86   49   50 ar
    87   49   88 1
    88   50   51 ar
    89   50   89 1
    90   51   90 1
    91   52   53 2
    92   52   54 am
    93   54   91 1
    94   54   92 1
@<TRIPOS>MOLECULE
ZINC04534209
   92    94     0     0     0
SMALL
USER_CHARGES

@<TRIPOS>ATOM
      1 C1         -0.2768    0.8340    0.3557 C.3       1 <0>        -0.1908
      2 C2         -0.1668   -0.6843    0.2022 C.3       1 <0>         0.1394
      3 C3          0.5980   -1.2633    1.3942 C.3       1 <0>        -0.1846
      4 C4         -1.5688   -1.2946    0.1507 C.3       1 <0>        -0.1401
      5 O1          0.5312   -0.9917   -1.0062 O.3       1 <0>        -0.3628
      6 C5          1.7886   -0.5243   -1.1216 C.2       1 <0>         0.6617
      7 O2          2.2799    0.1266   -0.2209 O.2       1 <0>        -0.5389
      8 N1          2.5024   -0.7786   -2.2362 N.am      1 <0>        -0.6944
      9 C6          3.8706   -0.2701   -2.3618 C.3       1 <0>         0.1637
     10 H1          4.2842   -0.5738   -3.3234 H         1 <0>         0.1153
     11 C7          3.8573    1.2572   -2.2717 C.3       1 <0>        -0.0624
     12 C8          3.1116    1.8236   -3.4525 C.2       1 <0>        -0.1639
     13 C9          3.6484    2.2463   -4.6079 C.2       1 <0>         0.0555
     14 N2          2.6625    2.6949   -5.4440 N.pl3     1 <0>        -0.5951
     15 H2          2.8063    3.0491   -6.3354 H         1 <0>         0.4152
     16 C10         1.4359    2.5686   -4.8314 C.ar      1 <0>         0.0937
     17 C11         1.6627    2.0113   -3.5594 C.ar      1 <0>        -0.0924
     18 C12         0.5864    1.7620   -2.7062 C.ar      1 <0>        -0.0726
     19 C13        -0.6844    2.0576   -3.1130 C.ar      1 <0>        -0.1479
     20 C14        -0.9138    2.6036   -4.3682 C.ar      1 <0>        -0.0989
     21 C15         0.1348    2.8664   -5.2226 C.ar      1 <0>        -0.1338
     22 C16         4.7191   -0.8315   -1.2501 C.2       1 <0>         0.5011
     23 O3          4.1940   -1.2699   -0.2486 O.2       1 <0>        -0.5034
     24 N3          6.0615   -0.8464   -1.3688 N.am      1 <0>        -0.7065
     25 C17         6.8864   -1.3922   -0.2881 C.3       1 <0>         0.1415
     26 H3          6.3686   -2.2317    0.1758 H         1 <0>         0.1135
     27 C18         7.1379   -0.3061    0.7598 C.3       1 <0>        -0.1115
     28 C19         5.8131    0.0831    1.4189 C.3       1 <0>        -0.0649
     29 S1          6.1113    1.3708    2.6613 S.3       1 <0>        -0.2741
     30 C20         4.4647    1.7156    3.3398 C.3       1 <0>        -0.1145
     31 C21         8.2033   -1.8627   -0.8499 C.2       1 <0>         0.5301
     32 O4          8.4304   -1.7530   -2.0362 O.2       1 <0>        -0.5445
     33 N4          9.1286   -2.4055   -0.0340 N.am      1 <0>        -0.6738
     34 C22        10.3645   -2.9583   -0.5935 C.3       1 <0>         0.1610
     35 H4         10.7041   -2.3293   -1.4164 H         1 <0>         0.1177
     36 C23        11.4412   -3.0022    0.4927 C.3       1 <0>        -0.1907
     37 C24        11.7980   -1.5968    0.9033 C.2       1 <0>         0.4937
     38 O5         11.3190   -0.6473    0.3071 O.co2     1 <0>        -0.6810
     39 O6         12.5658   -1.4094    1.8317 O.co2     1 <0>        -0.6970
     40 C25        10.1060   -4.3535   -1.1012 C.2       1 <0>         0.5174
     41 O7          8.9985   -4.8383   -1.0052 O.2       1 <0>        -0.5387
     42 N5         11.1056   -5.0625   -1.6620 N.am      1 <0>        -0.7070
     43 C26        10.8543   -6.4188   -2.1556 C.3       1 <0>         0.1363
     44 H5          9.8461   -6.4751   -2.5660 H         1 <0>         0.1146
     45 C27        11.8695   -6.7602   -3.2481 C.3       1 <0>        -0.0829
     46 C28        11.6527   -5.8575   -4.4352 C.ar      1 <0>        -0.0845
     47 C29        10.7826   -6.2350   -5.4408 C.ar      1 <0>        -0.1154
     48 C30        10.5837   -5.4069   -6.5297 C.ar      1 <0>        -0.1194
     49 C31        11.2546   -4.2011   -6.6127 C.ar      1 <0>        -0.1197
     50 C32        12.1240   -3.8232   -5.6066 C.ar      1 <0>        -0.1118
     51 C33        12.3197   -4.6493   -4.5156 C.ar      1 <0>        -0.1063
     52 C34        10.9898   -7.3999   -1.0197 C.2       1 <0>         0.5029
     53 O8         11.2687   -7.0050    0.0926 O.2       1 <0>        -0.5187
     54 N6         10.8009   -8.7160   -1.2399 N.am      1 <0>        -0.8571
     55 H6          0.7221    1.2688    0.3924 H         1 <0>         0.0900
     56 H7         -0.8216    1.2464   -0.4935 H         1 <0>         0.0610
     57 H8         -0.8092    1.0684    1.2774 H         1 <0>         0.0672
     58 H9          0.0656   -1.0289    2.3160 H         1 <0>         0.0627
     59 H10         0.6764   -2.3450    1.2850 H         1 <0>         0.0562
     60 H11         1.5968   -0.8285    1.4309 H         1 <0>         0.0955
     61 H12        -2.1137   -0.8822   -0.6985 H         1 <0>         0.0645
     62 H13        -1.4905   -2.3763    0.0414 H         1 <0>         0.0647
     63 H14        -2.1012   -1.0602    1.0725 H         1 <0>         0.0771
     64 H15         2.1102   -1.2983   -2.9553 H         1 <0>         0.4073
     65 H16         3.3631    1.5625   -1.3494 H         1 <0>         0.1033
     66 H17         4.8814    1.6303   -2.2758 H         1 <0>         0.0877
     67 H18         4.7025    2.2344   -4.8426 H         1 <0>         0.1723
     68 H19         0.7572    1.3366   -1.7283 H         1 <0>         0.1270
     69 H20        -1.5168    1.8645   -2.4525 H         1 <0>         0.1175
     70 H21        -1.9238    2.8312   -4.6756 H         1 <0>         0.1218
     71 H22        -0.0541    3.2902   -6.1978 H         1 <0>         0.1167
     72 H23         6.4815   -0.4958   -2.1698 H         1 <0>         0.4089
     73 H24         7.8235   -0.6845    1.5180 H         1 <0>         0.0885
     74 H25         7.5752    0.5687    0.2786 H         1 <0>         0.0851
     75 H26         5.1275    0.4615    0.6607 H         1 <0>         0.0920
     76 H27         5.3758   -0.7917    1.9000 H         1 <0>         0.0831
     77 H28         4.5415    2.4877    4.1053 H         1 <0>         0.0941
     78 H29         3.8074    2.0597    2.5413 H         1 <0>         0.0749
     79 H30         4.0557    0.8064    3.7806 H         1 <0>         0.0714
     80 H31         8.9763   -2.4300    0.9236 H         1 <0>         0.4028
     81 H32        11.0633   -3.5484    1.3570 H         1 <0>         0.0704
     82 H33        12.3280   -3.5038    0.1052 H         1 <0>         0.0770
     83 H34        11.9915   -4.6748   -1.7389 H         1 <0>         0.4042
     84 H35        12.8793   -6.6180   -2.8631 H         1 <0>         0.0871
     85 H36        11.7398   -7.7987   -3.5529 H         1 <0>         0.0913
     86 H37        10.2585   -7.1770   -5.3760 H         1 <0>         0.1198
     87 H38         9.9045   -5.7021   -7.3157 H         1 <0>         0.1196
     88 H39        11.0998   -3.5544   -7.4637 H         1 <0>         0.1198
     89 H40        12.6484   -2.8813   -5.6716 H         1 <0>         0.1240
     90 H41        12.9961   -4.3524   -3.7278 H         1 <0>         0.1221
     91 H42        10.5777   -9.0318   -2.1295 H         1 <0>         0.3984
     92 H43        10.8881   -9.3475   -0.5087 H         1 <0>         0.4008
@<TRIPOS>BOND
     1    1    2 1
     2    1   55 1
     3    1   56 1
     4    1   57 1
     5    2    3 1
     6    2    4 1
     7    2    5 1
     8    3   58 1
     9    3   59 1
    10    3   60 1
    11    4   61 1
    12    4   62 1
    13    4   63 1
    14    5    6 1
    15    6    7 2
    16    6    8 am
    17    8    9 1
    18    8   64 1
    19    9   10 1
    20    9   11 1
    21    9   22 1
    22   11   12 1
    23   11   65 1
    24   11   66 1
    25   12   17 1
    26   12   13 2
    27   13   14 1
    28   13   67 1
    29   14   15 1
    30   14   16 1
    31   16   21 ar
    32   16   17 ar
    33   17   18 ar
    34   18   19 ar
    35   18   68 1
    36   19   20 ar
    37   19   69 1
    38   20   21 ar
    39   20   70 1
    40   21   71 1
    41   22   23 2
    42   22   24 am
    43   24   25 1
    44   24   72 1
    45   25   26 1
    46   25   27 1
    47   25   31 1
    48   27   28 1
    49   27   73 1
    50   27   74 1
    51   28   29 1
    52   28   75 1
    53   28   76 1
    54   29   30 1
    55   30   77 1
    56   30   78 1
    57   30   79 1
    58   31   32 2
    59   31   33 am
    60   33   34 1
    61   33   80 1
    62   34   35 1
    63   34   36 1
    64   34   40 1
    65   36   37 1
    66   36   81 1
    67   36   82 1
    68   37   38 2
    69   37   39 1
    70   40   41 2
    71   40   42 am
    72   42   43 1
    73   42   83 1
    74   43   44 1
    75   43   45 1
    76   43   52 1
    77   45   46 1
    78   45   84 1
    79   45   85 1
    80   46   51 ar
    81   46   47 ar
    82   47   48 ar
    83   47   86 1
    84   48   49 ar
    85   48   87 1
    86   49   50 ar
    87   49   88 1
    88   50   51 ar
    89   50   89 1
    90   51   90 1
    91   52   53 2
    92   52   54 am
    93   54   91 1
    94   54   92 1
@<TRIPOS>MOLECULE
ZINC04534210
   92    94     0     0     0
SMALL
USER_CHARGES

@<TRIPOS>ATOM
      1 C1          0.1330    1.7815    0.6733 C.3       1 <0>        -0.1846
      2 C2          0.0802    0.2537    0.6116 C.3       1 <0>         0.1386
      3 C3          0.9089   -0.3320    1.7566 C.3       1 <0>        -0.1846
      4 C4         -1.3713   -0.2121    0.7424 C.3       1 <0>        -0.1396
      5 O1          0.6124   -0.1913   -0.6378 O.3       1 <0>        -0.3649
      6 C5          1.8892    0.1378   -0.9102 C.2       1 <0>         0.6556
      7 O2          2.5339    0.7851   -0.1091 O.2       1 <0>        -0.5338
      8 N1          2.4522   -0.2507   -2.0715 N.am      1 <0>        -0.6952
      9 C6          3.8414    0.1074   -2.3679 C.3       1 <0>         0.1636
     10 H1          4.1190   -0.2909   -3.3438 H         1 <0>         0.1160
     11 C7          4.7601   -0.4828   -1.2961 C.3       1 <0>        -0.0602
     12 C8          4.7124   -1.9874   -1.3668 C.2       1 <0>        -0.1601
     13 C9          3.9259   -2.7964   -0.6395 C.2       1 <0>         0.0618
     14 N2          4.1596   -4.1016   -0.9774 N.pl3     1 <0>        -0.5961
     15 H2          3.7107   -4.8674   -0.5863 H         1 <0>         0.4139
     16 C10         5.1268   -4.1660   -1.9552 C.ar      1 <0>         0.0956
     17 C11         5.5110   -2.8442   -2.2466 C.ar      1 <0>        -0.1006
     18 C12         6.4846   -2.5995   -3.2166 C.ar      1 <0>        -0.0686
     19 C13         7.0578   -3.6467   -3.8817 C.ar      1 <0>        -0.1453
     20 C14         6.6794   -4.9522   -3.6009 C.ar      1 <0>        -0.0985
     21 C15         5.7271   -5.2168   -2.6408 C.ar      1 <0>        -0.1339
     22 C16         3.9820    1.6078   -2.3792 C.2       1 <0>         0.5020
     23 O3          3.1544    2.2986   -1.8235 O.2       1 <0>        -0.5050
     24 N3          5.0274    2.1820   -3.0069 N.am      1 <0>        -0.7058
     25 C17         5.1640    3.6406   -3.0179 C.3       1 <0>         0.1410
     26 H3          4.8027    4.0465   -2.0730 H         1 <0>         0.1150
     27 C18         4.3417    4.2212   -4.1701 C.3       1 <0>        -0.1112
     28 C19         2.8557    3.9557   -3.9205 C.3       1 <0>        -0.0653
     29 S1          1.8807    4.6441   -5.2866 S.3       1 <0>        -0.2691
     30 C20         0.1662    4.2505   -4.8440 C.3       1 <0>        -0.1180
     31 C21         6.6141    4.0079   -3.2006 C.2       1 <0>         0.5300
     32 O4          7.4510    3.1371   -3.3109 O.2       1 <0>        -0.5423
     33 N4          6.9809    5.3041   -3.2416 N.am      1 <0>        -0.6741
     34 C22         8.3997    5.6620   -3.3136 C.3       1 <0>         0.1611
     35 H4          8.9203    4.9553   -3.9598 H         1 <0>         0.1179
     36 C23         8.5411    7.0745   -3.8842 C.3       1 <0>        -0.1906
     37 C24         8.0663    7.0884   -5.3144 C.2       1 <0>         0.4937
     38 O5          7.7492    6.0461   -5.8616 O.co2     1 <0>        -0.6810
     39 O6          7.9993    8.1420   -5.9242 O.co2     1 <0>        -0.6974
     40 C25         9.0001    5.6158   -1.9321 C.2       1 <0>         0.5171
     41 O7          8.3108    5.3137   -0.9811 O.2       1 <0>        -0.5376
     42 N5         10.3032    5.9102   -1.7535 N.am      1 <0>        -0.7071
     43 C26        10.8868    5.8653   -0.4106 C.3       1 <0>         0.1362
     44 H5         10.4245    5.0597    0.1598 H         1 <0>         0.1149
     45 C27        12.3926    5.6159   -0.5170 C.3       1 <0>        -0.0827
     46 C28        12.6351    4.2488   -1.1030 C.ar      1 <0>        -0.0849
     47 C29        12.7403    3.1493   -0.2718 C.ar      1 <0>        -0.1153
     48 C30        12.9628    1.8953   -0.8093 C.ar      1 <0>        -0.1190
     49 C31        13.0796    1.7408   -2.1781 C.ar      1 <0>        -0.1191
     50 C32        12.9735    2.8402   -3.0093 C.ar      1 <0>        -0.1117
     51 C33        12.7467    4.0935   -2.4721 C.ar      1 <0>        -0.1064
     52 C34        10.6433    7.1787    0.2872 C.2       1 <0>         0.5031
     53 O8         10.0415    8.0649   -0.2814 O.2       1 <0>        -0.5190
     54 N6         11.0944    7.3684    1.5430 N.am      1 <0>        -0.8572
     55 H6          1.1671    2.1133    0.5801 H         1 <0>         0.0964
     56 H7         -0.4574    2.1987   -0.1424 H         1 <0>         0.0559
     57 H8         -0.2729    2.1209    1.6262 H         1 <0>         0.0633
     58 H9          0.5030    0.0074    2.7095 H         1 <0>         0.0667
     59 H10         0.8713   -1.4205    1.7126 H         1 <0>         0.0542
     60 H11         1.9430   -0.0002    1.6633 H         1 <0>         0.0899
     61 H12        -1.9618    0.2051   -0.0733 H         1 <0>         0.0649
     62 H13        -1.4090   -1.3006    0.6984 H         1 <0>         0.0630
     63 H14        -1.7773    0.1273    1.6954 H         1 <0>         0.0775
     64 H15         1.9375   -0.7674   -2.7110 H         1 <0>         0.4073
     65 H16         5.7818   -0.1433   -1.4662 H         1 <0>         0.0887
     66 H17         4.4272   -0.1546   -0.3115 H         1 <0>         0.1019
     67 H18         3.2143   -2.4660    0.1027 H         1 <0>         0.1616
     68 H19         6.7835   -1.5862   -3.4409 H         1 <0>         0.1248
     69 H20         7.8110   -3.4569   -4.6321 H         1 <0>         0.1229
     70 H21         7.1409   -5.7692   -4.1355 H         1 <0>         0.1228
     71 H22         5.4385   -6.2361   -2.4303 H         1 <0>         0.1164
     72 H23         5.6893    1.6295   -3.4513 H         1 <0>         0.4094
     73 H24         4.5132    5.2957   -4.2335 H         1 <0>         0.0905
     74 H25         4.6430    3.7493   -5.1053 H         1 <0>         0.0860
     75 H26         2.6842    2.8811   -3.8572 H         1 <0>         0.0820
     76 H27         2.5544    4.4275   -2.9853 H         1 <0>         0.0857
     77 H28        -0.5043    4.6292   -5.6155 H         1 <0>         0.0974
     78 H29         0.0512    3.1698   -4.7612 H         1 <0>         0.0708
     79 H30        -0.0786    4.7162   -3.8893 H         1 <0>         0.0727
     80 H31         6.3055    6.0001   -3.2234 H         1 <0>         0.4023
     81 H32         7.9393    7.7664   -3.2948 H         1 <0>         0.0703
     82 H33         9.5870    7.3790   -3.8456 H         1 <0>         0.0770
     83 H34        10.8545    6.1518   -2.5141 H         1 <0>         0.4040
     84 H35        12.8415    6.3721   -1.1610 H         1 <0>         0.0869
     85 H36        12.8410    5.6707    0.4750 H         1 <0>         0.0911
     86 H37        12.6491    3.2700    0.7975 H         1 <0>         0.1196
     87 H38        13.0457    1.0363   -0.1599 H         1 <0>         0.1196
     88 H39        13.2541    0.7612   -2.5980 H         1 <0>         0.1200
     89 H40        13.0650    2.7195   -4.0786 H         1 <0>         0.1239
     90 H41        12.6601    4.9519   -3.1217 H         1 <0>         0.1218
     91 H42        11.5757    6.6596    1.9977 H         1 <0>         0.3985
     92 H43        10.9376    8.2138    1.9921 H         1 <0>         0.4006
@<TRIPOS>BOND
     1    1    2 1
     2    1   55 1
     3    1   56 1
     4    1   57 1
     5    2    3 1
     6    2    4 1
     7    2    5 1
     8    3   58 1
     9    3   59 1
    10    3   60 1
    11    4   61 1
    12    4   62 1
    13    4   63 1
    14    5    6 1
    15    6    7 2
    16    6    8 am
    17    8    9 1
    18    8   64 1
    19    9   10 1
    20    9   11 1
    21    9   22 1
    22   11   12 1
    23   11   65 1
    24   11   66 1
    25   12   17 1
    26   12   13 2
    27   13   14 1
    28   13   67 1
    29   14   15 1
    30   14   16 1
    31   16   21 ar
    32   16   17 ar
    33   17   18 ar
    34   18   19 ar
    35   18   68 1
    36   19   20 ar
    37   19   69 1
    38   20   21 ar
    39   20   70 1
    40   21   71 1
    41   22   23 2
    42   22   24 am
    43   24   25 1
    44   24   72 1
    45   25   26 1
    46   25   27 1
    47   25   31 1
    48   27   28 1
    49   27   73 1
    50   27   74 1
    51   28   29 1
    52   28   75 1
    53   28   76 1
    54   29   30 1
    55   30   77 1
    56   30   78 1
    57   30   79 1
    58   31   32 2
    59   31   33 am
    60   33   34 1
    61   33   80 1
    62   34   35 1
    63   34   36 1
    64   34   40 1
    65   36   37 1
    66   36   81 1
    67   36   82 1
    68   37   38 2
    69   37   39 1
    70   40   41 2
    71   40   42 am
    72   42   43 1
    73   42   83 1
    74   43   44 1
    75   43   45 1
    76   43   52 1
    77   45   46 1
    78   45   84 1
    79   45   85 1
    80   46   51 ar
    81   46   47 ar
    82   47   48 ar
    83   47   86 1
    84   48   49 ar
    85   48   87 1
    86   49   50 ar
    87   49   88 1
    88   50   51 ar
    89   50   89 1
    90   51   90 1
    91   52   53 2
    92   52   54 am
    93   54   91 1
    94   54   92 1
@<TRIPOS>MOLECULE
ZINC03789437
   61    61     0     0     0
SMALL
USER_CHARGES

@<TRIPOS>ATOM
      1 C1         -1.8137    1.7470    1.1751 C.3       1 <0>        -0.1519
      2 C2         -1.4478    0.2648    1.0753 C.3       1 <0>        -0.1258
      3 C3         -2.6894   -0.5423    0.6905 C.3       1 <0>        -0.1145
      4 C4         -2.3235   -2.0245    0.5907 C.3       1 <0>        -0.1378
      5 C5         -3.5650   -2.8315    0.2058 C.3       1 <0>         0.1183
      6 N1         -3.2147   -4.2508    0.1103 N.am      1 <0>        -0.6059
      7 C6         -3.2986   -5.1074    1.2957 C.3       1 <0>         0.0910
      8 C7         -4.7364   -5.6016    1.4672 C.3       1 <0>        -0.1356
      9 C8         -4.8240   -6.4962    2.7052 C.3       1 <0>        -0.1214
     10 C9         -6.2619   -6.9903    2.8766 C.3       1 <0>        -0.1223
     11 C10        -6.3495   -7.8850    4.1147 C.3       1 <0>        -0.1537
     12 C11        -2.8151   -4.7684   -1.0683 C.2       1 <0>         0.5216
     13 O1         -2.6596   -4.0429   -2.0276 O.2       1 <0>        -0.5408
     14 C12        -2.5617   -6.2486   -1.1939 C.3       1 <0>         0.1245
     15 H1         -3.3336   -6.7966   -0.6534 H         1 <0>         0.1107
     16 C13        -1.1905   -6.5832   -0.6035 C.3       1 <0>        -0.0991
     17 C14        -0.9893   -8.0999   -0.6086 C.3       1 <0>        -0.1695
     18 C15         0.3613   -8.4295   -0.0270 C.2       1 <0>         0.4880
     19 O2          1.0950   -7.5343    0.3560 O.co2     1 <0>        -0.7031
     20 O3          0.7203   -9.5914    0.0605 O.co2     1 <0>        -0.7042
     21 N2         -2.5910   -6.6307   -2.6079 N.am      1 <0>        -0.7042
     22 C16        -2.8930   -7.8968   -2.9577 C.2       1 <0>         0.5584
     23 O4         -3.1410   -8.7217   -2.0999 O.2       1 <0>        -0.5101
     24 C17        -2.9225   -8.2823   -4.3841 C.ar      1 <0>        -0.1082
     25 C18        -2.6325   -7.3384   -5.3713 C.ar      1 <0>        -0.0696
     26 C19        -2.6615   -7.7032   -6.7007 C.ar      1 <0>        -0.1049
     27 C20        -2.9780   -9.0033   -7.0584 C.ar      1 <0>        -0.0117
     28 C21        -3.2670   -9.9451   -6.0835 C.ar      1 <0>        -0.0393
     29 C22        -3.2349   -9.5928   -4.7493 C.ar      1 <0>        -0.0380
     30 Cl1        -3.6627  -11.5724   -6.5409 Cl        1 <0>        -0.0421
     31 Cl2        -3.0136   -9.4547   -8.7343 Cl        1 <0>        -0.0457
     32 H2         -0.9292    2.3220    1.4492 H         1 <0>         0.0523
     33 H3         -2.1888    2.0943    0.2124 H         1 <0>         0.0525
     34 H4         -2.5839    1.8808    1.9347 H         1 <0>         0.0520
     35 H5         -0.6777    0.1310    0.3156 H         1 <0>         0.0622
     36 H6         -1.0727   -0.0825    2.0380 H         1 <0>         0.0614
     37 H7         -3.4595   -0.4085    1.4501 H         1 <0>         0.0604
     38 H8         -3.0644   -0.1950   -0.2723 H         1 <0>         0.0621
     39 H9         -1.5533   -2.1583   -0.1690 H         1 <0>         0.0697
     40 H10        -1.9484   -2.3718    1.5534 H         1 <0>         0.0649
     41 H11        -4.3352   -2.6978    0.9655 H         1 <0>         0.0753
     42 H12        -3.9401   -2.4843   -0.7569 H         1 <0>         0.0814
     43 H13        -2.6328   -5.9619    1.1744 H         1 <0>         0.0976
     44 H14        -3.0025   -4.5383    2.1770 H         1 <0>         0.0826
     45 H15        -5.4022   -4.7471    1.5885 H         1 <0>         0.0638
     46 H16        -5.0325   -6.1707    0.5859 H         1 <0>         0.0655
     47 H17        -4.1582   -7.3507    2.5839 H         1 <0>         0.0707
     48 H18        -4.5280   -5.9271    3.5864 H         1 <0>         0.0639
     49 H19        -6.9277   -6.1359    2.9979 H         1 <0>         0.0576
     50 H20        -6.5580   -7.5595    1.9954 H         1 <0>         0.0614
     51 H21        -7.3738   -8.2370    4.2368 H         1 <0>         0.0509
     52 H22        -5.6837   -8.7394    3.9934 H         1 <0>         0.0568
     53 H23        -6.0534   -7.3159    4.9959 H         1 <0>         0.0525
     54 H24        -0.4119   -6.1115   -1.2029 H         1 <0>         0.0698
     55 H25        -1.1355   -6.2128    0.4201 H         1 <0>         0.0771
     56 H26        -1.7680   -8.5717   -0.0091 H         1 <0>         0.0625
     57 H27        -1.0444   -8.4703   -1.6322 H         1 <0>         0.0595
     58 H28        -2.3931   -5.9726   -3.2924 H         1 <0>         0.4060
     59 H29        -2.3861   -6.3240   -5.0941 H         1 <0>         0.1450
     60 H30        -2.4372   -6.9736   -7.4647 H         1 <0>         0.1498
     61 H31        -3.4558  -10.3283   -3.9899 H         1 <0>         0.1593
@<TRIPOS>BOND
     1    1    2 1
     2    1   32 1
     3    1   33 1
     4    1   34 1
     5    2    3 1
     6    2   35 1
     7    2   36 1
     8    3    4 1
     9    3   37 1
    10    3   38 1
    11    4    5 1
    12    4   39 1
    13    4   40 1
    14    5    6 1
    15    5   41 1
    16    5   42 1
    17    6    7 1
    18    6   12 am
    19    7    8 1
    20    7   43 1
    21    7   44 1
    22    8    9 1
    23    8   45 1
    24    8   46 1
    25    9   10 1
    26    9   47 1
    27    9   48 1
    28   10   11 1
    29   10   49 1
    30   10   50 1
    31   11   51 1
    32   11   52 1
    33   11   53 1
    34   12   13 2
    35   12   14 1
    36   14   15 1
    37   14   16 1
    38   14   21 1
    39   16   17 1
    40   16   54 1
    41   16   55 1
    42   17   18 1
    43   17   56 1
    44   17   57 1
    45   18   19 2
    46   18   20 1
    47   21   22 am
    48   21   58 1
    49   22   23 2
    50   22   24 1
    51   24   29 ar
    52   24   25 ar
    53   25   26 ar
    54   25   59 1
    55   26   27 ar
    56   26   60 1
    57   27   28 ar
    58   27   31 1
    59   28   29 ar
    60   28   30 1
    61   29   61 1
@<TRIPOS>MOLECULE
ZINC01912542
   52    55     0     0     0
SMALL
USER_CHARGES

@<TRIPOS>ATOM
      1 C1         -0.7467    2.7587    0.9696 C.ar      1 <0>        -0.1334
      2 C2         -2.0022    2.2059    0.7992 C.ar      1 <0>        -0.1186
      3 C3         -3.0563    2.9989    0.3859 C.ar      1 <0>        -0.1155
      4 C4         -2.8573    4.3470    0.1533 C.ar      1 <0>        -0.0665
      5 C5         -1.6018    4.8998    0.3237 C.ar      1 <0>        -0.1179
      6 C6         -0.5465    4.1056    0.7318 C.ar      1 <0>        -0.1191
      7 C7         -4.0077    5.2126   -0.2921 C.3       1 <0>        -0.0771
      8 C8         -4.0822    5.2152   -1.8203 C.3       1 <0>         0.1111
      9 H1         -4.1446    4.1892   -2.1827 H         1 <0>         0.0910
     10 C9         -5.3036    5.9794   -2.2623 C.2       1 <0>         0.4581
     11 O1         -5.1840    6.9572   -2.9620 O.co2     1 <0>        -0.6236
     12 N1         -2.8823    5.8540   -2.3666 N.am      1 <0>        -0.6858
     13 C10        -2.4638    5.5491   -3.6109 C.2       1 <0>         0.5660
     14 O2         -3.0821    4.7440   -4.2801 O.2       1 <0>        -0.5519
     15 C11        -1.2557    6.1923   -4.1610 C.ar      1 <0>        -0.1428
     16 C12        -0.5626    7.1444   -3.4098 C.ar      1 <0>        -0.0698
     17 C13         0.5653    7.7417   -3.9292 C.ar      1 <0>        -0.1367
     18 C14         1.0173    7.4025   -5.1945 C.ar      1 <0>        -0.0840
     19 C15         0.3435    6.4633   -5.9485 C.ar      1 <0>        -0.1231
     20 C16        -0.7925    5.8472   -5.4395 C.ar      1 <0>         0.1975
     21 N2         -1.4703    4.8957   -6.1957 N.am      1 <0>        -0.6542
     22 C17        -1.6831    5.1060   -7.5098 C.2       1 <0>         0.5880
     23 O3         -1.1987    6.0789   -8.0564 O.2       1 <0>        -0.5113
     24 C18        -2.5004    4.1597   -8.2827 C.2       1 <0>         0.0222
     25 C19        -2.7849    4.2635   -9.6076 C.2       1 <0>        -0.1053
     26 C20        -3.5939    3.1572   -9.9627 C.ar      1 <0>        -0.1211
     27 C21        -4.1820    2.7418  -11.1646 C.ar      1 <0>        -0.0605
     28 C22        -4.9279    1.5997  -11.1960 C.ar      1 <0>        -0.1513
     29 C23        -5.1112    0.8425  -10.0456 C.ar      1 <0>        -0.0893
     30 C24        -4.5441    1.2301   -8.8524 C.ar      1 <0>        -0.1299
     31 C25        -3.7786    2.3915   -8.7950 C.ar      1 <0>         0.1169
     32 N3         -3.0970    3.0197   -7.7795 N.pl3     1 <0>        -0.5715
     33 H2         -3.0451    2.7139   -6.8605 H         1 <0>         0.4224
     34 H3          0.0778    2.1382    1.2881 H         1 <0>         0.1158
     35 H4         -2.1585    1.1534    0.9846 H         1 <0>         0.1180
     36 H5         -4.0362    2.5661    0.2485 H         1 <0>         0.1236
     37 H6         -1.4454    5.9521    0.1376 H         1 <0>         0.1162
     38 H7          0.4344    4.5375    0.8646 H         1 <0>         0.1175
     39 H8         -4.9383    4.8186    0.1164 H         1 <0>         0.0995
     40 H9         -3.8560    6.2309    0.0660 H         1 <0>         0.0725
     41 H10        -2.3890    6.4963   -1.8327 H         1 <0>         0.3907
     42 H11        -0.9101    7.4119   -2.4228 H         1 <0>         0.1289
     43 H12         1.1001    8.4776   -3.3471 H         1 <0>         0.1292
     44 H13         1.9025    7.8758   -5.5929 H         1 <0>         0.1294
     45 H14         0.7022    6.2041   -6.9337 H         1 <0>         0.1377
     46 H15        -1.7896    4.0810   -5.7769 H         1 <0>         0.4173
     47 H16        -2.4535    5.0490  -10.2705 H         1 <0>         0.1567
     48 H17        -4.0449    3.3237  -12.0640 H         1 <0>         0.1244
     49 H18        -5.3804    1.2816  -12.1236 H         1 <0>         0.1227
     50 H19        -5.7046   -0.0589  -10.0877 H         1 <0>         0.1263
     51 H20        -4.6924    0.6347   -7.9637 H         1 <0>         0.1238
     52 O4         -6.5243    5.5737   -1.8788 O.co2     1 <0>        -0.7632
@<TRIPOS>BOND
     1    1    6 ar
     2    1    2 ar
     3    1   34 1
     4    2    3 ar
     5    2   35 1
     6    3    4 ar
     7    3   36 1
     8    4    5 ar
     9    4    7 1
    10    5    6 ar
    11    5   37 1
    12    6   38 1
    13    7    8 1
    14    7   39 1
    15    7   40 1
    16    8    9 1
    17    8   10 1
    18    8   12 1
    19   10   11 2
    20   10   52 1
    21   12   13 am
    22   12   41 1
    23   13   14 2
    24   13   15 1
    25   15   20 ar
    26   15   16 ar
    27   16   17 ar
    28   16   42 1
    29   17   18 ar
    30   17   43 1
    31   18   19 ar
    32   18   44 1
    33   19   20 ar
    34   19   45 1
    35   20   21 1
    36   21   22 am
    37   21   46 1
    38   22   23 2
    39   22   24 1
    40   24   32 1
    41   24   25 2
    42   25   26 1
    43   25   47 1
    44   26   31 ar
    45   26   27 ar
    46   27   28 ar
    47   27   48 1
    48   28   29 ar
    49   28   49 1
    50   29   30 ar
    51   29   50 1
    52   30   31 ar
    53   30   51 1
    54   31   32 1
    55   32   33 1
@<TRIPOS>MOLECULE
ZINC03789440
   59    59     0     0     0
SMALL
USER_CHARGES
4-(3,4-dichlorobenzoyl)amino-5-(3-methoxypropyl-pentyl-amino)-5-oxo-pentanoic acid
@<TRIPOS>ATOM
      1 C1         10.6585    4.2917   -2.7443 C.3       1 <0>        -0.1528
      2 C2          9.3882    5.0914   -2.4482 C.3       1 <0>        -0.1241
      3 C3          8.9838    4.8838   -0.9873 C.3       1 <0>        -0.1164
      4 C4          7.7135    5.6835   -0.6912 C.3       1 <0>        -0.1342
      5 C5          7.3090    5.4760    0.7697 C.3       1 <0>         0.1151
      6 N1          6.0302    6.1446    1.0222 N.am      1 <0>        -0.6054
      7 C6          6.0096    7.5022    1.5726 C.3       1 <0>         0.1041
      8 C7          6.2008    7.4405    3.0893 C.3       1 <0>        -0.1465
      9 C8          6.0356    8.8415    3.6815 C.3       1 <0>         0.0659
     10 O1          6.2142    8.7839    5.0982 O.3       1 <0>        -0.3852
     11 C9          6.0796   10.0470    5.7528 C.3       1 <0>         0.0338
     12 C10         4.8728    5.5109    0.7480 C.2       1 <0>         0.5226
     13 O2          4.8841    4.3452    0.4136 O.2       1 <0>        -0.5377
     14 C11         3.5645    6.2508    0.8571 C.3       1 <0>         0.1254
     15 H1          3.6452    7.2093    0.3442 H         1 <0>         0.1120
     16 C12         3.2340    6.4879    2.3321 C.3       1 <0>        -0.1186
     17 C13         1.9058    7.2393    2.4428 C.3       1 <0>        -0.1437
     18 C14         1.5804    7.4728    3.8956 C.2       1 <0>         0.4570
     19 O3          2.3335    7.0787    4.7543 O.co2     1 <0>        -0.6401
     20 N2          2.5004    5.4550    0.2401 N.am      1 <0>        -0.7044
     21 C15         1.3962    6.0618   -0.2383 C.2       1 <0>         0.5600
     22 O4          1.2831    7.2694   -0.1579 O.2       1 <0>        -0.5116
     23 C16         0.3228    5.2589   -0.8608 C.ar      1 <0>        -0.1085
     24 C17         0.4500    3.8716   -0.9546 C.ar      1 <0>        -0.0693
     25 C18        -0.5540    3.1273   -1.5370 C.ar      1 <0>        -0.1050
     26 C19        -1.6879    3.7528   -2.0285 C.ar      1 <0>        -0.0114
     27 C20        -1.8208    5.1294   -1.9378 C.ar      1 <0>        -0.0392
     28 C21        -0.8220    5.8846   -1.3571 C.ar      1 <0>        -0.0374
     29 Cl1        -3.2456    5.9050   -2.5559 Cl        1 <0>        -0.0418
     30 Cl2        -2.9475    2.8088   -2.7605 Cl        1 <0>        -0.0456
     31 H2         10.9466    4.4396   -3.7850 H         1 <0>         0.0520
     32 H3         11.4629    4.6329   -2.0926 H         1 <0>         0.0531
     33 H4         10.4710    3.2328   -2.5661 H         1 <0>         0.0536
     34 H5          8.5839    4.7501   -3.0998 H         1 <0>         0.0606
     35 H6          9.5757    6.1503   -2.6263 H         1 <0>         0.0600
     36 H7          9.7881    5.2251   -0.3356 H         1 <0>         0.0625
     37 H8          8.7963    3.8249   -0.8091 H         1 <0>         0.0642
     38 H9          6.9091    5.3423   -1.3428 H         1 <0>         0.0658
     39 H10         7.9009    6.7424   -0.8693 H         1 <0>         0.0630
     40 H11         8.0742    5.8971    1.4219 H         1 <0>         0.0799
     41 H12         7.2073    4.4095    0.9705 H         1 <0>         0.0836
     42 H13         6.8152    8.0867    1.1282 H         1 <0>         0.0821
     43 H14         5.0523    7.9716    1.3458 H         1 <0>         0.0914
     44 H15         5.4561    6.7728    3.5225 H         1 <0>         0.0941
     45 H16         7.1994    7.0662    3.3147 H         1 <0>         0.0731
     46 H17         6.7802    9.5093    3.2483 H         1 <0>         0.0449
     47 H18         5.0370    9.2158    3.4561 H         1 <0>         0.0568
     48 H19         6.8252   10.7398    5.3625 H         1 <0>         0.0353
     49 H20         5.0819   10.4463    5.5704 H         1 <0>         0.0460
     50 H21         6.2291    9.9184    6.8248 H         1 <0>         0.0838
     51 H22         3.1531    5.5295    2.8449 H         1 <0>         0.0694
     52 H23         4.0257    7.0800    2.7911 H         1 <0>         0.0914
     53 H24         1.9867    8.1977    1.9299 H         1 <0>         0.0707
     54 H25         1.1141    6.6472    1.9837 H         1 <0>         0.0605
     55 H26         2.5907    4.4913    0.1759 H         1 <0>         0.4066
     56 H27         1.3333    3.3823   -0.5716 H         1 <0>         0.1450
     57 H28        -0.4581    2.0538   -1.6061 H         1 <0>         0.1498
     58 H29        -0.9258    6.9574   -1.2873 H         1 <0>         0.1595
     59 O5          0.4538    8.1185    4.2356 O.co2     1 <0>        -0.7754
@<TRIPOS>BOND
     1    1    2 1
     2    1   31 1
     3    1   32 1
     4    1   33 1
     5    2    3 1
     6    2   34 1
     7    2   35 1
     8    3    4 1
     9    3   36 1
    10    3   37 1
    11    4    5 1
    12    4   38 1
    13    4   39 1
    14    5    6 1
    15    5   40 1
    16    5   41 1
    17    6    7 1
    18    6   12 am
    19    7    8 1
    20    7   42 1
    21    7   43 1
    22    8    9 1
    23    8   44 1
    24    8   45 1
    25    9   10 1
    26    9   46 1
    27    9   47 1
    28   10   11 1
    29   11   48 1
    30   11   49 1
    31   11   50 1
    32   12   13 2
    33   12   14 1
    34   14   15 1
    35   14   16 1
    36   14   20 1
    37   16   17 1
    38   16   51 1
    39   16   52 1
    40   17   18 1
    41   17   53 1
    42   17   54 1
    43   18   19 2
    44   18   59 1
    45   20   21 am
    46   20   55 1
    47   21   22 2
    48   21   23 1
    49   23   28 ar
    50   23   24 ar
    51   24   25 ar
    52   24   56 1
    53   25   26 ar
    54   25   57 1
    55   26   27 ar
    56   26   30 1
    57   27   28 ar
    58   27   29 1
    59   28   58 1
@<TRIPOS>MOLECULE
ZINC03801027
   59    59     0     0     0
SMALL
USER_CHARGES
4-(3,4-dichlorobenzoyl)amino-5-(3-methoxypropyl-pentyl-amino)-5-oxo-pentanoic acid
@<TRIPOS>ATOM
      1 C1         -7.6754   -1.2360   -1.5766 C.3       1 <0>        -0.1538
      2 C2         -6.2365   -1.4461   -2.0523 C.3       1 <0>        -0.1224
      3 C3         -5.4095   -2.0589   -0.9203 C.3       1 <0>        -0.1213
      4 C4         -3.9706   -2.2689   -1.3960 C.3       1 <0>        -0.1366
      5 C5         -3.1435   -2.8818   -0.2640 C.3       1 <0>         0.0860
      6 N1         -1.7657   -3.0829   -0.7195 N.am      1 <0>        -0.6037
      7 C6         -1.3478   -4.3892   -1.2344 C.3       1 <0>         0.1210
      8 C7         -0.8210   -5.2468   -0.0821 C.3       1 <0>        -0.1386
      9 C8         -0.3845   -6.6111   -0.6200 C.3       1 <0>         0.0668
     10 O1          0.1076   -7.4121    0.4563 O.3       1 <0>        -0.3897
     11 C9          0.5438   -8.7138    0.0597 C.3       1 <0>         0.0320
     12 C10        -0.8827   -2.0662   -0.6648 C.2       1 <0>         0.5229
     13 O2          0.2276   -2.2014   -1.1336 O.2       1 <0>        -0.5407
     14 C11        -1.2749   -0.7613   -0.0210 C.3       1 <0>         0.1252
     15 H1         -2.2157   -0.4138   -0.4479 H         1 <0>         0.1146
     16 C12        -1.4436   -0.9664    1.4858 C.3       1 <0>        -0.1084
     17 C13        -1.9358    0.3334    2.1255 C.3       1 <0>        -0.1443
     18 C14        -2.1020    0.1313    3.6096 C.2       1 <0>         0.4576
     19 O3         -1.8524   -0.9421    4.1049 O.co2     1 <0>        -0.6452
     20 N2         -0.2303    0.2366   -0.2640 N.am      1 <0>        -0.7045
     21 C15        -0.5359    1.5492   -0.2502 C.2       1 <0>         0.5591
     22 O4         -1.6793    1.9049   -0.0411 O.2       1 <0>        -0.5100
     23 C16         0.5180    2.5559   -0.4954 C.ar      1 <0>        -0.1086
     24 C17         1.8323    2.1502   -0.7359 C.ar      1 <0>        -0.0692
     25 C18         2.8107    3.0934   -0.9693 C.ar      1 <0>        -0.1051
     26 C19         2.4947    4.4418   -0.9543 C.ar      1 <0>        -0.0114
     27 C20         1.1932    4.8514   -0.7110 C.ar      1 <0>        -0.0392
     28 C21         0.2044    3.9160   -0.4818 C.ar      1 <0>        -0.0375
     29 Cl1         0.8058    6.5435   -0.6952 Cl        1 <0>        -0.0418
     30 Cl2         3.7336    5.6235   -1.2418 Cl        1 <0>        -0.0457
     31 H2         -8.1068   -2.1949   -1.2894 H         1 <0>         0.0523
     32 H3         -7.6800   -0.5640   -0.7184 H         1 <0>         0.0572
     33 H4         -8.2646   -0.7994   -2.3830 H         1 <0>         0.0510
     34 H5         -5.8051   -0.4871   -2.3394 H         1 <0>         0.0619
     35 H6         -6.2320   -2.1181   -2.9105 H         1 <0>         0.0574
     36 H7         -5.8409   -3.0178   -0.6331 H         1 <0>         0.0641
     37 H8         -5.4140   -1.3869   -0.0621 H         1 <0>         0.0715
     38 H9         -3.5392   -1.3100   -1.6831 H         1 <0>         0.0656
     39 H10        -3.9660   -2.9409   -2.2542 H         1 <0>         0.0645
     40 H11        -3.5749   -3.8407    0.0231 H         1 <0>         0.0865
     41 H12        -3.1481   -2.2098    0.5942 H         1 <0>         0.1002
     42 H13        -2.1999   -4.8867   -1.6976 H         1 <0>         0.0791
     43 H14        -0.5601   -4.2526   -1.9753 H         1 <0>         0.0862
     44 H15         0.0311   -4.7493    0.3810 H         1 <0>         0.0779
     45 H16        -1.6087   -5.3834    0.6588 H         1 <0>         0.0763
     46 H17        -1.2366   -7.1086   -1.0831 H         1 <0>         0.0486
     47 H18         0.4032   -6.4745   -1.3609 H         1 <0>         0.0500
     48 H19         0.9024   -9.2586    0.9330 H         1 <0>         0.0855
     49 H20        -0.2890   -9.2550   -0.3893 H         1 <0>         0.0398
     50 H21         1.3508   -8.6208   -0.6671 H         1 <0>         0.0402
     51 H22        -2.1711   -1.7580    1.6655 H         1 <0>         0.0833
     52 H23        -0.4858   -1.2470    1.9238 H         1 <0>         0.0708
     53 H24        -1.2084    1.1250    1.9458 H         1 <0>         0.0645
     54 H25        -2.8937    0.6139    1.6875 H         1 <0>         0.0706
     55 H26         0.6814   -0.0474   -0.4348 H         1 <0>         0.4065
     56 H27         2.0812    1.0994   -0.7432 H         1 <0>         0.1450
     57 H28         3.8265    2.7801   -1.1597 H         1 <0>         0.1497
     58 H29        -0.8096    4.2357   -0.2919 H         1 <0>         0.1597
     59 O5         -2.5273    1.1439    4.3813 O.co2     1 <0>        -0.7734
@<TRIPOS>BOND
     1    1    2 1
     2    1   31 1
     3    1   32 1
     4    1   33 1
     5    2    3 1
     6    2   34 1
     7    2   35 1
     8    3    4 1
     9    3   36 1
    10    3   37 1
    11    4    5 1
    12    4   38 1
    13    4   39 1
    14    5    6 1
    15    5   40 1
    16    5   41 1
    17    6    7 1
    18    6   12 am
    19    7    8 1
    20    7   42 1
    21    7   43 1
    22    8    9 1
    23    8   44 1
    24    8   45 1
    25    9   10 1
    26    9   46 1
    27    9   47 1
    28   10   11 1
    29   11   48 1
    30   11   49 1
    31   11   50 1
    32   12   13 2
    33   12   14 1
    34   14   15 1
    35   14   16 1
    36   14   20 1
    37   16   17 1
    38   16   51 1
    39   16   52 1
    40   17   18 1
    41   17   53 1
    42   17   54 1
    43   18   19 2
    44   18   59 1
    45   20   21 am
    46   20   55 1
    47   21   22 2
    48   21   23 1
    49   23   28 ar
    50   23   24 ar
    51   24   25 ar
    52   24   56 1
    53   25   26 ar
    54   25   57 1
    55   26   27 ar
    56   26   30 1
    57   27   28 ar
    58   27   29 1
    59   28   58 1
@<TRIPOS>MOLECULE
ZINC04654954
   50    54     0     0     0
SMALL
USER_CHARGES
6-(2-fluorophenyl)-4-(1H-indol-3-ylmethyl)-2-methyl-2,5-diazabicyclo[5.4.0]undeca-5,8,10,12-tetraen-3-one
@<TRIPOS>ATOM
      1 C1          3.2412    2.5938   -0.8573 C.3       1 <0>         0.0592
      2 N1          2.3209    1.8325   -0.0090 N.am      1 <0>        -0.5521
      3 C2          1.0196    2.2977    0.0999 C.ar      1 <0>         0.1822
      4 C3          0.8386    3.6784    0.2057 C.ar      1 <0>        -0.1443
      5 C4         -0.4254    4.2148    0.3130 C.ar      1 <0>        -0.0753
      6 C5         -1.5344    3.3848    0.3173 C.ar      1 <0>        -0.1296
      7 C6         -1.3749    2.0221    0.2206 C.ar      1 <0>        -0.0678
      8 C7         -0.0940    1.4605    0.1057 C.ar      1 <0>        -0.1237
      9 C8          0.0021   -0.0041    0.0020 C.2       1 <0>         0.2603
     10 N2          0.8894   -0.7265    0.5896 N.2       1 <0>        -0.4608
     11 C9          1.9244   -0.1387    1.4393 C.3       1 <0>         0.0635
     12 H1          2.5255   -0.9318    1.8840 H         1 <0>         0.1364
     13 C10         2.8001    0.7485    0.5972 C.2       1 <0>         0.5121
     14 O1          3.9730    0.4686    0.4668 O.2       1 <0>        -0.5128
     15 C11         1.2692    0.6897    2.5462 C.3       1 <0>        -0.0656
     16 C12         0.4791   -0.2186    3.4527 C.2       1 <0>        -0.1637
     17 C13        -0.8345   -0.4825    3.3707 C.2       1 <0>         0.0646
     18 N3         -1.1979   -1.3545    4.3607 N.pl3     1 <0>        -0.5927
     19 H2         -2.0954   -1.6941    4.5023 H         1 <0>         0.4165
     20 C14        -0.1009   -1.6735    5.1293 C.ar      1 <0>         0.0986
     21 C15         0.9977   -0.9760    4.5943 C.ar      1 <0>        -0.0982
     22 C16         2.2585   -1.1089    5.1784 C.ar      1 <0>        -0.0719
     23 C17         2.4194   -1.9171    6.2686 C.ar      1 <0>        -0.1434
     24 C18         1.3388   -2.6069    6.8004 C.ar      1 <0>        -0.0972
     25 C19         0.0856   -2.4902    6.2396 C.ar      1 <0>        -0.1301
     26 C20        -0.9969   -0.6980   -0.8420 C.ar      1 <0>        -0.0858
     27 C21        -1.9166   -1.5731   -0.2632 C.ar      1 <0>        -0.0593
     28 C22        -2.8452   -2.2163   -1.0544 C.ar      1 <0>        -0.1301
     29 C23        -2.8677   -1.9959   -2.4208 C.ar      1 <0>        -0.0780
     30 C24        -1.9607   -1.1303   -3.0028 C.ar      1 <0>        -0.1533
     31 C25        -1.0268   -0.4752   -2.2208 C.ar      1 <0>         0.1254
     32 F1         -0.1434    0.3744   -2.7891 F         1 <0>        -0.1316
     33 H3          4.2214    2.1170   -0.8494 H         1 <0>         0.1007
     34 H4          2.8579    2.6196   -1.8774 H         1 <0>         0.0719
     35 H5          3.3291    3.6113   -0.4763 H         1 <0>         0.0729
     36 H6          1.6984    4.3320    0.2036 H         1 <0>         0.1350
     37 H7         -0.5521    5.2842    0.3944 H         1 <0>         0.1348
     38 H8         -2.5246    3.8077    0.4012 H         1 <0>         0.1338
     39 H9         -2.2428    1.3793    0.2287 H         1 <0>         0.1324
     40 H10         2.0407    1.1984    3.1243 H         1 <0>         0.0848
     41 H11         0.6025    1.4282    2.1010 H         1 <0>         0.0879
     42 H12        -1.5047   -0.0699    2.6312 H         1 <0>         0.1621
     43 H13         3.1038   -0.5747    4.7705 H         1 <0>         0.1198
     44 H14         3.3950   -2.0196    6.7202 H         1 <0>         0.1228
     45 H15         1.4816   -3.2418    7.6623 H         1 <0>         0.1255
     46 H16        -0.7489   -3.0313    6.6605 H         1 <0>         0.1198
     47 H17        -1.9012   -1.7468    0.8026 H         1 <0>         0.1330
     48 H18        -3.5572   -2.8937   -0.6066 H         1 <0>         0.1344
     49 H19        -3.5975   -2.5023   -3.0350 H         1 <0>         0.1366
     50 H20        -1.9839   -0.9621   -4.0694 H         1 <0>         0.1404
@<TRIPOS>BOND
     1    1    2 1
     2    1   33 1
     3    1   34 1
     4    1   35 1
     5    2   13 am
     6    2    3 1
     7    3    8 ar
     8    3    4 ar
     9    4    5 ar
    10    4   36 1
    11    5    6 ar
    12    5   37 1
    13    6    7 ar
    14    6   38 1
    15    7    8 ar
    16    7   39 1
    17    8    9 1
    18    9   10 2
    19    9   26 1
    20   10   11 1
    21   11   12 1
    22   11   13 1
    23   11   15 1
    24   13   14 2
    25   15   16 1
    26   15   40 1
    27   15   41 1
    28   16   21 1
    29   16   17 2
    30   17   18 1
    31   17   42 1
    32   18   19 1
    33   18   20 1
    34   20   25 ar
    35   20   21 ar
    36   21   22 ar
    37   22   23 ar
    38   22   43 1
    39   23   24 ar
    40   23   44 1
    41   24   25 ar
    42   24   45 1
    43   25   46 1
    44   26   31 ar
    45   26   27 ar
    46   27   28 ar
    47   27   47 1
    48   28   29 ar
    49   28   48 1
    50   29   30 ar
    51   29   49 1
    52   30   31 ar
    53   30   50 1
    54   31   32 1
@<TRIPOS>MOLECULE
ZINC28235260
   50    54     0     0     0
SMALL
USER_CHARGES
(3S)-5-(2-fluorophenyl)-3-(1H-indol-3-ylmethyl)-1-methyl-3H-1,4-benzodiazepin-2-one
@<TRIPOS>ATOM
      1 C1          7.7527    2.6462   -0.8618 C.3       1 <0>         0.0678
      2 N1          6.2948    2.7259   -0.7416 N.am      1 <0>        -0.5527
      3 C2          5.6755    1.8371    0.1234 C.ar      1 <0>         0.1791
      4 C3          6.3067    1.5844    1.3433 C.ar      1 <0>        -0.1451
      5 C4          5.7525    0.7114    2.2531 C.ar      1 <0>        -0.0755
      6 C5          4.5580    0.0723    1.9644 C.ar      1 <0>        -0.1284
      7 C6          3.9219    0.3095    0.7682 C.ar      1 <0>        -0.0802
      8 C7          4.4730    1.1971   -0.1687 C.ar      1 <0>        -0.1220
      9 C8          3.7363    1.4070   -1.4250 C.2       1 <0>         0.2544
     10 N2          3.5880    2.5443   -2.0120 N.2       1 <0>        -0.4592
     11 C9          4.1694    3.7715   -1.4692 C.3       1 <0>         0.0624
     12 H1          3.8601    4.6051   -2.1169 H         1 <0>         0.1352
     13 C10         5.6685    3.6458   -1.4718 C.2       1 <0>         0.5119
     14 O1          6.3234    4.4026   -2.1569 O.2       1 <0>        -0.5120
     15 C11         3.6754    3.9825   -0.0366 C.3       1 <0>        -0.0661
     16 C12         2.1880    4.2247   -0.0486 C.2       1 <0>        -0.1740
     17 C13         1.5734    5.4180   -0.0578 C.2       1 <0>         0.0554
     18 N3          0.2162    5.2438   -0.0678 N.pl3     1 <0>        -0.6055
     19 H2         -0.4506    6.1187   -0.0762 H         1 <0>         0.4422
     20 C14        -0.0833    3.8999   -0.0652 C.ar      1 <0>         0.1081
     21 C15         1.1387    3.2025   -0.0531 C.ar      1 <0>        -0.0896
     22 C16         1.1440    1.8066   -0.0478 C.ar      1 <0>        -0.0782
     23 C17        -0.0398    1.1237   -0.0546 C.ar      1 <0>        -0.1475
     24 C18        -1.2477    1.8069   -0.0723 C.ar      1 <0>        -0.0986
     25 C19        -1.2760    3.1845   -0.0719 C.ar      1 <0>        -0.1315
     26 C20         3.1165    0.2228   -2.0617 C.ar      1 <0>        -0.1023
     27 C21         3.3503   -1.0526   -1.5467 C.ar      1 <0>        -0.0775
     28 C22         2.7698   -2.1520   -2.1437 C.ar      1 <0>        -0.1374
     29 C23         1.9564   -1.9937   -3.2525 C.ar      1 <0>        -0.0709
     30 C24         1.7188   -0.7339   -3.7693 C.ar      1 <0>        -0.1655
     31 C25         2.2902    0.3778   -3.1774 C.ar      1 <0>         0.1548
     32 F1          2.0541    1.6095   -3.6797 F         1 <0>        -0.1091
     33 H3          8.1315    1.8479   -0.2066 H         1 <0>         0.0874
     34 H4          8.1982    3.6070   -0.5644 H         1 <0>         0.0758
     35 H5          8.0230    2.4239   -1.9046 H         1 <0>         0.0737
     36 H6          7.2384    2.0786    1.5756 H         1 <0>         0.1353
     37 H7          6.2504    0.5246    3.1932 H         1 <0>         0.1355
     38 H8          4.1261   -0.6128    2.6788 H         1 <0>         0.1360
     39 H9          2.9908   -0.1916    0.5480 H         1 <0>         0.1409
     40 H10         3.8963    3.0871    0.5630 H         1 <0>         0.0883
     41 H11         4.1851    4.8528    0.4026 H         1 <0>         0.0823
     42 H12         2.0757    6.3741   -0.0571 H         1 <0>         0.1676
     43 H13         2.0802    1.2682   -0.0382 H         1 <0>         0.1239
     44 H14        -0.0352    0.0437   -0.0505 H         1 <0>         0.1183
     45 H15        -2.1749    1.2532   -0.0823 H         1 <0>         0.1231
     46 H16        -2.2211    3.7070   -0.0809 H         1 <0>         0.1177
     47 H17         3.9846   -1.1788   -0.6817 H         1 <0>         0.1432
     48 H18         2.9507   -3.1393   -1.7452 H         1 <0>         0.1347
     49 H19         1.5050   -2.8586   -3.7157 H         1 <0>         0.1353
     50 H20         1.0826   -0.6172   -4.6341 H         1 <0>         0.1387
@<TRIPOS>BOND
     1    1    2 1
     2    1   33 1
     3    1   34 1
     4    1   35 1
     5    2   13 am
     6    2    3 1
     7    3    8 ar
     8    3    4 ar
     9    4    5 ar
    10    4   36 1
    11    5    6 ar
    12    5   37 1
    13    6    7 ar
    14    6   38 1
    15    7    8 ar
    16    7   39 1
    17    8    9 1
    18    9   10 2
    19    9   26 1
    20   10   11 1
    21   11   12 1
    22   11   13 1
    23   11   15 1
    24   13   14 2
    25   15   16 1
    26   15   40 1
    27   15   41 1
    28   16   21 1
    29   16   17 2
    30   17   18 1
    31   17   42 1
    32   18   19 1
    33   18   20 1
    34   20   25 ar
    35   20   21 ar
    36   21   22 ar
    37   22   23 ar
    38   22   43 1
    39   23   24 ar
    40   23   44 1
    41   24   25 ar
    42   24   45 1
    43   25   46 1
    44   26   31 ar
    45   26   27 ar
    46   27   28 ar
    47   27   47 1
    48   28   29 ar
    49   28   48 1
    50   29   30 ar
    51   29   49 1
    52   30   31 ar
    53   30   50 1
    54   31   32 1
@<TRIPOS>MOLECULE
ZINC03782183
   61    61     0     0     0
SMALL
USER_CHARGES

@<TRIPOS>ATOM
      1 C1         -0.6935    1.4906   -2.9588 C.3       1 <0>        -0.1527
      2 C2         -0.3915    0.1106   -2.3713 C.3       1 <0>        -0.1240
      3 C3         -1.7009   -0.5679   -1.9637 C.3       1 <0>        -0.1163
      4 C4         -1.3988   -1.9479   -1.3761 C.3       1 <0>        -0.1337
      5 C5         -2.7082   -2.6263   -0.9685 C.3       1 <0>         0.1156
      6 N1         -2.4303   -3.9913   -0.5147 N.am      1 <0>        -0.6078
      7 C6         -2.2462   -4.2655    0.9125 C.3       1 <0>         0.1009
      8 C7         -3.6128   -4.4230    1.5821 C.3       1 <0>        -0.1440
      9 C8         -3.4210   -4.8521    3.0381 C.3       1 <0>        -0.1162
     10 C9         -4.7877   -5.0096    3.7077 C.3       1 <0>        -0.1257
     11 C10        -4.5958   -5.4386    5.1637 C.3       1 <0>        -0.1516
     12 C11        -2.3441   -4.9948   -1.4103 C.2       1 <0>         0.5214
     13 O1         -2.6163   -4.7933   -2.5749 O.2       1 <0>        -0.5382
     14 C12        -1.9094   -6.3672   -0.9647 C.3       1 <0>         0.1242
     15 H1         -1.2137   -6.2750   -0.1306 H         1 <0>         0.1088
     16 C13        -3.1335   -7.1709   -0.5214 C.3       1 <0>        -0.0994
     17 C14        -2.6868   -8.5462   -0.0213 C.3       1 <0>        -0.1679
     18 C15        -3.8925   -9.3379    0.4153 C.2       1 <0>         0.4887
     19 O2         -5.0058   -8.8476    0.3341 O.co2     1 <0>        -0.7020
     20 O3         -3.7546  -10.4687    0.8498 O.co2     1 <0>        -0.7050
     21 N2         -1.2498   -7.0556   -2.0769 N.am      1 <0>        -0.7050
     22 C16        -0.3567   -8.0341   -1.8292 C.2       1 <0>         0.5592
     23 O4         -0.0985   -8.3454   -0.6829 O.2       1 <0>        -0.5107
     24 C17         0.3088   -8.7286   -2.9513 C.ar      1 <0>        -0.1081
     25 C18         0.0184   -8.3693   -4.2689 C.ar      1 <0>        -0.0699
     26 C19         0.6420   -9.0205   -5.3121 C.ar      1 <0>        -0.1047
     27 C20         1.5549  -10.0300   -5.0556 C.ar      1 <0>        -0.0117
     28 C21         1.8477  -10.3916   -3.7501 C.ar      1 <0>        -0.0391
     29 C22         1.2342   -9.7424   -2.6977 C.ar      1 <0>        -0.0380
     30 Cl1         2.9932  -11.6580   -3.4377 Cl        1 <0>        -0.0419
     31 Cl2         2.3351  -10.8460   -6.3744 Cl        1 <0>        -0.0456
     32 H2          0.2393    1.9740   -3.2492 H         1 <0>         0.0520
     33 H3         -1.3336    1.3807   -3.8342 H         1 <0>         0.0537
     34 H4         -1.2014    2.1004   -2.2116 H         1 <0>         0.0529
     35 H5          0.1164   -0.4992   -3.1185 H         1 <0>         0.0606
     36 H6          0.2486    0.2206   -1.4959 H         1 <0>         0.0598
     37 H7         -2.2088    0.0419   -1.2165 H         1 <0>         0.0620
     38 H8         -2.3410   -0.6778   -2.8390 H         1 <0>         0.0642
     39 H9         -0.8909   -2.5577   -2.1233 H         1 <0>         0.0654
     40 H10        -0.7588   -1.8379   -0.5007 H         1 <0>         0.0622
     41 H11        -3.1734   -2.0623   -0.1601 H         1 <0>         0.0780
     42 H12        -3.3827   -2.6582   -1.8242 H         1 <0>         0.0826
     43 H13        -1.6735   -5.1848    1.0350 H         1 <0>         0.0882
     44 H14        -1.7082   -3.4380    1.3750 H         1 <0>         0.0781
     45 H15        -4.1446   -3.4720    1.5506 H         1 <0>         0.0637
     46 H16        -4.1914   -5.1805    1.0533 H         1 <0>         0.0799
     47 H17        -2.8892   -5.8030    3.0696 H         1 <0>         0.0687
     48 H18        -2.8425   -4.0946    3.5669 H         1 <0>         0.0589
     49 H19        -5.3194   -4.0586    3.6762 H         1 <0>         0.0564
     50 H20        -5.3662   -5.7670    3.1789 H         1 <0>         0.0696
     51 H21        -5.5695   -5.5508    5.6407 H         1 <0>         0.0515
     52 H22        -4.0640   -6.3896    5.1952 H         1 <0>         0.0568
     53 H23        -4.0173   -4.6812    5.6925 H         1 <0>         0.0488
     54 H24        -3.6448   -6.6407    0.2821 H         1 <0>         0.0801
     55 H25        -3.8124   -7.2940   -1.3652 H         1 <0>         0.0685
     56 H26        -2.1755   -9.0764   -0.8248 H         1 <0>         0.0554
     57 H27        -2.0079   -8.4231    0.8225 H         1 <0>         0.0632
     58 H28        -1.4558   -6.8073   -2.9917 H         1 <0>         0.4052
     59 H29        -0.6938   -7.5828   -4.4707 H         1 <0>         0.1447
     60 H30         0.4178   -8.7430   -6.3315 H         1 <0>         0.1498
     61 H31         1.4660  -10.0215   -1.6805 H         1 <0>         0.1594
@<TRIPOS>BOND
     1    1    2 1
     2    1   32 1
     3    1   33 1
     4    1   34 1
     5    2    3 1
     6    2   35 1
     7    2   36 1
     8    3    4 1
     9    3   37 1
    10    3   38 1
    11    4    5 1
    12    4   39 1
    13    4   40 1
    14    5    6 1
    15    5   41 1
    16    5   42 1
    17    6    7 1
    18    6   12 am
    19    7    8 1
    20    7   43 1
    21    7   44 1
    22    8    9 1
    23    8   45 1
    24    8   46 1
    25    9   10 1
    26    9   47 1
    27    9   48 1
    28   10   11 1
    29   10   49 1
    30   10   50 1
    31   11   51 1
    32   11   52 1
    33   11   53 1
    34   12   13 2
    35   12   14 1
    36   14   15 1
    37   14   16 1
    38   14   21 1
    39   16   17 1
    40   16   54 1
    41   16   55 1
    42   17   18 1
    43   17   56 1
    44   17   57 1
    45   18   19 2
    46   18   20 1
    47   21   22 am
    48   21   58 1
    49   22   23 2
    50   22   24 1
    51   24   29 ar
    52   24   25 ar
    53   25   26 ar
    54   25   59 1
    55   26   27 ar
    56   26   60 1
    57   27   28 ar
    58   27   31 1
    59   28   29 ar
    60   28   30 1
    61   29   61 1
@<TRIPOS>MOLECULE
ZINC03797417
   52    55     0     0     0
SMALL
USER_CHARGES
3-(2-methyl-3-oxo-6-phenyl-2,5-diazabicyclo[5.4.0]undeca-5,8,10,12-tetraen-4-yl)-1-(m-tolyl)urea
@<TRIPOS>ATOM
      1 C1          0.4589    2.9754    1.3209 C.3       1 <0>        -0.1148
      2 C2          1.4028    2.0717    0.5703 C.ar      1 <0>        -0.0662
      3 C3          2.4835    2.6093   -0.1048 C.ar      1 <0>        -0.1373
      4 C4          3.3486    1.7842   -0.7993 C.ar      1 <0>        -0.0954
      5 C5          3.1356    0.4195   -0.8210 C.ar      1 <0>        -0.1267
      6 C6          2.0515   -0.1233   -0.1444 C.ar      1 <0>         0.1685
      7 C7          1.1844    0.7082    0.5524 C.ar      1 <0>        -0.1489
      8 N1          1.8333   -1.5055   -0.1640 N.am      1 <0>        -0.6802
      9 C8          2.8800   -2.3521   -0.2288 C.2       1 <0>         0.7166
     10 O1          4.0153   -1.9205   -0.1744 O.2       1 <0>        -0.5696
     11 N2          2.6681   -3.6773   -0.3539 N.am      1 <0>        -0.7027
     12 C9          3.8058   -4.5975   -0.4243 C.3       1 <0>         0.3054
     13 H1          4.7115   -4.0836   -0.1023 H         1 <0>         0.1294
     14 C10         3.5529   -5.7806    0.4699 C.2       1 <0>         0.5065
     15 O2          2.4935   -5.8635    1.0544 O.2       1 <0>        -0.5075
     16 N3          4.4620   -6.7386    0.6365 N.am      1 <0>        -0.5492
     17 C11         5.7292   -6.7417    0.0747 C.ar      1 <0>         0.1723
     18 C12         6.7842   -7.1865    0.8743 C.ar      1 <0>        -0.1423
     19 C13         8.0709   -7.2204    0.3844 C.ar      1 <0>        -0.0723
     20 C14         8.3316   -6.8111   -0.9131 C.ar      1 <0>        -0.1295
     21 C15         7.3052   -6.3689   -1.7149 C.ar      1 <0>        -0.0580
     22 C16         5.9888   -6.3281   -1.2302 C.ar      1 <0>        -0.1345
     23 C17         4.9415   -5.8397   -2.1409 C.2       1 <0>         0.2836
     24 N4          3.9698   -5.0693   -1.7987 N.2       1 <0>        -0.5089
     25 C18         5.0116   -6.2668   -3.5578 C.ar      1 <0>        -0.0685
     26 C19         4.4138   -5.4933   -4.5526 C.ar      1 <0>        -0.0675
     27 C20         4.4878   -5.8931   -5.8711 C.ar      1 <0>        -0.1268
     28 C21         5.1432   -7.0646   -6.2059 C.ar      1 <0>        -0.0988
     29 C22         5.7329   -7.8392   -5.2230 C.ar      1 <0>        -0.1253
     30 C23         5.6709   -7.4468   -3.9016 C.ar      1 <0>        -0.0876
     31 C24         4.0946   -7.8787    1.4800 C.3       1 <0>         0.0611
     32 H2          0.8055    3.0902    2.3479 H         1 <0>         0.0716
     33 H3          0.4280    3.9514    0.8366 H         1 <0>         0.0684
     34 H4         -0.5396    2.5382    1.3212 H         1 <0>         0.0664
     35 H5          2.6521    3.6760   -0.0893 H         1 <0>         0.1231
     36 H6          4.1916    2.2070   -1.3255 H         1 <0>         0.1258
     37 H7          3.8119   -0.2246   -1.3635 H         1 <0>         0.1359
     38 H8          0.3401    0.2890    1.0794 H         1 <0>         0.1248
     39 H9          0.9288   -1.8542   -0.1310 H         1 <0>         0.4096
     40 H10         1.7623   -4.0216   -0.3973 H         1 <0>         0.4096
     41 H11         6.5890   -7.5075    1.8869 H         1 <0>         0.1356
     42 H12         8.8782   -7.5664    1.0129 H         1 <0>         0.1364
     43 H13         9.3413   -6.8389   -1.2952 H         1 <0>         0.1364
     44 H14         7.5140   -6.0511   -2.7257 H         1 <0>         0.1382
     45 H15         3.8978   -4.5811   -4.2918 H         1 <0>         0.1324
     46 H16         4.0294   -5.2926   -6.6429 H         1 <0>         0.1275
     47 H17         5.1943   -7.3759   -7.2388 H         1 <0>         0.1259
     48 H18         6.2430   -8.7528   -5.4904 H         1 <0>         0.1283
     49 H19         6.1322   -8.0519   -3.1352 H         1 <0>         0.1280
     50 H20         3.0788   -7.7434    1.8515 H         1 <0>         0.1015
     51 H21         4.1479   -8.7963    0.8941 H         1 <0>         0.0744
     52 H22         4.7836   -7.9447    2.3220 H         1 <0>         0.0750
@<TRIPOS>BOND
     1    1    2 1
     2    1   32 1
     3    1   33 1
     4    1   34 1
     5    2    7 ar
     6    2    3 ar
     7    3    4 ar
     8    3   35 1
     9    4    5 ar
    10    4   36 1
    11    5    6 ar
    12    5   37 1
    13    6    7 ar
    14    6    8 1
    15    7   38 1
    16    8    9 am
    17    8   39 1
    18    9   10 2
    19    9   11 am
    20   11   12 1
    21   11   40 1
    22   12   13 1
    23   12   24 1
    24   12   14 1
    25   14   15 2
    26   14   16 am
    27   16   17 1
    28   16   31 1
    29   17   22 ar
    30   17   18 ar
    31   18   19 ar
    32   18   41 1
    33   19   20 ar
    34   19   42 1
    35   20   21 ar
    36   20   43 1
    37   21   22 ar
    38   21   44 1
    39   22   23 1
    40   23   24 2
    41   23   25 1
    42   25   30 ar
    43   25   26 ar
    44   26   27 ar
    45   26   45 1
    46   27   28 ar
    47   27   46 1
    48   28   29 ar
    49   28   47 1
    50   29   30 ar
    51   29   48 1
    52   30   49 1
    53   31   50 1
    54   31   51 1
    55   31   52 1
@<TRIPOS>MOLECULE
ZINC01847292
   51    55     0     0     0
SMALL
USER_CHARGES

@<TRIPOS>ATOM
      1 C1          0.5657    1.4218    0.1931 C.3       1 <0>         0.0609
      2 N1          0.3242   -0.0205    0.1050 N.am      1 <0>        -0.5485
      3 C2         -0.9917   -0.4526    0.1628 C.ar      1 <0>         0.1717
      4 C3         -1.9447    0.2999   -0.5269 C.ar      1 <0>        -0.1421
      5 C4         -3.2724   -0.0664   -0.5140 C.ar      1 <0>        -0.0717
      6 C5         -3.6765   -1.1903    0.1877 C.ar      1 <0>        -0.1290
      7 C6         -2.7517   -1.9440    0.8722 C.ar      1 <0>        -0.0579
      8 C7         -1.3951   -1.5845    0.8680 C.ar      1 <0>        -0.1352
      9 C8         -0.4608   -2.4385    1.6179 C.2       1 <0>         0.2857
     10 N2          0.7148   -2.7713    1.2172 N.2       1 <0>        -0.5096
     11 C9          1.2534   -2.3111   -0.0622 C.3       1 <0>         0.2879
     12 H1          0.5771   -2.5981   -0.8674 H         1 <0>         0.1294
     13 C10         1.3851   -0.8131   -0.0296 C.2       1 <0>         0.5073
     14 O1          2.4867   -0.3146   -0.1240 O.2       1 <0>        -0.5087
     15 N3          2.5685   -2.9162   -0.2870 N.am      1 <0>        -0.6915
     16 C11         2.7051   -3.9213   -1.1744 C.2       1 <0>         0.5979
     17 O2          1.7362   -4.3262   -1.7887 O.2       1 <0>        -0.5174
     18 C12         4.0252   -4.5287   -1.4001 C.2       1 <0>         0.0120
     19 C13         4.2891   -5.5395   -2.2688 C.2       1 <0>        -0.0944
     20 C14         5.6723   -5.8299   -2.1850 C.ar      1 <0>        -0.1229
     21 C15         6.5019   -6.7562   -2.8306 C.ar      1 <0>        -0.0576
     22 C16         7.8323   -6.7999   -2.5311 C.ar      1 <0>        -0.1485
     23 C17         8.3745   -5.9336   -1.5898 C.ar      1 <0>        -0.0827
     24 C18         7.5801   -5.0149   -0.9417 C.ar      1 <0>        -0.1347
     25 C19         6.2196   -4.9503   -1.2307 C.ar      1 <0>         0.1182
     26 N4          5.1959   -4.1585   -0.7670 N.pl3     1 <0>        -0.5778
     27 H2          5.2811   -3.4568   -0.1026 H         1 <0>         0.4182
     28 C20        -0.9077   -2.9531    2.9333 C.ar      1 <0>        -0.0699
     29 C21        -0.3328   -4.1068    3.4658 C.ar      1 <0>        -0.0672
     30 C22        -0.7533   -4.5813    4.6914 C.ar      1 <0>        -0.1267
     31 C23        -1.7433   -3.9152    5.3915 C.ar      1 <0>        -0.0979
     32 C24        -2.3173   -2.7702    4.8686 C.ar      1 <0>        -0.1254
     33 C25        -1.9009   -2.2825    3.6468 C.ar      1 <0>        -0.0873
     34 H3          1.6365    1.6154    0.1298 H         1 <0>         0.1015
     35 H4          0.0562    1.9263   -0.6279 H         1 <0>         0.0755
     36 H5          0.1841    1.7968    1.1427 H         1 <0>         0.0748
     37 H6         -1.6377    1.1780   -1.0755 H         1 <0>         0.1359
     38 H7         -3.9997    0.5238   -1.0517 H         1 <0>         0.1369
     39 H8         -4.7182   -1.4750    0.1971 H         1 <0>         0.1369
     40 H9         -3.0722   -2.8194    1.4176 H         1 <0>         0.1388
     41 H10         3.3410   -2.5934    0.2028 H         1 <0>         0.4075
     42 H11         3.5723   -6.0328   -2.9086 H         1 <0>         0.1580
     43 H12         6.0892   -7.4340   -3.5631 H         1 <0>         0.1271
     44 H13         8.4697   -7.5148   -3.0301 H         1 <0>         0.1261
     45 H14         9.4296   -5.9816   -1.3642 H         1 <0>         0.1290
     46 H15         8.0108   -4.3463   -0.2111 H         1 <0>         0.1237
     47 H16         0.4396   -4.6281    2.9198 H         1 <0>         0.1326
     48 H17        -0.3089   -5.4746    5.1047 H         1 <0>         0.1279
     49 H18        -2.0696   -4.2907    6.3501 H         1 <0>         0.1263
     50 H19        -3.0897   -2.2545    5.4198 H         1 <0>         0.1286
     51 H20        -2.3464   -1.3859    3.2417 H         1 <0>         0.1284
@<TRIPOS>BOND
     1    1    2 1
     2    1   34 1
     3    1   35 1
     4    1   36 1
     5    2   13 am
     6    2    3 1
     7    3    8 ar
     8    3    4 ar
     9    4    5 ar
    10    4   37 1
    11    5    6 ar
    12    5   38 1
    13    6    7 ar
    14    6   39 1
    15    7    8 ar
    16    7   40 1
    17    8    9 1
    18    9   10 2
    19    9   28 1
    20   10   11 1
    21   11   12 1
    22   11   13 1
    23   11   15 1
    24   13   14 2
    25   15   16 am
    26   15   41 1
    27   16   17 2
    28   16   18 1
    29   18   26 1
    30   18   19 2
    31   19   20 1
    32   19   42 1
    33   20   25 ar
    34   20   21 ar
    35   21   22 ar
    36   21   43 1
    37   22   23 ar
    38   22   44 1
    39   23   24 ar
    40   23   45 1
    41   24   25 ar
    42   24   46 1
    43   25   26 1
    44   26   27 1
    45   28   33 ar
    46   28   29 ar
    47   29   30 ar
    48   29   47 1
    49   30   31 ar
    50   30   48 1
    51   31   32 ar
    52   31   49 1
    53   32   33 ar
    54   32   50 1
    55   33   51 1
