@<TRIPOS>MOLECULE
ZINC04217536
   78    80     0     0     0
SMALL
USER_CHARGES
3-[2-[2-amino-3-(1H-indol-3-yl)propanoyl]amino-4-methylsulfanyl-butanoyl]amino-4-(1-carbamoyl-2-phenyl-ethyl)amino-4-oxo-butanoic acid
@<TRIPOS>ATOM
      1 C1         -1.9361    2.6279   10.8859 C.3       1 <0>        -0.1199
      2 S1         -1.4070    2.6536    9.1510 S.3       1 <0>        -0.2585
      3 C2          0.2710    1.9658    9.1936 C.3       1 <0>        -0.0733
      4 C3          0.8436    1.9298    7.7753 C.3       1 <0>        -0.1154
      5 C4          2.2589    1.3496    7.8112 C.3       1 <0>         0.1327
      6 H1          2.2394    0.3740    8.2969 H         1 <0>         0.1289
      7 C5          2.7763    1.1998    6.4038 C.2       1 <0>         0.5111
      8 O1          3.7799    1.7881    6.0608 O.2       1 <0>        -0.5524
      9 N1          2.1237    0.4122    5.5262 N.am      1 <0>        -0.6672
     10 C6          2.5626    0.3511    4.1298 C.3       1 <0>         0.1525
     11 H2          2.9770    1.3156    3.8366 H         1 <0>         0.1034
     12 C7          3.6334   -0.7313    3.9786 C.3       1 <0>        -0.1731
     13 C8          3.0857   -2.0504    4.4593 C.2       1 <0>         0.4657
     14 O2          1.9324   -2.1340    4.8097 O.co2     1 <0>        -0.6188
     15 C9          1.3864    0.0206    3.2475 C.2       1 <0>         0.5414
     16 O3          0.2895   -0.1473    3.7370 O.2       1 <0>        -0.5187
     17 N2          1.5534   -0.0883    1.9146 N.am      1 <0>        -0.7076
     18 C10         0.4099   -0.4095    1.0570 C.3       1 <0>         0.1422
     19 H3         -0.4889    0.0576    1.4596 H         1 <0>         0.1141
     20 C11         0.6687    0.1166   -0.3562 C.3       1 <0>        -0.0857
     21 C12         0.7351    1.6219   -0.3275 C.ar      1 <0>        -0.0795
     22 C13        -0.4133    2.3681   -0.5153 C.ar      1 <0>        -0.1137
     23 C14        -0.3532    3.7488   -0.4841 C.ar      1 <0>        -0.1178
     24 C15         0.8571    4.3834   -0.2757 C.ar      1 <0>        -0.1230
     25 C16         2.0063    3.6373   -0.0932 C.ar      1 <0>        -0.1168
     26 C17         1.9453    2.2565   -0.1191 C.ar      1 <0>        -0.1104
     27 C18         0.2214   -1.9039    1.0099 C.2       1 <0>         0.4900
     28 O4          0.9686   -2.6292    1.6316 O.2       1 <0>        -0.4905
     29 N3         -0.7776   -2.4344    0.2770 N.am      1 <0>        -0.8607
     30 N4          3.1372    2.2510    8.5611 N.am      1 <0>        -0.6755
     31 C19         3.2058    2.1621    9.9042 C.2       1 <0>         0.5030
     32 O5          2.5404    1.3359   10.4920 O.2       1 <0>        -0.5208
     33 C20         4.1094    3.0893   10.6755 C.3       1 <0>         0.0207
     34 H4          4.0601    4.0883   10.2423 H         1 <0>         0.1626
     35 C21         5.5482    2.5737   10.6061 C.3       1 <0>        -0.0555
     36 C22         6.4691    3.5636   11.2719 C.2       1 <0>        -0.2333
     37 C23         7.1708    4.5342   10.6657 C.2       1 <0>         0.1055
     38 N5          7.8931    5.2359   11.5922 N.pl3     1 <0>        -0.5850
     39 H5          8.4755    5.9857   11.3932 H         1 <0>         0.4257
     40 C24         7.6748    4.7153   12.8481 C.ar      1 <0>         0.0996
     41 C25         6.7732    3.6449   12.7026 C.ar      1 <0>        -0.1171
     42 C26         6.3649    2.9209   13.8240 C.ar      1 <0>        -0.1122
     43 C27         6.8439    3.2561   15.0593 C.ar      1 <0>        -0.1208
     44 C28         7.7337    4.3107   15.2080 C.ar      1 <0>        -0.0941
     45 C29         8.1497    5.0388   14.1147 C.ar      1 <0>        -0.1128
     46 H6         -1.9219    1.6024   11.2549 H         1 <0>         0.0782
     47 H7         -1.2572    3.2379   11.4818 H         1 <0>         0.0689
     48 H8         -2.9470    3.0280   10.9635 H         1 <0>         0.1035
     49 H9          0.2388    0.9541    9.5982 H         1 <0>         0.0933
     50 H10         0.9035    2.5897    9.8251 H         1 <0>         0.0699
     51 H11         0.8758    2.9414    7.3707 H         1 <0>         0.0860
     52 H12         0.2111    1.3059    7.1438 H         1 <0>         0.1045
     53 H13         1.3635   -0.1142    5.8191 H         1 <0>         0.4232
     54 H14         3.9183   -0.8165    2.9300 H         1 <0>         0.0769
     55 H15         4.5075   -0.4629    4.5720 H         1 <0>         0.0783
     56 H16         2.4306    0.0460    1.5231 H         1 <0>         0.4002
     57 H17        -0.1403   -0.1989   -1.0152 H         1 <0>         0.0939
     58 H18         1.6139   -0.2818   -0.7249 H         1 <0>         0.0873
     59 H19        -1.3581    1.8724   -0.6826 H         1 <0>         0.1226
     60 H20        -1.2511    4.3318   -0.6271 H         1 <0>         0.1211
     61 H21         0.9048    5.4622   -0.2558 H         1 <0>         0.1194
     62 H22         2.9519    4.1331    0.0693 H         1 <0>         0.1215
     63 H23         2.8433    1.6736    0.0231 H         1 <0>         0.1211
     64 H24        -1.3752   -1.8543   -0.2202 H         1 <0>         0.3952
     65 H25        -0.8989   -3.3963    0.2467 H         1 <0>         0.4013
     66 H26         3.6695    2.9117    8.0909 H         1 <0>         0.4190
     67 H27         5.6153    1.6138   11.1181 H         1 <0>         0.1051
     68 H28         5.8401    2.4505    9.5632 H         1 <0>         0.1262
     69 H29         7.1647    4.7330    9.6042 H         1 <0>         0.1819
     70 H30         5.6729    2.0988   13.7158 H         1 <0>         0.1173
     71 H31         6.5272    2.6959   15.9267 H         1 <0>         0.1307
     72 H32         8.1036    4.5635   16.1907 H         1 <0>         0.1336
     73 H33         8.8418    5.8582   14.2409 H         1 <0>         0.1280
     74 H34         2.7511    3.5395   12.1556 H         1 <0>         0.4373
     75 H35         3.7119    2.2270   12.5022 H         1 <0>         0.4410
     76 O6          3.8791   -3.1324    4.4980 O.co2     1 <0>        -0.7688
     77 N6          3.6928    3.1572   12.0873 N.4       1 <0>        -0.6301
     78 H36         4.3399    3.7666   12.6013 H         1 <0>         0.4436
@<TRIPOS>BOND
     1    1    2 1
     2    1   46 1
     3    1   47 1
     4    1   48 1
     5    2    3 1
     6    3    4 1
     7    3   49 1
     8    3   50 1
     9    4    5 1
    10    4   51 1
    11    4   52 1
    12    5    6 1
    13    5    7 1
    14    5   30 1
    15    7    8 2
    16    7    9 am
    17    9   10 1
    18    9   53 1
    19   10   11 1
    20   10   12 1
    21   10   15 1
    22   12   13 1
    23   12   54 1
    24   12   55 1
    25   13   14 2
    26   13   76 1
    27   15   16 2
    28   15   17 am
    29   17   18 1
    30   17   56 1
    31   18   19 1
    32   18   20 1
    33   18   27 1
    34   20   21 1
    35   20   57 1
    36   20   58 1
    37   21   26 ar
    38   21   22 ar
    39   22   23 ar
    40   22   59 1
    41   23   24 ar
    42   23   60 1
    43   24   25 ar
    44   24   61 1
    45   25   26 ar
    46   25   62 1
    47   26   63 1
    48   27   28 2
    49   27   29 am
    50   29   64 1
    51   29   65 1
    52   30   31 am
    53   30   66 1
    54   31   32 2
    55   31   33 1
    56   33   34 1
    57   33   35 1
    58   33   77 1
    59   35   36 1
    60   35   67 1
    61   35   68 1
    62   36   41 1
    63   36   37 2
    64   37   38 1
    65   37   69 1
    66   38   39 1
    67   38   40 1
    68   40   45 ar
    69   40   41 ar
    70   41   42 ar
    71   42   43 ar
    72   42   70 1
    73   43   44 ar
    74   43   71 1
    75   44   45 ar
    76   44   72 1
    77   45   73 1
    78   74   77 1
    79   75   77 1
    80   77   78 1
@<TRIPOS>MOLECULE
ZINC04534207
   92    94     0     0     0
SMALL
USER_CHARGES

@<TRIPOS>ATOM
      1 C1         -0.1679    0.5599    0.2732 C.3       1 <0>        -0.1918
      2 C2         -0.0129   -0.9581    0.1612 C.3       1 <0>         0.1389
      3 C3          0.7899   -1.4783    1.3553 C.3       1 <0>        -0.1851
      4 C4         -1.3958   -1.6127    0.1523 C.3       1 <0>        -0.1393
      5 O1          0.6737   -1.2787   -1.0504 O.3       1 <0>        -0.3635
      6 C5          1.9137   -0.7764   -1.2016 C.2       1 <0>         0.6587
      7 O2          2.3995   -0.0846   -0.3287 O.2       1 <0>        -0.5340
      8 N1          2.6160   -1.0407   -2.3211 N.am      1 <0>        -0.6956
      9 C6          3.9652   -0.4941   -2.4856 C.3       1 <0>         0.1652
     10 H1          4.3717   -0.8126   -3.4455 H         1 <0>         0.1140
     11 C7          3.9055    1.0340   -2.4389 C.3       1 <0>        -0.0641
     12 C8          3.1223    1.5426   -3.6218 C.2       1 <0>        -0.1621
     13 C9          3.6259    1.9479   -4.7982 C.2       1 <0>         0.0541
     14 N2          2.6123    2.3414   -5.6289 N.pl3     1 <0>        -0.5955
     15 H2          2.7297    2.6739   -6.5326 H         1 <0>         0.4148
     16 C10         1.4008    2.1951   -4.9911 C.ar      1 <0>         0.0937
     17 C11         1.6667    1.6823   -3.7080 C.ar      1 <0>        -0.0928
     18 C12         0.6134    1.4247   -2.8289 C.ar      1 <0>        -0.0721
     19 C13        -0.6727    1.6690   -3.2210 C.ar      1 <0>        -0.1480
     20 C14        -0.9405    2.1710   -4.4869 C.ar      1 <0>        -0.0987
     21 C15         0.0846    2.4411   -5.3672 C.ar      1 <0>        -0.1343
     22 C16         4.8497   -0.9965   -1.3738 C.2       1 <0>         0.5007
     23 O3          4.3558   -1.4216   -0.3510 O.2       1 <0>        -0.5014
     24 N3          6.1898   -0.9734   -1.5161 N.am      1 <0>        -0.7065
     25 C17         7.0497   -1.4618   -0.4353 C.3       1 <0>         0.1383
     26 H3          6.5971   -1.2201    0.5264 H         1 <0>         0.1175
     27 C18         7.2099   -2.9785   -0.5568 C.3       1 <0>        -0.1054
     28 C19         5.8554   -3.6540   -0.3330 C.3       1 <0>        -0.0657
     29 S1          6.0453   -5.4522   -0.4771 S.3       1 <0>        -0.2781
     30 C20         4.3734   -6.0945   -0.1895 C.3       1 <0>        -0.1156
     31 C21         8.4022   -0.8043   -0.5334 C.2       1 <0>         0.5311
     32 O4          8.6258   -0.0064   -1.4189 O.2       1 <0>        -0.5436
     33 N4          9.3633   -1.1031    0.3630 N.am      1 <0>        -0.6740
     34 C22        10.7097   -0.5476    0.2058 C.3       1 <0>         0.1606
     35 H4         10.6395    0.4794   -0.1525 H         1 <0>         0.1171
     36 C23        11.4309   -0.5687    1.5551 C.3       1 <0>        -0.1901
     37 C24        10.7368    0.3676    2.5103 C.2       1 <0>         0.4928
     38 O5          9.8198    1.0690    2.1183 O.co2     1 <0>        -0.6819
     39 O6         11.0922    0.4237    3.6753 O.co2     1 <0>        -0.6976
     40 C25        11.4816   -1.3752   -0.7893 C.2       1 <0>         0.5180
     41 O7         10.9585   -2.3346   -1.3155 O.2       1 <0>        -0.5367
     42 N5         12.7532   -1.0492   -1.0946 N.am      1 <0>        -0.7073
     43 C26        13.5036   -1.8537   -2.0621 C.3       1 <0>         0.1368
     44 H5         12.8281   -2.2102   -2.8397 H         1 <0>         0.1150
     45 C27        14.6025   -0.9973   -2.6943 C.3       1 <0>        -0.0831
     46 C28        13.9747    0.1112   -3.4994 C.ar      1 <0>        -0.0843
     47 C29        13.6753   -0.0880   -4.8342 C.ar      1 <0>        -0.1153
     48 C30        13.0995    0.9288   -5.5726 C.ar      1 <0>        -0.1194
     49 C31        12.8226    2.1447   -4.9763 C.ar      1 <0>        -0.1197
     50 C32        13.1211    2.3437   -3.6413 C.ar      1 <0>        -0.1117
     51 C33        13.6930    1.3255   -2.9017 C.ar      1 <0>        -0.1062
     52 C34        14.1269   -3.0321   -1.3593 C.2       1 <0>         0.5029
     53 O8         13.9608   -3.1848   -0.1677 O.2       1 <0>        -0.5185
     54 N6         14.8691   -3.9162   -2.0550 N.am      1 <0>        -0.8573
     55 H6          0.8173    1.0262    0.2796 H         1 <0>         0.0907
     56 H7         -0.7398    0.9305   -0.5775 H         1 <0>         0.0609
     57 H8         -0.6916    0.8044    1.1973 H         1 <0>         0.0681
     58 H9          0.2662   -1.2338    2.2794 H         1 <0>         0.0639
     59 H10         0.9003   -2.5598    1.2755 H         1 <0>         0.0550
     60 H11         1.7751   -1.0120    1.3617 H         1 <0>         0.0967
     61 H12        -1.9677   -1.2421   -0.6984 H         1 <0>         0.0643
     62 H13        -1.2853   -2.6941    0.0725 H         1 <0>         0.0640
     63 H14        -1.9195   -1.3681    1.0764 H         1 <0>         0.0774
     64 H15         2.2281   -1.5929   -3.0179 H         1 <0>         0.4064
     65 H16         3.4177    1.3506   -1.5170 H         1 <0>         0.1042
     66 H17         4.9172    1.4383   -2.4721 H         1 <0>         0.0897
     67 H18         4.6757    1.9618   -5.0514 H         1 <0>         0.1720
     68 H19         0.8142    1.0335   -1.8425 H         1 <0>         0.1271
     69 H20        -1.4873    1.4696   -2.5405 H         1 <0>         0.1177
     70 H21        -1.9623    2.3582   -4.7826 H         1 <0>         0.1218
     71 H22        -0.1341    2.8304   -6.3506 H         1 <0>         0.1165
     72 H23         6.5848   -0.6334   -2.3342 H         1 <0>         0.4080
     73 H24         7.5794   -3.2263   -1.5519 H         1 <0>         0.0816
     74 H25         7.9194   -3.3301    0.1922 H         1 <0>         0.0876
     75 H26         5.4859   -3.4062    0.6620 H         1 <0>         0.0884
     76 H27         5.1459   -3.3024   -1.0821 H         1 <0>         0.0833
     77 H28         4.3856   -7.1824   -0.2566 H         1 <0>         0.0972
     78 H29         4.0350   -5.7955    0.8026 H         1 <0>         0.0746
     79 H30         3.6951   -5.6917   -0.9415 H         1 <0>         0.0719
     80 H31         9.1635   -1.6860    1.1122 H         1 <0>         0.4027
     81 H32        11.4133   -1.5803    1.9606 H         1 <0>         0.0710
     82 H33        12.4642   -0.2494    1.4198 H         1 <0>         0.0772
     83 H34        13.1716   -0.2819   -0.6738 H         1 <0>         0.4039
     84 H35        15.2256   -0.5684   -1.9096 H         1 <0>         0.0869
     85 H36        15.2163   -1.6178   -3.3472 H         1 <0>         0.0913
     86 H37        13.8917   -1.0380   -5.3001 H         1 <0>         0.1199
     87 H38        12.8662    0.7733   -6.6156 H         1 <0>         0.1195
     88 H39        12.3733    2.9394   -5.5534 H         1 <0>         0.1196
     89 H40        12.9050    3.2938   -3.1754 H         1 <0>         0.1238
     90 H41        13.9228    1.4797   -1.8578 H         1 <0>         0.1220
     91 H42        15.0020   -3.7941   -3.0080 H         1 <0>         0.3983
     92 H43        15.2703   -4.6747   -1.6026 H         1 <0>         0.4008
@<TRIPOS>BOND
     1    1    2 1
     2    1   55 1
     3    1   56 1
     4    1   57 1
     5    2    3 1
     6    2    4 1
     7    2    5 1
     8    3   58 1
     9    3   59 1
    10    3   60 1
    11    4   61 1
    12    4   62 1
    13    4   63 1
    14    5    6 1
    15    6    7 2
    16    6    8 am
    17    8    9 1
    18    8   64 1
    19    9   10 1
    20    9   11 1
    21    9   22 1
    22   11   12 1
    23   11   65 1
    24   11   66 1
    25   12   17 1
    26   12   13 2
    27   13   14 1
    28   13   67 1
    29   14   15 1
    30   14   16 1
    31   16   21 ar
    32   16   17 ar
    33   17   18 ar
    34   18   19 ar
    35   18   68 1
    36   19   20 ar
    37   19   69 1
    38   20   21 ar
    39   20   70 1
    40   21   71 1
    41   22   23 2
    42   22   24 am
    43   24   25 1
    44   24   72 1
    45   25   26 1
    46   25   27 1
    47   25   31 1
    48   27   28 1
    49   27   73 1
    50   27   74 1
    51   28   29 1
    52   28   75 1
    53   28   76 1
    54   29   30 1
    55   30   77 1
    56   30   78 1
    57   30   79 1
    58   31   32 2
    59   31   33 am
    60   33   34 1
    61   33   80 1
    62   34   35 1
    63   34   36 1
    64   34   40 1
    65   36   37 1
    66   36   81 1
    67   36   82 1
    68   37   38 2
    69   37   39 1
    70   40   41 2
    71   40   42 am
    72   42   43 1
    73   42   83 1
    74   43   44 1
    75   43   45 1
    76   43   52 1
    77   45   46 1
    78   45   84 1
    79   45   85 1
    80   46   51 ar
    81   46   47 ar
    82   47   48 ar
    83   47   86 1
    84   48   49 ar
    85   48   87 1
    86   49   50 ar
    87   49   88 1
    88   50   51 ar
    89   50   89 1
    90   51   90 1
    91   52   53 2
    92   52   54 am
    93   54   91 1
    94   54   92 1
