@<TRIPOS>MOLECULE
ZINC13815406
   39    41     0     0     0
SMALL
USER_CHARGES

@<TRIPOS>ATOM
      1 C1          1.9341    1.3849   -0.9653 C.ar      1 <0>        -0.1599
      2 C2          1.2879    2.1037    0.0165 C.ar      1 <0>         0.0165
      3 C3          0.5909    1.4246    1.0153 C.ar      1 <0>        -0.1690
      4 C4          0.5567    0.0108    1.0069 C.ar      1 <0>         0.1107
      5 C5         -0.1831   -0.6726    2.0694 C.2       1 <0>        -0.2571
      6 C6         -0.8030    0.0533    3.0138 C.2       1 <0>         0.1674
      7 N1         -0.7725    1.4183    3.0255 N.am      1 <0>        -0.6308
      8 H1         -1.2384    1.8911    3.7328 H         1 <0>         0.4249
      9 C7         -0.1169    2.1315    2.0883 C.2       1 <0>         0.5480
     10 O1         -0.1124    3.3486    2.1317 O.2       1 <0>        -0.5064
     11 C8          1.2204   -0.6905   -0.0001 C.ar      1 <0>        -0.6929
     12 C9          1.8975   -0.0034   -0.9691 C.ar      1 <0>         0.0083
     13 S1          1.1868   -2.4520   -0.0228 S.o2      1 <0>         2.6928
     14 O2          2.1635   -2.8890    0.9122 O.2       1 <0>        -0.9379
     15 O3         -0.1791   -2.8333    0.0680 O.2       1 <0>        -0.9327
     16 N2          1.7139   -2.9326   -1.5173 N.pl3     1 <0>        -1.0126
     17 C10         0.7944   -3.0347   -2.6190 C.3       1 <0>         0.0910
     18 C11         0.1279   -4.4147   -2.8245 C.3       1 <0>        -0.1665
     19 C12         1.1664   -5.5429   -2.6199 C.3       1 <0>        -0.0238
     20 N3          2.4374   -5.1448   -3.1775 N.4       1 <0>        -0.4916
     21 C13         3.2204   -4.7109   -2.0246 C.3       1 <0>        -0.0359
     22 C14         3.1611   -3.2631   -1.7465 C.3       1 <0>         0.0902
     23 H2          2.4713    1.9070   -1.7432 H         1 <0>         0.1446
     24 H3          1.3213    3.1832    0.0129 H         1 <0>         0.1517
     25 H4         -0.2301   -1.7513    2.0933 H         1 <0>         0.1505
     26 H5         -1.3461   -0.4615    3.7925 H         1 <0>         0.1761
     27 H6          2.4109   -0.5476   -1.7480 H         1 <0>         0.1348
     28 H7          0.0066   -2.2956   -2.4733 H         1 <0>         0.1075
     29 H8          1.3295   -2.7766   -3.5329 H         1 <0>         0.0859
     30 H9         -0.6829   -4.5351   -2.1060 H         1 <0>         0.1214
     31 H10        -0.2759   -4.4742   -3.8353 H         1 <0>         0.1115
     32 H11         1.2836   -5.7385   -1.5540 H         1 <0>         0.1321
     33 H12         0.8201   -6.4487   -3.1176 H         1 <0>         0.1367
     34 H13         2.8834   -5.9275   -3.6319 H         1 <0>         0.4397
     35 H14         2.8644   -5.2472   -1.1450 H         1 <0>         0.1397
     36 H15         4.2618   -4.9858   -2.1925 H         1 <0>         0.1451
     37 H16         3.5412   -2.7015   -2.5999 H         1 <0>         0.1118
     38 H17         3.7429   -3.0280   -0.8552 H         1 <0>         0.1484
     39 H18         2.3140   -4.3823   -3.8267 H         1 <0>         0.4298
@<TRIPOS>BOND
     1    1   12 ar
     2    1    2 ar
     3    1   23 1
     4    2    3 ar
     5    2   24 1
     6    3    9 1
     7    3    4 ar
     8    4    5 1
     9    4   11 ar
    10    5    6 2
    11    5   25 1
    12    6    7 1
    13    6   26 1
    14    7    8 1
    15    7    9 am
    16    9   10 2
    17   11   12 ar
    18   11   13 1
    19   12   27 1
    20   13   14 2
    21   13   15 2
    22   13   16 1
    23   16   22 1
    24   16   17 1
    25   17   18 1
    26   17   28 1
    27   17   29 1
    28   18   19 1
    29   18   30 1
    30   18   31 1
    31   19   20 1
    32   19   32 1
    33   19   33 1
    34   20   21 1
    35   20   34 1
    36   20   39 1
    37   21   22 1
    38   21   35 1
    39   21   36 1
    40   22   37 1
    41   22   38 1
@<TRIPOS>MOLECULE
ZINC00006486
   38    40     0     0     0
SMALL
USER_CHARGES

@<TRIPOS>ATOM
      1 C1          1.9298    1.3878   -0.9612 C.ar      1 <0>        -0.1576
      2 C2          1.2945    2.1069    0.0055 C.ar      1 <0>        -0.0072
      3 C3          0.5887    1.4353    1.0155 C.ar      1 <0>        -0.1351
      4 C4         -0.0859    2.1226    2.0377 C.ar      1 <0>         0.1714
      5 N1         -0.7330    1.4506    2.9607 N.ar      1 <0>        -0.4845
      6 C5         -0.7853    0.1257    2.9804 C.ar      1 <0>         0.1226
      7 C6         -0.1649   -0.6326    2.0348 C.ar      1 <0>        -0.1974
      8 C7          0.5498    0.0164    1.0112 C.ar      1 <0>         0.0591
      9 C8          1.2155   -0.6907    0.0002 C.ar      1 <0>        -0.6812
     10 C9          1.8908   -0.0050   -0.9643 C.ar      1 <0>         0.0183
     11 S1          1.1797   -2.4522   -0.0228 S.o2      1 <0>         2.6894
     12 O1          2.1558   -2.8904    0.9123 O.2       1 <0>        -0.9370
     13 O2         -0.1866   -2.8318    0.0679 O.2       1 <0>        -0.9323
     14 N2          1.7064   -2.9332   -1.5173 N.pl3     1 <0>        -1.0124
     15 C10         0.7868   -3.0345   -2.6189 C.3       1 <0>         0.0909
     16 C11         0.1192   -4.4141   -2.8245 C.3       1 <0>        -0.1667
     17 C12         1.1568   -5.5430   -2.6198 C.3       1 <0>        -0.0238
     18 N3          2.4281   -5.1459   -3.1775 N.4       1 <0>        -0.4914
     19 C13         3.2116   -4.7126   -2.0246 C.3       1 <0>        -0.0360
     20 C14         3.1534   -3.2648   -1.7465 C.3       1 <0>         0.0902
     21 H1          2.4689    1.9057   -1.7406 H         1 <0>         0.1429
     22 H2          1.3340    3.1862   -0.0051 H         1 <0>         0.1499
     23 H3         -0.0718    3.2022    2.0643 H         1 <0>         0.1757
     24 H4         -1.3354   -0.3659    3.7691 H         1 <0>         0.1673
     25 H5         -0.2201   -1.7107    2.0699 H         1 <0>         0.1385
     26 H6          2.4035   -0.5495   -1.7435 H         1 <0>         0.1345
     27 H7         -0.0004   -2.2948   -2.4732 H         1 <0>         0.1069
     28 H8          1.3221   -2.7769   -3.5328 H         1 <0>         0.0865
     29 H9         -0.6916   -4.5338   -2.1059 H         1 <0>         0.1214
     30 H10        -0.2846   -4.4731   -3.8352 H         1 <0>         0.1121
     31 H11         1.2739   -5.7387   -1.5540 H         1 <0>         0.1320
     32 H12         0.8098   -6.4486   -3.1175 H         1 <0>         0.1373
     33 H13         2.8736   -5.9290   -3.6319 H         1 <0>         0.4400
     34 H14         2.8551   -5.2487   -1.1450 H         1 <0>         0.1397
     35 H15         4.2526   -4.9884   -2.1925 H         1 <0>         0.1457
     36 H16         3.5339   -2.7035   -2.5999 H         1 <0>         0.1123
     37 H17         3.7354   -3.0302   -0.8552 H         1 <0>         0.1481
     38 H18         2.3053   -4.3833   -3.8267 H         1 <0>         0.4297
@<TRIPOS>BOND
     1    1   10 ar
     2    1    2 ar
     3    1   21 1
     4    2    3 ar
     5    2   22 1
     6    3    8 ar
     7    3    4 ar
     8    4    5 ar
     9    4   23 1
    10    5    6 ar
    11    6    7 ar
    12    6   24 1
    13    7    8 ar
    14    7   25 1
    15    8    9 ar
    16    9   10 ar
    17    9   11 1
    18   10   26 1
    19   11   12 2
    20   11   13 2
    21   11   14 1
    22   14   20 1
    23   14   15 1
    24   15   16 1
    25   15   27 1
    26   15   28 1
    27   16   17 1
    28   16   29 1
    29   16   30 1
    30   17   18 1
    31   17   31 1
    32   17   32 1
    33   18   19 1
    34   18   33 1
    35   18   38 1
    36   19   20 1
    37   19   34 1
    38   19   35 1
    39   20   36 1
    40   20   37 1
@<TRIPOS>MOLECULE
ZINC00006989
   40    41     0     0     0
SMALL
USER_CHARGES

@<TRIPOS>ATOM
      1 C1         -0.0212    1.5274    0.0295 C.3       1 <0>        -0.1868
      2 C2         -0.0012   -0.0024    0.0209 C.3       1 <0>         0.0329
      3 H1         -1.0239   -0.3792    0.0336 H         1 <0>         0.1427
      4 C3          0.7447   -0.5096    1.2567 C.3       1 <0>        -0.1130
      5 C4          2.1802    0.0193    1.2388 C.3       1 <0>        -0.1460
      6 C5          2.9261   -0.4879    2.4746 C.3       1 <0>        -0.0980
      7 C6          2.9462   -2.0177    2.4660 C.3       1 <0>        -0.1139
      8 C7          1.5106   -2.5467    2.4839 C.3       1 <0>        -0.1118
      9 C8          0.7648   -2.0395    1.2481 C.3       1 <0>        -0.1341
     10 C9          3.6452   -2.5039    1.2227 C.2       1 <0>         0.5220
     11 O1          4.0842   -1.7055    0.4223 O.2       1 <0>        -0.5211
     12 N1          3.7826   -3.8261    1.0002 N.am      1 <0>        -0.6683
     13 C10         4.3419   -4.2780   -0.1958 C.ar      1 <0>         0.1766
     14 C11         5.3665   -3.5677   -0.8193 C.ar      1 <0>        -0.1772
     15 C12         5.8925   -4.0480   -2.0007 C.ar      1 <0>         0.1192
     16 N2          5.4378   -5.1635   -2.5396 N.ar      1 <0>        -0.4895
     17 C13         4.4694   -5.8640   -1.9800 C.ar      1 <0>         0.1213
     18 C14         3.8943   -5.4544   -0.7948 C.ar      1 <0>        -0.2009
     19 N3          0.6803   -0.4764   -1.1911 N.4       1 <0>        -0.6406
     20 H2          1.0015    1.9043    0.0167 H         1 <0>         0.0857
     21 H3         -0.5526    1.8888   -0.8510 H         1 <0>         0.0831
     22 H4         -0.5268    1.8791    0.9288 H         1 <0>         0.1077
     23 H5          0.2391   -0.1579    2.1560 H         1 <0>         0.1206
     24 H6          2.6859   -0.3323    0.3395 H         1 <0>         0.0852
     25 H7          2.1660    1.1092    1.2449 H         1 <0>         0.0829
     26 H8          3.9488   -0.1110    2.4619 H         1 <0>         0.0827
     27 H9          2.4205   -0.1362    3.3740 H         1 <0>         0.0826
     28 H10         3.4775   -2.3791    3.3465 H         1 <0>         0.1134
     29 H11         1.5249   -3.6366    2.4778 H         1 <0>         0.0792
     30 H12         1.0050   -2.1950    3.3833 H         1 <0>         0.0918
     31 H13        -0.2579   -2.4163    1.2609 H         1 <0>         0.0866
     32 H14         1.2704   -2.3912    0.3488 H         1 <0>         0.0540
     33 H15         3.4928   -4.4636    1.6714 H         1 <0>         0.4174
     34 H16         5.7430   -2.6539   -0.3838 H         1 <0>         0.1497
     35 H17         6.6863   -3.5040   -2.4909 H         1 <0>         0.1619
     36 H18         4.1259   -6.7718   -2.4535 H         1 <0>         0.1630
     37 H19         3.1054   -6.0348   -0.3398 H         1 <0>         0.1388
     38 H20         1.6270   -0.1275   -1.2030 H         1 <0>         0.4337
     39 H21         0.6935   -1.4853   -1.1968 H         1 <0>         0.4310
     40 H22         0.1884   -0.1419   -2.0062 H         1 <0>         0.4354
@<TRIPOS>BOND
     1    1    2 1
     2    1   20 1
     3    1   21 1
     4    1   22 1
     5    2    3 1
     6    2    4 1
     7    2   19 1
     8    4    9 1
     9    4    5 1
    10    4   23 1
    11    5    6 1
    12    5   24 1
    13    5   25 1
    14    6    7 1
    15    6   26 1
    16    6   27 1
    17    7    8 1
    18    7   10 1
    19    7   28 1
    20    8    9 1
    21    8   29 1
    22    8   30 1
    23    9   31 1
    24    9   32 1
    25   10   11 2
    26   10   12 am
    27   12   13 1
    28   12   33 1
    29   13   18 ar
    30   13   14 ar
    31   14   15 ar
    32   14   34 1
    33   15   16 ar
    34   15   35 1
    35   16   17 ar
    36   17   18 ar
    37   17   36 1
    38   18   37 1
    39   19   38 1
    40   19   39 1
    41   19   40 1
