@<TRIPOS>MOLECULE
ZINC01493890
   37    40     0     0     0
SMALL
USER_CHARGES

@<TRIPOS>ATOM
      1 C1         -0.0178    1.4608    0.0101 C.3       1 <0>         0.0734
      2 N1          0.0021   -0.0041    0.0020 N.pl3     1 <0>        -0.4737
      3 C2          0.0078   -0.7727   -1.1169 C.2       1 <0>         0.1075
      4 C3          0.0281   -2.0944   -0.7674 C.2       1 <0>        -0.1579
      5 C4          0.0354   -2.1366    0.7062 C.ar      1 <0>        -0.0717
      6 C5          0.0236   -0.7978    1.1309 C.ar      1 <0>         0.0936
      7 C6          0.0319   -0.5143    2.4922 C.ar      1 <0>        -0.1217
      8 C7          0.0548   -1.5434    3.4092 C.ar      1 <0>        -0.0984
      9 C8          0.0696   -2.8648    2.9882 C.ar      1 <0>        -0.1347
     10 C9          0.0537   -3.1664    1.6433 C.ar      1 <0>        -0.0758
     11 C10         0.0395   -3.2453   -1.6802 C.2       1 <0>         0.0076
     12 C11         1.1151   -3.7103   -2.4252 C.2       1 <0>        -0.0960
     13 C12         0.6209   -4.8797   -3.1750 C.2       1 <0>         0.5637
     14 O1          1.2771   -5.5582   -3.9404 O.2       1 <0>        -0.4429
     15 N2         -0.6738   -5.0723   -2.8722 N.am      1 <0>        -0.6877
     16 C13        -1.0937   -4.1509   -1.9885 C.2       1 <0>         0.5544
     17 O2         -2.2127   -4.0711   -1.5240 O.2       1 <0>        -0.4382
     18 C14         2.4796   -3.1466   -2.4599 C.ar      1 <0>        -0.0170
     19 C15         3.3545   -3.3599   -1.3914 C.ar      1 <0>        -0.0612
     20 C16         4.6271   -2.8314   -1.4301 C.ar      1 <0>        -0.1027
     21 C17         5.0400   -2.0893   -2.5251 C.ar      1 <0>        -0.0144
     22 C18         4.1789   -1.8735   -3.5878 C.ar      1 <0>        -0.1022
     23 C19         2.9039   -2.4018   -3.5647 C.ar      1 <0>        -0.0020
     24 Cl1         1.8274   -2.1362   -4.9005 Cl        1 <0>        -0.0460
     25 Cl2         6.6441   -1.4267   -2.5645 Cl        1 <0>        -0.0499
     26 H1          1.0048    1.8381    0.0023 H         1 <0>         0.0752
     27 H2         -0.5450    1.8219   -0.8730 H         1 <0>         0.0873
     28 H3         -0.5280    1.8123    0.9069 H         1 <0>         0.0858
     29 H4         -0.0026   -0.3972   -2.1295 H         1 <0>         0.1749
     30 H5          0.0209    0.5112    2.8309 H         1 <0>         0.1213
     31 H6          0.0616   -1.3185    4.4655 H         1 <0>         0.1280
     32 H7          0.0879   -3.6611    3.7175 H         1 <0>         0.1260
     33 H8          0.0668   -4.1961    1.3179 H         1 <0>         0.1197
     34 H9         -1.2273   -5.7803   -3.2375 H         1 <0>         0.4319
     35 H10         3.0343   -3.9374   -0.5368 H         1 <0>         0.1466
     36 H11         5.3039   -2.9958   -0.6047 H         1 <0>         0.1469
     37 H12         4.5068   -1.2939   -4.4381 H         1 <0>         0.1501
@<TRIPOS>BOND
     1    1    2 1
     2    1   26 1
     3    1   27 1
     4    1   28 1
     5    2    6 1
     6    2    3 1
     7    3    4 2
     8    3   29 1
     9    4    5 1
    10    4   11 1
    11    5   10 ar
    12    5    6 ar
    13    6    7 ar
    14    7    8 ar
    15    7   30 1
    16    8    9 ar
    17    8   31 1
    18    9   10 ar
    19    9   32 1
    20   10   33 1
    21   11   16 1
    22   11   12 2
    23   12   13 1
    24   12   18 1
    25   13   14 2
    26   13   15 am
    27   15   16 am
    28   15   34 1
    29   16   17 2
    30   18   23 ar
    31   18   19 ar
    32   19   20 ar
    33   19   35 1
    34   20   21 ar
    35   20   36 1
    36   21   22 ar
    37   21   25 1
    38   22   23 ar
    39   22   37 1
    40   23   24 1
@<TRIPOS>MOLECULE
ZINC49113058
   62    66     0     0     0
SMALL
USER_CHARGES

@<TRIPOS>ATOM
      1 C1          0.0280    1.1038   -0.0577 C.3       1 <0>         0.0862
      2 N1          0.7835   -0.1512   -0.0345 N.pl3     1 <0>        -0.2368
      3 C2          1.2848   -0.7741   -1.1183 C.2       1 <0>         0.0233
      4 C3          1.9409   -1.9003   -0.6679 C.2       1 <0>        -0.1001
      5 C4          1.7732   -1.9052    0.7170 C.2       1 <0>        -0.0127
      6 N2          1.0739   -0.8239    1.0284 N.2       1 <0>        -0.2422
      7 C5          2.2840   -2.9218    1.6595 C.2       1 <0>         0.6112
      8 O1          2.9205   -3.8706    1.2439 O.2       1 <0>        -0.5290
      9 N3          2.0445   -2.7974    2.9799 N.am      1 <0>        -0.8394
     10 C6          2.6653   -2.8356   -1.5916 C.3       1 <0>        -0.0520
     11 C7          1.9706   -2.8582   -2.9533 C.3       1 <0>        -0.0643
     12 C8          1.6241   -1.4832   -3.4453 C.ar      1 <0>        -0.2117
     13 C9          1.2621   -0.4598   -2.5570 C.ar      1 <0>         0.2994
     14 N4          0.9247    0.7321   -3.0254 N.ar      1 <0>        -0.5525
     15 C10         0.9505    0.9653   -4.3312 C.ar      1 <0>         0.5639
     16 N5          1.3106    0.0280   -5.1962 N.ar      1 <0>        -0.5606
     17 C11         1.6470   -1.1890   -4.7955 C.ar      1 <0>         0.1918
     18 N6          0.5923    2.2177   -4.8015 N.pl3     1 <0>        -0.6275
     19 C12         0.6747    2.5016   -6.1704 C.ar      1 <0>         0.1841
     20 C13         0.4057    1.5105   -7.1026 C.ar      1 <0>        -0.1464
     21 C14         0.4877    1.7952   -8.4585 C.ar      1 <0>         0.1793
     22 C15         0.8392    3.0707   -8.8806 C.ar      1 <0>        -0.1627
     23 C16         1.1079    4.0588   -7.9520 C.ar      1 <0>        -0.1427
     24 C17         1.0213    3.7812   -6.5979 C.ar      1 <0>         0.0684
     25 O2          1.2802    4.7569   -5.6851 O.3       1 <0>        -0.3185
     26 C18         1.6295    6.0455   -6.1944 C.3       1 <0>         0.0285
     27 N7          0.2167    0.7966   -9.4005 N.pl3     1 <0>        -0.6423
     28 C19        -0.2961   -0.5176   -8.9834 C.3       1 <0>         0.1029
     29 C20        -1.5309   -0.8477   -9.8284 C.3       1 <0>        -0.0239
     30 N8         -1.1869   -0.7557  -11.2529 N.4       1 <0>        -0.3833
     31 C21        -0.8335    0.6282  -11.5936 C.3       1 <0>        -0.0233
     32 C22         0.4306    1.0333  -10.8366 C.3       1 <0>         0.1008
     33 C23        -2.3384   -1.1783  -12.0612 C.3       1 <0>        -0.0471
     34 H1          0.7164    1.9440    0.0325 H         1 <0>         0.0931
     35 H2         -0.5188    1.1813   -0.9975 H         1 <0>         0.1027
     36 H3         -0.6758    1.1196    0.7745 H         1 <0>         0.1007
     37 H4          1.5366   -2.0404    3.3115 H         1 <0>         0.4084
     38 H5          2.3799   -3.4648    3.5987 H         1 <0>         0.4099
     39 H6          3.6943   -2.4981   -1.7152 H         1 <0>         0.0842
     40 H7          2.6624   -3.8392   -1.1664 H         1 <0>         0.1050
     41 H8          2.6303   -3.3359   -3.6777 H         1 <0>         0.0890
     42 H9          1.0554   -3.4447   -2.8724 H         1 <0>         0.0825
     43 H10         1.9357   -1.9413   -5.5145 H         1 <0>         0.1753
     44 H11         0.2844    2.8983   -4.1827 H         1 <0>         0.4299
     45 H12         0.1331    0.5186   -6.7738 H         1 <0>         0.1534
     46 H13         0.9030    3.2909   -9.9360 H         1 <0>         0.1260
     47 H14         1.3813    5.0499   -8.2828 H         1 <0>         0.1376
     48 H15         2.5320    5.9643   -6.8003 H         1 <0>         0.0569
     49 H16         0.8133    6.4273   -6.8077 H         1 <0>         0.0569
     50 H17         1.8098    6.7278   -5.3637 H         1 <0>         0.1039
     51 H18         0.4698   -1.2768   -9.1419 H         1 <0>         0.0875
     52 H19        -0.5715   -0.4856   -7.9292 H         1 <0>         0.1246
     53 H20        -1.8676   -1.8590   -9.6004 H         1 <0>         0.1398
     54 H21        -2.3274   -0.1393   -9.6003 H         1 <0>         0.1315
     55 H22        -0.6562    0.7044  -12.6664 H         1 <0>         0.1404
     56 H23        -1.6510    1.2919  -11.3121 H         1 <0>         0.1317
     57 H24         0.6353    2.0903  -11.0071 H         1 <0>         0.1260
     58 H25         1.2711    0.4335  -11.1855 H         1 <0>         0.0867
     59 H26        -3.1886   -0.5298  -11.8494 H         1 <0>         0.1211
     60 H27        -2.0843   -1.1104  -13.1190 H         1 <0>         0.1249
     61 H28        -2.5968   -2.2082  -11.8149 H         1 <0>         0.1248
     62 H29        -0.4025   -1.3596  -11.4479 H         1 <0>         0.4247
@<TRIPOS>BOND
     1    1    2 1
     2    1   34 1
     3    1   35 1
     4    1   36 1
     5    2    6 1
     6    2    3 1
     7    3   13 1
     8    3    4 2
     9    4    5 1
    10    4   10 1
    11    5    6 2
    12    5    7 1
    13    7    8 2
    14    7    9 am
    15    9   37 1
    16    9   38 1
    17   10   11 1
    18   10   39 1
    19   10   40 1
    20   11   12 1
    21   11   41 1
    22   11   42 1
    23   12   17 ar
    24   12   13 ar
    25   13   14 ar
    26   14   15 ar
    27   15   16 ar
    28   15   18 1
    29   16   17 ar
    30   17   43 1
    31   18   19 1
    32   18   44 1
    33   19   24 ar
    34   19   20 ar
    35   20   21 ar
    36   20   45 1
    37   21   22 ar
    38   21   27 1
    39   22   23 ar
    40   22   46 1
    41   23   24 ar
    42   23   47 1
    43   24   25 1
    44   25   26 1
    45   26   48 1
    46   26   49 1
    47   26   50 1
    48   27   32 1
    49   27   28 1
    50   28   29 1
    51   28   51 1
    52   28   52 1
    53   29   30 1
    54   29   53 1
    55   29   54 1
    56   30   31 1
    57   30   33 1
    58   30   62 1
    59   31   32 1
    60   31   55 1
    61   31   56 1
    62   32   57 1
    63   32   58 1
    64   33   59 1
    65   33   60 1
    66   33   61 1
@<TRIPOS>MOLECULE
ZINC06160812
   26    27     0     0     0
SMALL
USER_CHARGES

@<TRIPOS>ATOM
      1 C1         -0.0184    1.5028    0.0103 C.3       1 <0>        -0.0944
      2 C2          0.0021   -0.0041    0.0020 C.2       1 <0>         0.0973
      3 C3          0.0079   -0.7942   -1.0955 C.2       1 <0>        -0.2679
      4 C4          0.0279   -2.1304   -0.6642 C.2       1 <0>         0.3026
      5 N1          0.0339   -2.1341    0.6481 N.2       1 <0>        -0.3214
      6 N2          0.0237   -0.8045    1.0886 N.pl3     1 <0>        -0.4667
      7 H1          0.0289   -0.5104    2.0129 H         1 <0>         0.4415
      8 N3          0.0396   -3.2617   -1.4904 N.am      1 <0>        -0.6327
      9 C5          0.0316   -3.1176   -2.8304 C.2       1 <0>         0.5706
     10 O1          0.0143   -2.0060   -3.3221 O.2       1 <0>        -0.5071
     11 C6          0.0439   -4.3113   -3.7021 C.ar      1 <0>        -0.1367
     12 C7          0.0579   -5.5893   -3.1407 C.ar      1 <0>        -0.0853
     13 C8          0.0688   -6.6991   -3.9600 C.ar      1 <0>        -0.1260
     14 C9          0.0659   -6.5476   -5.3353 C.ar      1 <0>        -0.0884
     15 C10         0.0524   -5.2838   -5.8982 C.ar      1 <0>        -0.1265
     16 C11         0.0356   -4.1657   -5.0904 C.ar      1 <0>        -0.0544
     17 H2          1.0042    1.8801    0.0026 H         1 <0>         0.0835
     18 H3         -0.5455    1.8639   -0.8728 H         1 <0>         0.0894
     19 H4         -0.5286    1.8543    0.9071 H         1 <0>         0.0730
     20 H5         -0.0014   -0.4573   -2.1215 H         1 <0>         0.1729
     21 H6          0.0534   -4.1487   -1.0980 H         1 <0>         0.4152
     22 H7          0.0606   -5.7088   -2.0673 H         1 <0>         0.1268
     23 H8          0.0801   -7.6884   -3.5269 H         1 <0>         0.1320
     24 H9          0.0745   -7.4198   -5.9722 H         1 <0>         0.1302
     25 H10         0.0509   -5.1725   -6.9725 H         1 <0>         0.1333
     26 H11         0.0203   -3.1798   -5.5310 H         1 <0>         0.1393
@<TRIPOS>BOND
     1    1    2 1
     2    1   17 1
     3    1   18 1
     4    1   19 1
     5    2    6 1
     6    2    3 2
     7    3    4 1
     8    3   20 1
     9    4    5 2
    10    4    8 1
    11    5    6 1
    12    6    7 1
    13    8    9 am
    14    8   21 1
    15    9   10 2
    16    9   11 1
    17   11   16 ar
    18   11   12 ar
    19   12   13 ar
    20   12   22 1
    21   13   14 ar
    22   13   23 1
    23   14   15 ar
    24   14   24 1
    25   15   16 ar
    26   15   25 1
    27   16   26 1
@<TRIPOS>MOLECULE
ZINC13580432
   30    32     0     0     0
SMALL
USER_CHARGES

@<TRIPOS>ATOM
      1 C1         -0.0169    1.3920    0.0097 C.ar      1 <0>        -0.0474
      2 C2          1.1696    2.0948    0.0021 C.ar      1 <0>        -0.0969
      3 C3          2.3781    1.4188   -0.0135 C.ar      1 <0>        -0.0644
      4 C4          2.4034    0.0343   -0.0216 C.ar      1 <0>        -0.0966
      5 C5          1.2237   -0.6799   -0.0137 C.ar      1 <0>        -0.0787
      6 C6          0.0021   -0.0041    0.0020 C.ar      1 <0>        -0.1204
      7 C7         -1.2657   -0.7633    0.0100 C.2       1 <0>         0.5704
      8 O1         -2.3280   -0.1723    0.0234 O.2       1 <0>        -0.5016
      9 N1         -1.2442   -2.1108    0.0026 N.am      1 <0>        -0.6308
     10 C8         -2.4461   -2.8305    0.0102 C.2       1 <0>         0.3027
     11 C9         -3.7376   -2.2794    0.0199 C.2       1 <0>        -0.2587
     12 C10        -4.6244   -3.3003    0.0250 C.2       1 <0>         0.1325
     13 N2         -3.9261   -4.4553    0.0188 N.pl3     1 <0>        -0.4654
     14 H1         -4.3030   -5.3491    0.0201 H         1 <0>         0.4400
     15 N3         -2.5619   -4.1377    0.0038 N.2       1 <0>        -0.3158
     16 C11        -6.1258   -3.1713    0.0361 C.3       1 <0>        -0.0991
     17 C12        -6.9209   -4.2379    0.7919 C.3       1 <0>        -0.1700
     18 C13        -6.9305   -4.2174   -0.7379 C.3       1 <0>        -0.1697
     19 Br1         4.0004    2.3903   -0.0244 Br        1 <0>        -0.0360
     20 H2         -0.9587    1.9203    0.0260 H         1 <0>         0.1499
     21 H3          1.1563    3.1747    0.0081 H         1 <0>         0.1443
     22 H4          3.3490   -0.4873   -0.0345 H         1 <0>         0.1431
     23 H5          1.2447   -1.7597   -0.0205 H         1 <0>         0.1371
     24 H6         -0.3966   -2.5823   -0.0080 H         1 <0>         0.4159
     25 H7         -3.9797   -1.2269    0.0228 H         1 <0>         0.1740
     26 H8         -6.5099   -2.1514    0.0518 H         1 <0>         0.1351
     27 H9         -6.3580   -5.0328    1.2811 H         1 <0>         0.0949
     28 H10        -7.8283   -3.9196    1.3052 H         1 <0>         0.1084
     29 H11        -7.8442   -3.8858   -1.2311 H         1 <0>         0.1084
     30 H12        -6.3739   -4.9990   -1.2552 H         1 <0>         0.0950
@<TRIPOS>BOND
     1    1    6 ar
     2    1    2 ar
     3    1   20 1
     4    2    3 ar
     5    2   21 1
     6    3    4 ar
     7    3   19 1
     8    4    5 ar
     9    4   22 1
    10    5    6 ar
    11    5   23 1
    12    6    7 1
    13    7    8 2
    14    7    9 am
    15    9   10 1
    16    9   24 1
    17   10   15 2
    18   10   11 1
    19   11   12 2
    20   11   25 1
    21   12   13 1
    22   12   16 1
    23   13   14 1
    24   13   15 1
    25   16   18 1
    26   16   17 1
    27   16   26 1
    28   17   18 1
    29   17   27 1
    30   17   28 1
    31   18   29 1
    32   18   30 1
@<TRIPOS>MOLECULE
ZINC01738108
   29    30     0     0     0
SMALL
USER_CHARGES

@<TRIPOS>ATOM
      1 C1         -0.0166    1.3766    0.0096 C.ar      1 <0>        -0.0653
      2 C2          1.1707    2.0859    0.0021 C.ar      1 <0>        -0.1827
      3 C3          2.3799    1.4157   -0.0135 C.ar      1 <0>        -0.1422
      4 C4          2.4059    0.0347   -0.0211 C.ar      1 <0>        -0.1300
      5 C5          1.2154   -0.6807   -0.0131 C.ar      1 <0>         0.2807
      6 C6          0.0021   -0.0041    0.0020 C.ar      1 <0>        -0.2374
      7 N1          1.2380   -2.0772   -0.0208 N.2       1 <0>        -1.0747
      8 S1         -0.1825   -2.9284   -0.0112 S.o2      1 <0>         2.5992
      9 O1         -0.8016   -2.6713    1.2417 O.2       1 <0>        -1.0200
     10 O2         -0.8263   -2.6580   -1.2488 O.2       1 <0>        -1.0040
     11 C7          0.2357   -4.6400   -0.0245 C.ar      1 <0>        -0.6017
     12 C8         -0.0862   -5.4382    1.0572 C.ar      1 <0>         0.0026
     13 C9          0.2418   -6.7818    1.0473 C.ar      1 <0>        -0.0544
     14 C10         0.8924   -7.3275   -0.0467 C.ar      1 <0>         0.0164
     15 C11         1.2138   -6.5286   -1.1287 C.ar      1 <0>        -0.1184
     16 C12         0.8809   -5.1856   -1.1198 C.ar      1 <0>         0.0720
     17 Cl1         1.2783   -4.1839   -2.4808 Cl        1 <0>        -0.0065
     18 Cl2         1.3049   -9.0137   -0.0595 Cl        1 <0>        -0.0373
     19 Cl3        -0.1616   -7.7839    2.4063 Cl        1 <0>        -0.0419
     20 C13         3.6711    2.1928   -0.0226 C.3       1 <0>         0.5086
     21 F1          3.3905    3.5634   -0.0129 F         1 <0>        -0.1848
     22 F2          4.4222    1.8626    1.1105 F         1 <0>        -0.1823
     23 F3          4.3991    1.8740   -1.1739 F         1 <0>        -0.1824
     24 H1         -0.9594    1.9032    0.0259 H         1 <0>         0.1149
     25 H2          1.1532    3.1658    0.0080 H         1 <0>         0.1183
     26 H3          3.3508   -0.4882   -0.0336 H         1 <0>         0.1239
     27 H4         -0.9254   -0.5574    0.0082 H         1 <0>         0.1045
     28 H5         -0.5936   -5.0126    1.9103 H         1 <0>         0.1671
     29 H6          1.7215   -6.9535   -1.9820 H         1 <0>         0.1580
@<TRIPOS>BOND
     1    1    6 ar
     2    1    2 ar
     3    1   24 1
     4    2    3 ar
     5    2   25 1
     6    3    4 ar
     7    3   20 1
     8    4    5 ar
     9    4   26 1
    10    5    6 ar
    11    5    7 1
    12    6   27 1
    13    7    8 1
    14    8    9 2
    15    8   10 2
    16    8   11 1
    17   11   16 ar
    18   11   12 ar
    19   12   13 ar
    20   12   28 1
    21   13   14 ar
    22   13   19 1
    23   14   15 ar
    24   14   18 1
    25   15   16 ar
    26   15   29 1
    27   16   17 1
    28   20   21 1
    29   20   22 1
    30   20   23 1
@<TRIPOS>MOLECULE
ZINC20149036
   46    50     0     0     0
SMALL
USER_CHARGES

@<TRIPOS>ATOM
      1 C1         -0.0167    1.3788    0.0096 C.ar      1 <0>        -0.0397
      2 C2          1.1946    2.0581    0.0017 C.ar      1 <0>        -0.2015
      3 C3          2.3728    1.3394   -0.0134 C.ar      1 <0>         0.1467
      4 N1          2.3606    0.0197   -0.0204 N.ar      1 <0>        -0.5267
      5 C4          1.2269   -0.6641   -0.0132 C.ar      1 <0>         0.3792
      6 C5          0.0021   -0.0041    0.0020 C.ar      1 <0>        -0.1980
      7 N2          1.2605   -2.0537   -0.0210 N.pl3     1 <0>        -1.0350
      8 S1          2.7142   -2.8466   -0.0391 S.o2      1 <0>         2.6953
      9 O1          2.4190   -4.2364   -0.0167 O.2       1 <0>        -0.9521
     10 O2          3.4899   -2.2491   -1.0689 O.2       1 <0>        -0.9261
     11 C6          3.5267   -2.4798    1.4807 C.ar      1 <0>        -0.7002
     12 C7          4.3558   -1.3766    1.5710 C.ar      1 <0>         0.0443
     13 C8          4.9945   -1.0865    2.7605 C.ar      1 <0>        -0.1824
     14 C9          4.8031   -1.9040    3.8673 C.ar      1 <0>         0.2126
     15 C10         3.9692   -3.0111    3.7732 C.ar      1 <0>        -0.1953
     16 C11         3.3295   -3.2925    2.5821 C.ar      1 <0>         0.0197
     17 N3          5.4482   -1.6136    5.0723 N.pl3     1 <0>        -0.6271
     18 C12         5.2595   -2.4161    6.1565 C.2       1 <0>         0.2554
     19 C13         5.8897   -2.1324    7.3338 C.2       1 <0>        -0.2847
     20 C14         5.8079   -2.8909    8.6045 C.ar      1 <0>        -0.0205
     21 C15         6.6255   -2.2129    9.5174 C.ar      1 <0>         0.1568
     22 C16         6.7394   -2.7115   10.8156 C.ar      1 <0>        -0.1136
     23 C17         6.0798   -3.8325   11.2108 C.ar      1 <0>        -0.0301
     24 C18         5.2468   -4.5428   10.3178 C.ar      1 <0>         0.0608
     25 C19         5.1365   -4.0308    9.0074 C.ar      1 <0>        -0.1244
     26 S2          4.0294   -5.1909    8.2496 S.3       1 <0>         0.0729
     27 C20         3.7928   -6.1942    9.5801 C.2       1 <0>         0.0769
     28 N4          4.5185   -5.6612   10.5190 N.2       1 <0>        -0.4987
     29 N5          7.1905   -1.1079    8.8930 N.am      1 <0>        -0.6412
     30 C21         6.7986   -1.0149    7.6113 C.2       1 <0>         0.5680
     31 O3          7.1365   -0.1525    6.8194 O.2       1 <0>        -0.5274
     32 H1         -0.9522    1.9182    0.0259 H         1 <0>         0.1408
     33 H2          1.2145    3.1379    0.0070 H         1 <0>         0.1401
     34 H3          3.3170    1.8637   -0.0200 H         1 <0>         0.1659
     35 H4         -0.9214   -0.5640    0.0078 H         1 <0>         0.1397
     36 H5          0.4325   -2.5589   -0.0158 H         1 <0>         0.4355
     37 H6          4.5041   -0.7415    0.7101 H         1 <0>         0.1599
     38 H7          5.6424   -0.2252    2.8301 H         1 <0>         0.1403
     39 H8          3.8182   -3.6487    4.6317 H         1 <0>         0.1376
     40 H9          2.6779   -4.1507    2.5094 H         1 <0>         0.1471
     41 H10         6.0305   -0.8404    5.1367 H         1 <0>         0.4318
     42 H11         4.6112   -3.2769    6.0848 H         1 <0>         0.1664
     43 H12         7.3682   -2.1936   11.5247 H         1 <0>         0.1414
     44 H13         6.1947   -4.1863   12.2247 H         1 <0>         0.1439
     45 H14         3.1788   -7.0807    9.6403 H         1 <0>         0.2249
     46 H15         7.7946   -0.4848    9.3263 H         1 <0>         0.4212
@<TRIPOS>BOND
     1    1    6 ar
     2    1    2 ar
     3    1   32 1
     4    2    3 ar
     5    2   33 1
     6    3    4 ar
     7    3   34 1
     8    4    5 ar
     9    5    6 ar
    10    5    7 1
    11    6   35 1
    12    7    8 1
    13    7   36 1
    14    8    9 2
    15    8   10 2
    16    8   11 1
    17   11   16 ar
    18   11   12 ar
    19   12   13 ar
    20   12   37 1
    21   13   14 ar
    22   13   38 1
    23   14   15 ar
    24   14   17 1
    25   15   16 ar
    26   15   39 1
    27   16   40 1
    28   17   18 1
    29   17   41 1
    30   18   19 2
    31   18   42 1
    32   19   30 1
    33   19   20 1
    34   20   25 ar
    35   20   21 ar
    36   21   22 ar
    37   21   29 1
    38   22   23 ar
    39   22   43 1
    40   23   24 ar
    41   23   44 1
    42   24   28 1
    43   24   25 ar
    44   25   26 1
    45   26   27 1
    46   27   28 2
    47   27   45 1
    48   29   30 am
    49   29   46 1
    50   30   31 2
@<TRIPOS>MOLECULE
ZINC20149036
   44    48     0     0     0
SMALL
USER_CHARGES

@<TRIPOS>ATOM
      1 C1         -0.0167    1.3788    0.0096 C.ar      1 <0>        -0.0531
      2 C2          1.1946    2.0581    0.0017 C.ar      1 <0>        -0.2961
      3 C3          2.3728    1.3394   -0.0134 C.ar      1 <0>         0.1474
      4 N1          2.3606    0.0197   -0.0204 N.ar      1 <0>        -0.5987
      5 C4          1.2269   -0.6641   -0.0132 C.ar      1 <0>         0.4429
      6 C5          0.0021   -0.0041    0.0020 C.ar      1 <0>        -0.2213
      7 N2          1.2605   -2.0537   -0.0210 N.2       1 <0>        -1.0739
      8 S1          2.7142   -2.8466   -0.0391 S.o2      1 <0>         2.6379
      9 O1          3.3226   -2.5509   -1.2888 O.2       1 <0>        -1.0292
     10 O2          3.3464   -2.5642    1.2018 O.2       1 <0>        -1.0289
     11 C6          2.3654   -4.5738   -0.0451 C.ar      1 <0>        -0.6637
     12 C7          2.2349   -5.2540    1.1528 C.ar      1 <0>        -0.0078
     13 C8          1.9615   -6.6059    1.1558 C.ar      1 <0>        -0.1579
     14 C9          1.8164   -7.2883   -0.0544 C.ar      1 <0>         0.1739
     15 C10         1.9494   -6.5952   -1.2599 C.ar      1 <0>        -0.2080
     16 C11         2.2177   -5.2423   -1.2476 C.ar      1 <0>        -0.0028
     17 N3          1.5456   -8.6294   -0.0590 N.2       1 <0>        -0.5366
     18 C12         0.6258   -9.1089   -0.8582 C.2       1 <0>         0.2815
     19 C13         0.3454  -10.4976   -0.8630 C.2       1 <0>        -0.3521
     20 C14        -0.6489  -11.1963   -1.7008 C.ar      1 <0>         0.0184
     21 C15        -0.5617  -12.5532   -1.3526 C.ar      1 <0>         0.0932
     22 C16        -1.3966  -13.4702   -1.9914 C.ar      1 <0>        -0.1011
     23 C17        -2.2878  -13.0802   -2.9393 C.ar      1 <0>        -0.0907
     24 C18        -2.4059  -11.7223   -3.3186 C.ar      1 <0>         0.0488
     25 C19        -1.5592  -10.8022   -2.6675 C.ar      1 <0>        -0.1316
     26 S2         -2.0289   -9.2681   -3.4236 S.3       1 <0>         0.0692
     27 C20        -3.2095   -9.8692   -4.4616 C.2       1 <0>         0.0350
     28 N4         -3.2216  -11.1490   -4.2282 N.2       1 <0>        -0.5066
     29 N5          0.4098  -12.6809   -0.3770 N.pl3     1 <0>        -0.6232
     30 H1          0.6689  -13.5180    0.0388 H         1 <0>         0.3998
     31 C21         0.9546  -11.4706   -0.0862 C.2       1 <0>         0.4860
     32 O3          1.9341  -11.2498    0.8199 O.3       1 <0>        -0.6382
     33 H2         -0.9522    1.9182    0.0259 H         1 <0>         0.1092
     34 H3          1.2145    3.1379    0.0070 H         1 <0>         0.1059
     35 H4          3.3170    1.8637   -0.0200 H         1 <0>         0.1282
     36 H5         -0.9214   -0.5640    0.0078 H         1 <0>         0.1181
     37 H6          2.3478   -4.7252    2.0877 H         1 <0>         0.1293
     38 H7          1.8603   -7.1357    2.0914 H         1 <0>         0.1241
     39 H8          1.8384   -7.1165   -2.1991 H         1 <0>         0.1170
     40 H9          2.3168   -4.7042   -2.1788 H         1 <0>         0.1267
     41 H10         0.0810   -8.4457   -1.5138 H         1 <0>         0.0758
     42 H11        -1.3326  -14.5152   -1.7263 H         1 <0>         0.1199
     43 H12        -2.9172  -13.8197   -3.4120 H         1 <0>         0.1219
     44 H13        -3.8179   -9.3178   -5.1632 H         1 <0>         0.2113
@<TRIPOS>BOND
     1    1    6 ar
     2    1    2 ar
     3    1   33 1
     4    2    3 ar
     5    2   34 1
     6    3    4 ar
     7    3   35 1
     8    4    5 ar
     9    5    6 ar
    10    5    7 1
    11    6   36 1
    12    7    8 1
    13    8    9 2
    14    8   10 2
    15    8   11 1
    16   11   16 ar
    17   11   12 ar
    18   12   13 ar
    19   12   37 1
    20   13   14 ar
    21   13   38 1
    22   14   15 ar
    23   14   17 1
    24   15   16 ar
    25   15   39 1
    26   16   40 1
    27   17   18 2
    28   18   19 1
    29   18   41 1
    30   19   31 2
    31   19   20 1
    32   20   25 ar
    33   20   21 ar
    34   21   22 ar
    35   21   29 1
    36   22   23 ar
    37   22   42 1
    38   23   24 ar
    39   23   43 1
    40   24   28 1
    41   24   25 ar
    42   25   26 1
    43   26   27 1
    44   27   28 2
    45   27   44 1
    46   29   30 1
    47   29   31 1
    48   31   32 1
@<TRIPOS>MOLECULE
ZINC20149036
   45    49     0     0     0
SMALL
USER_CHARGES

@<TRIPOS>ATOM
      1 C1         -0.0163    1.3544    0.0095 C.2       1 <0>        -0.0171
      2 C2          1.1954    2.0667    0.0017 C.2       1 <0>        -0.2158
      3 C3          2.3740    1.4093   -0.0135 C.2       1 <0>         0.1325
      4 N1          2.4120    0.0471   -0.0216 N.pl3     1 <0>        -0.6267
      5 C4          1.2455   -0.6792   -0.0139 C.2       1 <0>         0.5145
      6 C5          0.0021   -0.0041    0.0020 C.2       1 <0>        -0.1579
      7 N2          1.2846   -1.9955   -0.0223 N.2       1 <0>        -1.0030
      8 S1          2.7426   -2.7805   -0.0420 S.o2      1 <0>         2.6203
      9 O1          3.3484   -2.4805   -1.2919 O.2       1 <0>        -0.9989
     10 O2          3.3741   -2.4955    1.1986 O.2       1 <0>        -0.9984
     11 C6          2.4033   -4.5095   -0.0489 C.ar      1 <0>        -0.6815
     12 C7          2.2775   -5.1913    1.1486 C.ar      1 <0>        -0.0001
     13 C8          2.0115   -6.5447    1.1508 C.ar      1 <0>        -0.1589
     14 C9          1.8691   -7.2270   -0.0598 C.ar      1 <0>         0.2084
     15 C10         1.9975   -6.5323   -1.2648 C.ar      1 <0>        -0.2114
     16 C11         2.2583   -5.1780   -1.2518 C.ar      1 <0>         0.0068
     17 N3          1.6057   -8.5696   -0.0651 N.2       1 <0>        -0.5527
     18 C12         0.6880   -9.0536   -0.8640 C.2       1 <0>         0.2963
     19 C13         0.4152  -10.4438   -0.8695 C.2       1 <0>        -0.3529
     20 C14        -0.5759  -11.1473   -1.7070 C.ar      1 <0>         0.0140
     21 C15        -0.4810  -12.5040   -1.3598 C.ar      1 <0>         0.1032
     22 C16        -1.3113  -13.4251   -1.9987 C.ar      1 <0>        -0.1028
     23 C17        -2.2053  -13.0393   -2.9456 C.ar      1 <0>        -0.0808
     24 C18        -2.3312  -11.6818   -3.3239 C.ar      1 <0>         0.0491
     25 C19        -1.4890  -10.7576   -2.6728 C.ar      1 <0>        -0.1294
     26 S2         -1.9677   -9.2255   -3.4274 S.3       1 <0>         0.0586
     27 C20        -3.1457   -9.8324   -4.4650 C.2       1 <0>         0.0412
     28 N4         -3.1506  -11.1124   -4.2325 N.2       1 <0>        -0.5026
     29 N5          0.4920  -12.6270   -0.3851 N.pl3     1 <0>        -0.6235
     30 H1          0.7560  -13.4630    0.0300 H         1 <0>         0.4033
     31 C21         1.0303  -11.4140   -0.0939 C.2       1 <0>         0.4921
     32 O3          2.0093  -11.1884    0.8117 O.3       1 <0>        -0.6326
     33 H2         -0.9573    1.8844    0.0258 H         1 <0>         0.1472
     34 H3          1.1833    3.1466    0.0077 H         1 <0>         0.1523
     35 H4          3.2975    1.9692   -0.0197 H         1 <0>         0.1724
     36 H5         -0.9223   -0.5626    0.0078 H         1 <0>         0.1644
     37 H6          2.3881   -4.6625    2.0838 H         1 <0>         0.1314
     38 H7          1.9139   -7.0757    2.0862 H         1 <0>         0.1318
     39 H8          1.8886   -7.0536   -2.2044 H         1 <0>         0.1244
     40 H9          2.3538   -4.6388   -2.1827 H         1 <0>         0.1289
     41 H10         0.1391   -8.3929   -1.5187 H         1 <0>         0.0788
     42 H11        -1.2413  -14.4699   -1.7344 H         1 <0>         0.1238
     43 H12        -2.8310  -13.7820   -3.4184 H         1 <0>         0.1258
     44 H13        -3.7577   -9.2839   -5.1658 H         1 <0>         0.2127
     45 H14         3.2664   -0.4120   -0.0332 H         1 <0>         0.4130
@<TRIPOS>BOND
     1    1    6 2
     2    1    2 1
     3    1   33 1
     4    2    3 2
     5    2   34 1
     6    3    4 1
     7    3   35 1
     8    4    5 1
     9    4   45 1
    10    5    6 1
    11    5    7 2
    12    6   36 1
    13    7    8 1
    14    8    9 2
    15    8   10 2
    16    8   11 1
    17   11   16 ar
    18   11   12 ar
    19   12   13 ar
    20   12   37 1
    21   13   14 ar
    22   13   38 1
    23   14   15 ar
    24   14   17 1
    25   15   16 ar
    26   15   39 1
    27   16   40 1
    28   17   18 2
    29   18   19 1
    30   18   41 1
    31   19   31 2
    32   19   20 1
    33   20   25 ar
    34   20   21 ar
    35   21   22 ar
    36   21   29 1
    37   22   23 ar
    38   22   42 1
    39   23   24 ar
    40   23   43 1
    41   24   28 1
    42   24   25 ar
    43   25   26 1
    44   26   27 1
    45   27   28 2
    46   27   44 1
    47   29   30 1
    48   29   31 1
    49   31   32 1
@<TRIPOS>MOLECULE
ZINC20149036
   46    50     0     0     0
SMALL
USER_CHARGES

@<TRIPOS>ATOM
      1 C1         -0.0167    1.3788    0.0096 C.ar      1 <0>        -0.0400
      2 C2          1.1946    2.0581    0.0017 C.ar      1 <0>        -0.2028
      3 C3          2.3728    1.3394   -0.0134 C.ar      1 <0>         0.1471
      4 N1          2.3606    0.0197   -0.0204 N.ar      1 <0>        -0.5251
      5 C4          1.2269   -0.6641   -0.0132 C.ar      1 <0>         0.3804
      6 C5          0.0021   -0.0041    0.0020 C.ar      1 <0>        -0.1989
      7 N2          1.2605   -2.0537   -0.0210 N.pl3     1 <0>        -1.0355
      8 S1          2.7142   -2.8466   -0.0391 S.o2      1 <0>         2.6932
      9 O1          2.4190   -4.2364   -0.0167 O.2       1 <0>        -0.9539
     10 O2          3.4899   -2.2491   -1.0689 O.2       1 <0>        -0.9276
     11 C6          3.5267   -2.4798    1.4807 C.ar      1 <0>        -0.6877
     12 C7          4.3559   -1.3755    1.5691 C.ar      1 <0>         0.0202
     13 C8          4.9948   -1.0820    2.7558 C.ar      1 <0>        -0.1396
     14 C9          4.8032   -1.9027    3.8698 C.ar      1 <0>         0.1580
     15 C10         3.9648   -3.0158    3.7732 C.ar      1 <0>        -0.1854
     16 C11         3.3282   -3.2941    2.5817 C.ar      1 <0>        -0.0018
     17 N3          5.4341   -1.6178    5.0500 N.2       1 <0>        -0.5006
     18 C12         4.7701   -1.6725    6.1772 C.2       1 <0>         0.2572
     19 C13         5.4235   -1.3776    7.3992 C.2       1 <0>        -0.1880
     20 C14         4.8263   -1.3983    8.7489 C.ar      1 <0>        -0.0163
     21 C15         5.8563   -1.0391    9.6322 C.ar      1 <0>         0.1095
     22 C16         5.5828   -0.9727   10.9985 C.ar      1 <0>        -0.0959
     23 C17         4.3470   -1.2474   11.4905 C.ar      1 <0>        -0.0421
     24 C18         3.2825   -1.6135   10.6334 C.ar      1 <0>         0.0733
     25 C19         3.5672   -1.6772    9.2542 C.ar      1 <0>        -0.1288
     26 S2          2.0004   -2.1561    8.5748 S.3       1 <0>         0.0982
     27 C20         1.1342   -2.2375   10.0155 C.2       1 <0>         0.0684
     28 N4          2.0022   -1.9196   10.9310 N.2       1 <0>        -0.5022
     29 N5          6.9983   -0.8147    8.8858 N.pl3     1 <0>        -0.5715
     30 H1          7.8566   -0.5524    9.2539 H         1 <0>         0.4248
     31 C21         6.7518   -1.0182    7.5652 C.2       1 <0>         0.3506
     32 O3          7.6583   -0.8879    6.5699 O.3       1 <0>        -0.4401
     33 H2         -0.9522    1.9182    0.0259 H         1 <0>         0.1404
     34 H3          1.2145    3.1379    0.0070 H         1 <0>         0.1397
     35 H4          3.3170    1.8637   -0.0200 H         1 <0>         0.1653
     36 H5         -0.9214   -0.5640    0.0078 H         1 <0>         0.1394
     37 H6          0.4325   -2.5589   -0.0158 H         1 <0>         0.4349
     38 H7          4.5033   -0.7421    0.7069 H         1 <0>         0.1552
     39 H8          5.6419   -0.2200    2.8234 H         1 <0>         0.1359
     40 H9          3.8121   -3.6545    4.6306 H         1 <0>         0.1302
     41 H10         2.6764   -4.1521    2.5067 H         1 <0>         0.1395
     42 H11         3.7244   -1.9425    6.1754 H         1 <0>         0.1069
     43 H12         6.3727   -0.6967   11.6814 H         1 <0>         0.1397
     44 H13         4.1739   -1.1856   12.5548 H         1 <0>         0.1438
     45 H14         0.0943   -2.4963   10.1498 H         1 <0>         0.2246
     46 H15         7.7026    0.0012    6.1922 H         1 <0>         0.4073
@<TRIPOS>BOND
     1    1    6 ar
     2    1    2 ar
     3    1   33 1
     4    2    3 ar
     5    2   34 1
     6    3    4 ar
     7    3   35 1
     8    4    5 ar
     9    5    6 ar
    10    5    7 1
    11    6   36 1
    12    7    8 1
    13    7   37 1
    14    8    9 2
    15    8   10 2
    16    8   11 1
    17   11   16 ar
    18   11   12 ar
    19   12   13 ar
    20   12   38 1
    21   13   14 ar
    22   13   39 1
    23   14   15 ar
    24   14   17 1
    25   15   16 ar
    26   15   40 1
    27   16   41 1
    28   17   18 2
    29   18   19 1
    30   18   42 1
    31   19   31 2
    32   19   20 1
    33   20   25 ar
    34   20   21 ar
    35   21   22 ar
    36   21   29 1
    37   22   23 ar
    38   22   43 1
    39   23   24 ar
    40   23   44 1
    41   24   28 1
    42   24   25 ar
    43   25   26 1
    44   26   27 1
    45   27   28 2
    46   27   45 1
    47   29   30 1
    48   29   31 1
    49   31   32 1
    50   32   46 1
@<TRIPOS>MOLECULE
ZINC20149036
   46    50     0     0     0
SMALL
USER_CHARGES

@<TRIPOS>ATOM
      1 C1          0.5366    2.5219    0.3830 C.ar      1 <0>        -0.0396
      2 C2          1.8727    2.8742    0.2433 C.ar      1 <0>        -0.2016
      3 C3          2.8271    1.8817    0.1469 C.ar      1 <0>         0.1463
      4 N1          2.4850    0.6077    0.1858 N.ar      1 <0>        -0.5267
      5 C4          1.2225    0.2316    0.3179 C.ar      1 <0>         0.3796
      6 C5          0.2086    1.1789    0.4206 C.ar      1 <0>        -0.1977
      7 N2          0.9071   -1.1217    0.3543 N.pl3     1 <0>        -1.0350
      8 S1          2.1080   -2.2553    0.2326 S.o2      1 <0>         2.6949
      9 O1          1.4786   -3.5257    0.3286 O.2       1 <0>        -0.9515
     10 O2          2.9065   -1.8831   -0.8824 O.2       1 <0>        -0.9258
     11 C6          3.1277   -2.0894    1.6600 C.ar      1 <0>        -0.6991
     12 C7          4.2107   -1.2297    1.6380 C.ar      1 <0>         0.0444
     13 C8          5.0122   -1.0975    2.7548 C.ar      1 <0>        -0.1827
     14 C9          4.7292   -1.8291    3.9014 C.ar      1 <0>         0.2131
     15 C10         3.6401   -2.6914    3.9202 C.ar      1 <0>        -0.1916
     16 C11         2.8398   -2.8149    2.8016 C.ar      1 <0>         0.0201
     17 N3          5.5383   -1.6982    5.0332 N.pl3     1 <0>        -0.6264
     18 C12         5.2595   -2.4161    6.1565 C.2       1 <0>         0.2550
     19 C13         5.9671   -2.1929    7.3024 C.2       1 <0>        -0.2857
     20 C14         6.8939   -1.0712    7.5843 C.ar      1 <0>        -0.0382
     21 C15         7.3720   -1.2769    8.8846 C.ar      1 <0>         0.1671
     22 C16         8.2767   -0.3595    9.4203 C.ar      1 <0>        -0.1128
     23 C17         8.7008    0.7215    8.7135 C.ar      1 <0>        -0.0281
     24 C18         8.2401    0.9618    7.3998 C.ar      1 <0>         0.0615
     25 C19         7.3263    0.0283    6.8656 C.ar      1 <0>        -0.1291
     26 S2          7.0214    0.6931    5.2498 S.3       1 <0>         0.0358
     27 C20         8.0246    2.0404    5.3564 C.2       1 <0>         0.0855
     28 N4          8.5401    1.9651    6.5483 N.2       1 <0>        -0.4894
     29 N5          6.8041   -2.4339    9.4035 N.am      1 <0>        -0.6432
     30 C21         5.9687   -3.0083    8.5218 C.2       1 <0>         0.5795
     31 O3          5.3274   -4.0286    8.7024 O.2       1 <0>        -0.5108
     32 H1         -0.2285    3.2797    0.4649 H         1 <0>         0.1406
     33 H2          2.1620    3.9142    0.2101 H         1 <0>         0.1400
     34 H3          3.8672    2.1513    0.0378 H         1 <0>         0.1657
     35 H4         -0.8206    0.8697    0.5283 H         1 <0>         0.1397
     36 H5         -0.0165   -1.4020    0.4509 H         1 <0>         0.4357
     37 H6          4.4301   -0.6613    0.7463 H         1 <0>         0.1605
     38 H7          5.8582   -0.4265    2.7367 H         1 <0>         0.1373
     39 H8          3.4173   -3.2616    4.8100 H         1 <0>         0.1408
     40 H9          1.9906   -3.4820    2.8169 H         1 <0>         0.1477
     41 H10         6.2986   -1.0960    5.0187 H         1 <0>         0.4046
     42 H11         4.4785   -3.1619    6.1407 H         1 <0>         0.1791
     43 H12         8.6493   -0.5121   10.4224 H         1 <0>         0.1440
     44 H13         9.4017    1.4085    9.1642 H         1 <0>         0.1460
     45 H14         8.1993    2.7970    4.6058 H         1 <0>         0.2276
     46 H15         6.9847   -2.7807   10.2911 H         1 <0>         0.4229
@<TRIPOS>BOND
     1    1    6 ar
     2    1    2 ar
     3    1   32 1
     4    2    3 ar
     5    2   33 1
     6    3    4 ar
     7    3   34 1
     8    4    5 ar
     9    5    6 ar
    10    5    7 1
    11    6   35 1
    12    7    8 1
    13    7   36 1
    14    8    9 2
    15    8   10 2
    16    8   11 1
    17   11   16 ar
    18   11   12 ar
    19   12   13 ar
    20   12   37 1
    21   13   14 ar
    22   13   38 1
    23   14   15 ar
    24   14   17 1
    25   15   16 ar
    26   15   39 1
    27   16   40 1
    28   17   18 1
    29   17   41 1
    30   18   19 2
    31   18   42 1
    32   19   30 1
    33   19   20 1
    34   20   25 ar
    35   20   21 ar
    36   21   22 ar
    37   21   29 1
    38   22   23 ar
    39   22   43 1
    40   23   24 ar
    41   23   44 1
    42   24   28 1
    43   24   25 ar
    44   25   26 1
    45   26   27 1
    46   27   28 2
    47   27   45 1
    48   29   30 am
    49   29   46 1
    50   30   31 2
@<TRIPOS>MOLECULE
ZINC20149036
   46    50     0     0     0
SMALL
USER_CHARGES

@<TRIPOS>ATOM
      1 C1         -0.0163    1.3544    0.0095 C.2       1 <0>        -0.0091
      2 C2          1.1954    2.0667    0.0017 C.2       1 <0>        -0.2090
      3 C3          2.3740    1.4093   -0.0135 C.2       1 <0>         0.1321
      4 N1          2.4120    0.0471   -0.0216 N.pl3     1 <0>        -0.6234
      5 C4          1.2455   -0.6792   -0.0139 C.2       1 <0>         0.5196
      6 C5          0.0021   -0.0041    0.0020 C.2       1 <0>        -0.1622
      7 N2          1.2846   -1.9955   -0.0223 N.2       1 <0>        -1.0110
      8 S1          2.7426   -2.7805   -0.0420 S.o2      1 <0>         2.6183
      9 O1          3.3484   -2.4805   -1.2919 O.2       1 <0>        -0.9898
     10 O2          3.3741   -2.4955    1.1986 O.2       1 <0>        -0.9900
     11 C6          2.4033   -4.5095   -0.0489 C.ar      1 <0>        -0.6595
     12 C7          2.2773   -5.1926    1.1469 C.ar      1 <0>         0.0220
     13 C8          2.0118   -6.5478    1.1451 C.ar      1 <0>        -0.1746
     14 C9          1.8710   -7.2248   -0.0598 C.ar      1 <0>         0.2089
     15 C10         1.9978   -6.5355   -1.2592 C.ar      1 <0>        -0.1895
     16 C11         2.2581   -5.1792   -1.2501 C.ar      1 <0>         0.0234
     17 N3          1.6028   -8.5963   -0.0652 N.pl3     1 <0>        -0.6264
     18 C12         1.4650   -9.2585   -1.2474 C.2       1 <0>         0.2565
     19 C13         1.2031  -10.5983   -1.2527 C.2       1 <0>        -0.2857
     20 C14         1.0291  -11.4770   -2.4335 C.ar      1 <0>        -0.0197
     21 C15         0.7799  -12.7607   -1.9318 C.ar      1 <0>         0.1563
     22 C16         0.5737  -13.8056   -2.8333 C.ar      1 <0>        -0.1134
     23 C17         0.6096  -13.6068   -4.1776 C.ar      1 <0>        -0.0306
     24 C18         0.8585  -12.3263   -4.7202 C.ar      1 <0>         0.0608
     25 C19         1.0647  -11.2754   -3.8012 C.ar      1 <0>        -0.1247
     26 S2          1.3320   -9.8911   -4.8773 S.3       1 <0>         0.0739
     27 C20         1.1702  -10.6989   -6.3449 C.2       1 <0>         0.0764
     28 N4          0.9324  -11.9330   -6.0092 N.2       1 <0>        -0.4990
     29 N5          0.7910  -12.7195   -0.5431 N.am      1 <0>        -0.6412
     30 C21         1.0396  -11.4790   -0.0911 C.2       1 <0>         0.5681
     31 O3          1.1136  -11.1439    1.0782 O.2       1 <0>        -0.5277
     32 H1         -0.9573    1.8844    0.0258 H         1 <0>         0.1507
     33 H2          1.1833    3.1466    0.0077 H         1 <0>         0.1565
     34 H3          3.2975    1.9692   -0.0197 H         1 <0>         0.1762
     35 H4         -0.9223   -0.5626    0.0078 H         1 <0>         0.1656
     36 H5          2.3869   -4.6656    2.0832 H         1 <0>         0.1482
     37 H6          1.9142   -7.0808    2.0794 H         1 <0>         0.1427
     38 H7          1.8888   -7.0588   -2.1977 H         1 <0>         0.1397
     39 H8          2.3528   -4.6419   -2.1822 H         1 <0>         0.1485
     40 H9          1.5148   -9.0766    0.7729 H         1 <0>         0.4319
     41 H10         1.5630   -8.7237   -2.1806 H         1 <0>         0.1667
     42 H11         0.3811  -14.7979   -2.4532 H         1 <0>         0.1412
     43 H12         0.4452  -14.4421   -4.8422 H         1 <0>         0.1437
     44 H13         1.2481  -10.2865   -7.3400 H         1 <0>         0.2247
     45 H14         0.6421  -13.4896    0.0276 H         1 <0>         0.4210
     46 H15         3.2664   -0.4120   -0.0332 H         1 <0>         0.4130
@<TRIPOS>BOND
     1    1    6 2
     2    1    2 1
     3    1   32 1
     4    2    3 2
     5    2   33 1
     6    3    4 1
     7    3   34 1
     8    4    5 1
     9    4   46 1
    10    5    6 1
    11    5    7 2
    12    6   35 1
    13    7    8 1
    14    8    9 2
    15    8   10 2
    16    8   11 1
    17   11   16 ar
    18   11   12 ar
    19   12   13 ar
    20   12   36 1
    21   13   14 ar
    22   13   37 1
    23   14   15 ar
    24   14   17 1
    25   15   16 ar
    26   15   38 1
    27   16   39 1
    28   17   18 1
    29   17   40 1
    30   18   19 2
    31   18   41 1
    32   19   30 1
    33   19   20 1
    34   20   25 ar
    35   20   21 ar
    36   21   22 ar
    37   21   29 1
    38   22   23 ar
    39   22   42 1
    40   23   24 ar
    41   23   43 1
    42   24   28 1
    43   24   25 ar
    44   25   26 1
    45   26   27 1
    46   27   28 2
    47   27   44 1
    48   29   30 am
    49   29   45 1
    50   30   31 2
@<TRIPOS>MOLECULE
ZINC20149036
   46    50     0     0     0
SMALL
USER_CHARGES

@<TRIPOS>ATOM
      1 C1         -1.4750    0.8961    0.9087 C.2       1 <0>        -0.0090
      2 C2         -0.4270    1.8099    0.7029 C.2       1 <0>        -0.2089
      3 C3          0.8159    1.3701    0.4148 C.2       1 <0>         0.1321
      4 N1          1.0782    0.0362    0.3181 N.pl3     1 <0>        -0.6234
      5 C4          0.0761   -0.8834    0.5140 C.2       1 <0>         0.5197
      6 C5         -1.2321   -0.4375    0.8168 C.2       1 <0>        -0.1622
      7 N2          0.3317   -2.1718    0.4197 N.2       1 <0>        -1.0110
      8 S1          1.8644   -2.6881    0.0640 S.o2      1 <0>         2.6178
      9 O1          2.1412   -2.2561   -1.2612 O.2       1 <0>        -0.9893
     10 O2          2.6814   -2.3269    1.1692 O.2       1 <0>        -0.9898
     11 C6          1.8243   -4.4491    0.0216 C.ar      1 <0>        -0.6583
     12 C7          2.0630   -5.1726    1.1758 C.ar      1 <0>         0.0224
     13 C8          2.0328   -6.5529    1.1460 C.ar      1 <0>        -0.1752
     14 C9          1.7618   -7.2146   -0.0450 C.ar      1 <0>         0.2095
     15 C10         1.5220   -6.4848   -1.2025 C.ar      1 <0>        -0.1857
     16 C11         1.5487   -5.1045   -1.1645 C.ar      1 <0>         0.0238
     17 N3          1.7309   -8.6113   -0.0788 N.pl3     1 <0>        -0.6260
     18 C12         1.4650   -9.2585   -1.2474 C.2       1 <0>         0.2560
     19 C13         1.3049  -10.6142   -1.2557 C.2       1 <0>        -0.2866
     20 C14         1.1492  -11.5096   -0.0849 C.ar      1 <0>        -0.0375
     21 C15         1.0168  -12.8057   -0.5993 C.ar      1 <0>         0.1665
     22 C16         0.8535  -13.8678    0.2907 C.ar      1 <0>        -0.1126
     23 C17         0.8198  -13.6739    1.6358 C.ar      1 <0>        -0.0285
     24 C18         0.9496  -12.3813    2.1910 C.ar      1 <0>         0.0617
     25 C19         1.1155  -11.3133    1.2836 C.ar      1 <0>        -0.1293
     26 S2          1.2357   -9.9187    2.3728 S.3       1 <0>         0.0358
     27 C20         1.0771  -10.7443    3.8308 C.2       1 <0>         0.0857
     28 N4          0.9416  -11.9903    3.4827 N.2       1 <0>        -0.4898
     29 N5          1.0811  -12.7564   -1.9863 N.am      1 <0>        -0.6431
     30 C21         1.2436  -11.4972   -2.4255 C.2       1 <0>         0.5797
     31 O3          1.3280  -11.1500   -3.5905 O.2       1 <0>        -0.5112
     32 H1         -2.4673    1.2522    1.1432 H         1 <0>         0.1507
     33 H2         -0.6176    2.8705    0.7754 H         1 <0>         0.1565
     34 H3          1.6118    2.0833    0.2586 H         1 <0>         0.1762
     35 H4         -2.0291   -1.1495    0.9729 H         1 <0>         0.1656
     36 H5          2.2736   -4.6575    2.1014 H         1 <0>         0.1487
     37 H6          2.2200   -7.1173    2.0476 H         1 <0>         0.1393
     38 H7          1.3110   -6.9961   -2.1301 H         1 <0>         0.1430
     39 H8          1.3584   -4.5364   -2.0631 H         1 <0>         0.1491
     40 H9          1.8988   -9.1198    0.7299 H         1 <0>         0.4046
     41 H10         1.3809   -8.6992   -2.1674 H         1 <0>         0.1795
     42 H11         0.7508  -14.8697   -0.0991 H         1 <0>         0.1439
     43 H12         0.6913  -14.5226    2.2913 H         1 <0>         0.1458
     44 H13         1.0843  -10.3325    4.8293 H         1 <0>         0.2277
     45 H14         1.0132  -13.5324   -2.5644 H         1 <0>         0.4228
     46 H15         1.9762   -0.2654    0.1097 H         1 <0>         0.4131
@<TRIPOS>BOND
     1    1    6 2
     2    1    2 1
     3    1   32 1
     4    2    3 2
     5    2   33 1
     6    3    4 1
     7    3   34 1
     8    4    5 1
     9    4   46 1
    10    5    6 1
    11    5    7 2
    12    6   35 1
    13    7    8 1
    14    8    9 2
    15    8   10 2
    16    8   11 1
    17   11   16 ar
    18   11   12 ar
    19   12   13 ar
    20   12   36 1
    21   13   14 ar
    22   13   37 1
    23   14   15 ar
    24   14   17 1
    25   15   16 ar
    26   15   38 1
    27   16   39 1
    28   17   18 1
    29   17   40 1
    30   18   19 2
    31   18   41 1
    32   19   30 1
    33   19   20 1
    34   20   25 ar
    35   20   21 ar
    36   21   22 ar
    37   21   29 1
    38   22   23 ar
    39   22   42 1
    40   23   24 ar
    41   23   43 1
    42   24   28 1
    43   24   25 ar
    44   25   26 1
    45   26   27 1
    46   27   28 2
    47   27   44 1
    48   29   30 am
    49   29   45 1
    50   30   31 2
@<TRIPOS>MOLECULE
ZINC01649340
   52    54     0     0     0
SMALL
USER_CHARGES

@<TRIPOS>ATOM
      1 C1         -0.0187    1.5258    0.0104 C.3       1 <0>        -0.1531
      2 C2          0.0021   -0.0041    0.0020 C.3       1 <0>        -0.1278
      3 C3         -1.4333   -0.5336    0.0129 C.3       1 <0>         0.1689
      4 H1         -1.9701   -0.1109    0.8621 H         1 <0>         0.1030
      5 C4         -1.4133   -2.0590    0.1302 C.3       1 <0>         0.0625
      6 O1         -0.6117   -2.6069   -0.9183 O.3       1 <0>        -0.5692
      7 N1         -2.1054   -0.1483   -1.2305 N.pl3     1 <0>        -0.6816
      8 C5         -3.4856   -0.0365   -1.2658 C.ar      1 <0>         0.6305
      9 N2         -4.1766   -0.2783   -0.1589 N.ar      1 <0>        -0.6256
     10 C6         -5.5013   -0.1844   -0.1423 C.ar      1 <0>         0.5407
     11 C7         -6.1646    0.1788   -1.3275 C.ar      1 <0>        -0.1560
     12 C8         -5.3921    0.4251   -2.4741 C.ar      1 <0>         0.3485
     13 N3         -4.0693    0.3129   -2.4004 N.ar      1 <0>        -0.6161
     14 N4         -6.2808    0.7538   -3.4662 N.pl3     1 <0>        -0.4704
     15 C9         -7.5330    0.7038   -2.9264 C.2       1 <0>         0.2320
     16 N5         -7.4624    0.3664   -1.6720 N.2       1 <0>        -0.4548
     17 C10        -5.9467    1.0964   -4.8508 C.3       1 <0>         0.1344
     18 C11        -6.6196    0.1019   -5.7989 C.3       1 <0>        -0.1626
     19 C12        -6.4419    2.5107   -5.1599 C.3       1 <0>        -0.1626
     20 N6         -6.2133   -0.4389    1.0165 N.pl3     1 <0>        -0.6899
     21 C13        -5.5062   -0.8166    2.2427 C.3       1 <0>         0.1717
     22 C14        -6.5039   -1.0364    3.3505 C.ar      1 <0>        -0.1135
     23 C15        -6.8801    0.0183    4.1611 C.ar      1 <0>        -0.0982
     24 C16        -7.7953   -0.1833    5.1773 C.ar      1 <0>        -0.1219
     25 C17        -8.3347   -1.4394    5.3826 C.ar      1 <0>        -0.1101
     26 C18        -7.9592   -2.4939    4.5714 C.ar      1 <0>        -0.1221
     27 C19        -7.0472   -2.2913    3.5524 C.ar      1 <0>        -0.0986
     28 H2          1.0039    1.9031    0.0027 H         1 <0>         0.0563
     29 H3         -0.5459    1.8868   -0.8726 H         1 <0>         0.0552
     30 H4         -0.5289    1.8773    0.9072 H         1 <0>         0.0537
     31 H5          0.5123   -0.3556   -0.8948 H         1 <0>         0.0768
     32 H6          0.5293   -0.3651    0.8851 H         1 <0>         0.0774
     33 H7         -0.9936   -2.3437    1.0951 H         1 <0>         0.0524
     34 H8         -2.4301   -2.4431    0.0488 H         1 <0>         0.0503
     35 H9         -0.5540   -3.5721   -0.9058 H         1 <0>         0.3776
     36 H10        -1.5839    0.0285   -2.0291 H         1 <0>         0.4145
     37 H11        -8.4474    0.9139   -3.4613 H         1 <0>         0.2138
     38 H12        -4.8660    1.0524   -4.9853 H         1 <0>         0.1061
     39 H13        -7.7004    0.1459   -5.6644 H         1 <0>         0.0654
     40 H14        -6.3710    0.3568   -6.8291 H         1 <0>         0.0793
     41 H15        -6.2668   -0.9057   -5.5787 H         1 <0>         0.0629
     42 H16        -5.9625    3.2193   -4.4845 H         1 <0>         0.0629
     43 H17        -6.1933    2.7656   -6.1901 H         1 <0>         0.0793
     44 H18        -7.5227    2.5547   -5.0254 H         1 <0>         0.0654
     45 H19        -7.1807   -0.3672    1.0169 H         1 <0>         0.4195
     46 H20        -4.9460   -1.7357    2.0706 H         1 <0>         0.0763
     47 H21        -4.8186   -0.0196    2.5258 H         1 <0>         0.0773
     48 H22        -6.4587    0.9996    4.0008 H         1 <0>         0.1237
     49 H23        -8.0886    0.6405    5.8111 H         1 <0>         0.1245
     50 H24        -9.0492   -1.5971    6.1770 H         1 <0>         0.1237
     51 H25        -8.3804   -3.4753    4.7320 H         1 <0>         0.1244
     52 H26        -6.7567   -3.1143    2.9163 H         1 <0>         0.1232
@<TRIPOS>BOND
     1    1    2 1
     2    1   28 1
     3    1   29 1
     4    1   30 1
     5    2    3 1
     6    2   31 1
     7    2   32 1
     8    3    4 1
     9    3    5 1
    10    3    7 1
    11    5    6 1
    12    5   33 1
    13    5   34 1
    14    6   35 1
    15    7    8 1
    16    7   36 1
    17    8   13 ar
    18    8    9 ar
    19    9   10 ar
    20   10   11 ar
    21   10   20 1
    22   11   16 1
    23   11   12 ar
    24   12   13 ar
    25   12   14 1
    26   14   15 1
    27   14   17 1
    28   15   16 2
    29   15   37 1
    30   17   18 1
    31   17   19 1
    32   17   38 1
    33   18   39 1
    34   18   40 1
    35   18   41 1
    36   19   42 1
    37   19   43 1
    38   19   44 1
    39   20   21 1
    40   20   45 1
    41   21   22 1
    42   21   46 1
    43   21   47 1
    44   22   27 ar
    45   22   23 ar
    46   23   24 ar
    47   23   48 1
    48   24   25 ar
    49   24   49 1
    50   25   26 ar
    51   25   50 1
    52   26   27 ar
    53   26   51 1
    54   27   52 1
@<TRIPOS>MOLECULE
ZINC60328032
   42    45     0     0     0
SMALL
USER_CHARGES

@<TRIPOS>ATOM
      1 C1         -0.0178    1.4608    0.0101 C.3       1 <0>         0.0979
      2 N1          0.0021   -0.0041    0.0020 N.pl3     1 <0>        -0.3700
      3 C2          0.0078   -0.7910   -1.0967 C.2       1 <0>         0.0710
      4 C3          0.0278   -2.0877   -0.6746 C.2       1 <0>        -0.1589
      5 C4          0.0343   -2.0768    0.7335 C.2       1 <0>         0.0682
      6 N2          0.0245   -0.8316    1.1313 N.2       1 <0>        -0.2952
      7 C5          0.0400   -3.2927   -1.5426 C.2       1 <0>        -0.1298
      8 C6         -0.8204   -3.5512   -2.6135 C.2       1 <0>         0.1187
      9 N3         -0.5065   -4.7112   -3.1394 N.2       1 <0>        -0.3005
     10 N4          0.5710   -5.2585   -2.4348 N.pl3     1 <0>        -0.3482
     11 C7          0.9182   -4.3763   -1.4441 C.2       1 <0>         0.2938
     12 N5          1.9322   -4.6467   -0.6138 N.2       1 <0>        -0.4885
     13 C8          2.6231   -5.7607   -0.7273 C.2       1 <0>         0.2625
     14 C9          2.3093   -6.6869   -1.7228 C.2       1 <0>        -0.3210
     15 C10         1.2687   -6.4296   -2.5748 C.2       1 <0>         0.5405
     16 N6          0.9389   -7.3270   -3.5686 N.pl3     1 <0>        -0.8128
     17 Br1         3.3032   -8.2873   -1.8855 Br        1 <0>         0.0052
     18 C11         3.7598   -6.0377    0.2226 C.3       1 <0>        -0.0555
     19 H1          4.6693   -6.2335   -0.3454 H         1 <0>         0.1216
     20 C12         3.4213   -7.2587    1.0828 C.3       1 <0>        -0.1448
     21 C13         4.5467   -7.4842    2.0967 C.3       1 <0>        -0.1417
     22 C14         4.7319   -6.2176    2.9350 C.3       1 <0>        -0.0109
     23 N7          5.0794   -5.0928    2.0584 N.4       1 <0>        -0.5052
     24 C15         3.9749   -4.8243    1.1296 C.3       1 <0>         0.0058
     25 H2          1.0048    1.8381    0.0023 H         1 <0>         0.0775
     26 H3         -0.5450    1.8219   -0.8730 H         1 <0>         0.0915
     27 H4         -0.5280    1.8123    0.9069 H         1 <0>         0.0929
     28 H5         -0.0022   -0.4541   -2.1228 H         1 <0>         0.1772
     29 H6          0.0489   -2.9465    1.3737 H         1 <0>         0.1780
     30 H7         -1.6140   -2.9019   -2.9525 H         1 <0>         0.2067
     31 H8          0.2079   -7.1315   -4.1755 H         1 <0>         0.4258
     32 H9          1.4379   -8.1537   -3.6607 H         1 <0>         0.4290
     33 H10         2.4842   -7.0838    1.6113 H         1 <0>         0.0883
     34 H11         3.3232   -8.1376    0.4456 H         1 <0>         0.1099
     35 H12         4.2870   -8.3178    2.7492 H         1 <0>         0.1174
     36 H13         5.4729   -7.7097    1.5682 H         1 <0>         0.0918
     37 H14         3.8052   -5.9932    3.4632 H         1 <0>         0.1321
     38 H15         5.5323   -6.3748    3.6581 H         1 <0>         0.1350
     39 H16         5.2531   -4.2720    2.6189 H         1 <0>         0.4350
     40 H17         4.2162   -3.9536    0.5198 H         1 <0>         0.1403
     41 H18         3.0645   -4.6288    1.6963 H         1 <0>         0.1426
     42 H19         5.9102   -5.3210    1.5333 H         1 <0>         0.4266
@<TRIPOS>BOND
     1    1    2 1
     2    1   25 1
     3    1   26 1
     4    1   27 1
     5    2    6 1
     6    2    3 1
     7    3    4 2
     8    3   28 1
     9    4    5 1
    10    4    7 1
    11    5    6 2
    12    5   29 1
    13    7   11 2
    14    7    8 1
    15    8    9 2
    16    8   30 1
    17    9   10 1
    18   10   15 1
    19   10   11 1
    20   11   12 1
    21   12   13 2
    22   13   14 1
    23   13   18 1
    24   14   15 2
    25   14   17 1
    26   15   16 1
    27   16   31 1
    28   16   32 1
    29   18   19 1
    30   18   24 1
    31   18   20 1
    32   20   21 1
    33   20   33 1
    34   20   34 1
    35   21   22 1
    36   21   35 1
    37   21   36 1
    38   22   23 1
    39   22   37 1
    40   22   38 1
    41   23   24 1
    42   23   39 1
    43   23   42 1
    44   24   40 1
    45   24   41 1
@<TRIPOS>MOLECULE
ZINC60328033
   42    45     0     0     0
SMALL
USER_CHARGES

@<TRIPOS>ATOM
      1 C1         -0.0178    1.4608    0.0101 C.3       1 <0>         0.0979
      2 N1          0.0021   -0.0041    0.0020 N.pl3     1 <0>        -0.3700
      3 C2          0.0078   -0.7910   -1.0967 C.2       1 <0>         0.0710
      4 C3          0.0278   -2.0877   -0.6746 C.2       1 <0>        -0.1589
      5 C4          0.0343   -2.0768    0.7335 C.2       1 <0>         0.0681
      6 N2          0.0245   -0.8316    1.1313 N.2       1 <0>        -0.2952
      7 C5          0.0400   -3.2927   -1.5426 C.2       1 <0>        -0.1297
      8 C6         -0.8204   -3.5512   -2.6135 C.2       1 <0>         0.1187
      9 N3         -0.5065   -4.7112   -3.1394 N.2       1 <0>        -0.3005
     10 N4          0.5710   -5.2585   -2.4348 N.pl3     1 <0>        -0.3482
     11 C7          0.9182   -4.3763   -1.4441 C.2       1 <0>         0.2938
     12 N5          1.9322   -4.6467   -0.6138 N.2       1 <0>        -0.4885
     13 C8          2.6231   -5.7607   -0.7273 C.2       1 <0>         0.2624
     14 C9          2.3093   -6.6869   -1.7228 C.2       1 <0>        -0.3210
     15 C10         1.2687   -6.4296   -2.5748 C.2       1 <0>         0.5405
     16 N6          0.9389   -7.3270   -3.5686 N.pl3     1 <0>        -0.8128
     17 Br1         3.3032   -8.2873   -1.8855 Br        1 <0>         0.0052
     18 C11         3.7598   -6.0377    0.2226 C.3       1 <0>        -0.0555
     19 H1          3.6031   -7.0018    0.7064 H         1 <0>         0.1221
     20 C12         5.0798   -6.0634   -0.5532 C.3       1 <0>        -0.1449
     21 C13         6.2352   -6.2673    0.4310 C.3       1 <0>        -0.1416
     22 C14         6.2028   -5.1575    1.4840 C.3       1 <0>        -0.0109
     23 N7          4.9271   -5.2025    2.2086 N.4       1 <0>        -0.5051
     24 C15         3.8185   -4.9370    1.2839 C.3       1 <0>         0.0056
     25 H2          1.0048    1.8381    0.0023 H         1 <0>         0.0775
     26 H3         -0.5450    1.8219   -0.8730 H         1 <0>         0.0915
     27 H4         -0.5280    1.8123    0.9069 H         1 <0>         0.0930
     28 H5         -0.0022   -0.4541   -2.1228 H         1 <0>         0.1771
     29 H6          0.0489   -2.9465    1.3737 H         1 <0>         0.1782
     30 H7         -1.6140   -2.9019   -2.9525 H         1 <0>         0.2067
     31 H8          0.2079   -7.1315   -4.1755 H         1 <0>         0.4258
     32 H9          1.4379   -8.1537   -3.6607 H         1 <0>         0.4290
     33 H10         5.0644   -6.8828   -1.2719 H         1 <0>         0.1101
     34 H11         5.2118   -5.1180   -1.0794 H         1 <0>         0.0875
     35 H12         6.1303   -7.2359    0.9198 H         1 <0>         0.0922
     36 H13         7.1824   -6.2311   -0.1070 H         1 <0>         0.1171
     37 H14         7.0242   -5.2996    2.1863 H         1 <0>         0.1351
     38 H15         6.3081   -4.1894    0.9943 H         1 <0>         0.1313
     39 H16         4.8077   -6.1156    2.6209 H         1 <0>         0.4269
     40 H17         3.9741   -3.9733    0.7990 H         1 <0>         0.1419
     41 H18         2.8800   -4.9166    1.8379 H         1 <0>         0.1413
     42 H19         4.9305   -4.5045    2.9372 H         1 <0>         0.4351
@<TRIPOS>BOND
     1    1    2 1
     2    1   25 1
     3    1   26 1
     4    1   27 1
     5    2    6 1
     6    2    3 1
     7    3    4 2
     8    3   28 1
     9    4    5 1
    10    4    7 1
    11    5    6 2
    12    5   29 1
    13    7   11 2
    14    7    8 1
    15    8    9 2
    16    8   30 1
    17    9   10 1
    18   10   15 1
    19   10   11 1
    20   11   12 1
    21   12   13 2
    22   13   14 1
    23   13   18 1
    24   14   15 2
    25   14   17 1
    26   15   16 1
    27   16   31 1
    28   16   32 1
    29   18   19 1
    30   18   24 1
    31   18   20 1
    32   20   21 1
    33   20   33 1
    34   20   34 1
    35   21   22 1
    36   21   35 1
    37   21   36 1
    38   22   23 1
    39   22   37 1
    40   22   38 1
    41   23   24 1
    42   23   39 1
    43   23   42 1
    44   24   40 1
    45   24   41 1
@<TRIPOS>MOLECULE
ZINC13647791
   43    46     0     0     0
SMALL
USER_CHARGES

@<TRIPOS>ATOM
      1 C1         -0.0166    1.3699    0.0096 C.ar      1 <0>        -0.0800
      2 C2          1.1572    2.1045    0.0023 C.ar      1 <0>        -0.1190
      3 C3          2.3694    1.4373   -0.0129 C.ar      1 <0>        -0.0394
      4 C4          2.3887    0.0627   -0.0205 C.ar      1 <0>        -0.1883
      5 C5          1.2179   -0.7095   -0.0134 C.ar      1 <0>         0.1191
      6 C6          0.0021   -0.0041    0.0020 C.ar      1 <0>        -0.1207
      7 N1          1.3955   -2.0811   -0.0225 N.pl3     1 <0>        -0.6290
      8 C7          2.6545   -2.6113   -0.0374 C.2       1 <0>         0.2414
      9 C8          3.0385   -3.9533   -0.0487 C.2       1 <0>        -0.1370
     10 C9          2.0433   -4.9829   -0.0452 C.1       1 <0>         0.2720
     11 N2          1.2537   -5.7996   -0.0424 N.1       1 <0>        -0.4249
     12 C10         4.4680   -4.3104   -0.0642 C.ar      1 <0>         0.3088
     13 C11         4.8666   -5.6555   -0.0815 C.ar      1 <0>        -0.2844
     14 C12         6.2058   -5.9409   -0.0954 C.ar      1 <0>         0.2007
     15 N3          7.0848   -4.9482   -0.0923 N.ar      1 <0>        -0.5794
     16 C13         6.6886   -3.6836   -0.0759 C.ar      1 <0>         0.5826
     17 N4          5.4049   -3.3593   -0.0676 N.ar      1 <0>        -0.5825
     18 N5          7.6395   -2.6778   -0.0728 N.pl3     1 <0>        -0.7005
     19 C14         9.0646   -3.0170   -0.0875 C.3       1 <0>         0.1450
     20 C15         9.8948   -1.7318   -0.0805 C.3       1 <0>        -0.0888
     21 C16        11.3608   -2.0808   -0.0957 C.ar      1 <0>        -0.1340
     22 C17        12.0518   -2.2615    1.0929 C.ar      1 <0>        -0.0689
     23 C18        13.3992   -2.5815    1.0307 C.ar      1 <0>        -0.1701
     24 C19        14.0048   -2.7089   -0.2053 C.ar      1 <0>         0.0971
     25 N6         13.3163   -2.5294   -1.3154 N.ar      1 <0>        -0.4833
     26 C20        12.0320   -2.2302   -1.2943 C.ar      1 <0>         0.1060
     27 S1          3.6842   -1.1528   -0.0394 S.3       1 <0>         0.1837
     28 H1         -0.9648    1.8866    0.0260 H         1 <0>         0.1374
     29 H2          1.1270    3.1841    0.0081 H         1 <0>         0.1413
     30 H3          3.2952    1.9934   -0.0191 H         1 <0>         0.1400
     31 H4         -0.9301   -0.5494    0.0080 H         1 <0>         0.1308
     32 H5          0.6237   -2.6686   -0.0180 H         1 <0>         0.4164
     33 H6          4.1333   -6.4484   -0.0833 H         1 <0>         0.1381
     34 H7          6.5434   -6.9667   -0.1085 H         1 <0>         0.1667
     35 H8          7.3622   -1.7483   -0.0608 H         1 <0>         0.4130
     36 H9          9.3060   -3.6103    0.7944 H         1 <0>         0.0692
     37 H10         9.2920   -3.5916   -0.9854 H         1 <0>         0.0705
     38 H11         9.6534   -1.1385   -0.9624 H         1 <0>         0.0847
     39 H12         9.6674   -1.1572    0.8174 H         1 <0>         0.0829
     40 H13        11.5523   -2.1551    2.0445 H         1 <0>         0.1348
     41 H14        13.9686   -2.7291    1.9364 H         1 <0>         0.1364
     42 H15        15.0542   -2.9580   -0.2624 H         1 <0>         0.1564
     43 H16        11.4998   -2.0959   -2.2244 H         1 <0>         0.1551
@<TRIPOS>BOND
     1    1    6 ar
     2    1    2 ar
     3    1   28 1
     4    2    3 ar
     5    2   29 1
     6    3    4 ar
     7    3   30 1
     8    4   27 1
     9    4    5 ar
    10    5    6 ar
    11    5    7 1
    12    6   31 1
    13    7    8 1
    14    7   32 1
    15    8    9 2
    16    8   27 1
    17    9   10 1
    18    9   12 1
    19   10   11 3
    20   12   17 ar
    21   12   13 ar
    22   13   14 ar
    23   13   33 1
    24   14   15 ar
    25   14   34 1
    26   15   16 ar
    27   16   17 ar
    28   16   18 1
    29   18   19 1
    30   18   35 1
    31   19   20 1
    32   19   36 1
    33   19   37 1
    34   20   21 1
    35   20   38 1
    36   20   39 1
    37   21   26 ar
    38   21   22 ar
    39   22   23 ar
    40   22   40 1
    41   23   24 ar
    42   23   41 1
    43   24   25 ar
    44   24   42 1
    45   25   26 ar
    46   26   43 1
@<TRIPOS>MOLECULE
ZINC03938688
   39    41     0     0     0
SMALL
USER_CHARGES

@<TRIPOS>ATOM
      1 C1         -0.0095    1.3826    0.0704 C.ar      1 <0>        -0.0343
      2 C2          0.5587    1.0580   -1.1482 C.ar      1 <0>        -0.1609
      3 C3          1.7655    0.3862   -1.1955 C.ar      1 <0>         0.1753
      4 C4          2.4129    0.0342   -0.0053 C.ar      1 <0>        -0.1954
      5 C5          1.8304    0.3669    1.2233 C.ar      1 <0>         0.1741
      6 C6          0.6231    1.0388    1.2514 C.ar      1 <0>        -0.1610
      7 F1          2.4463    0.0317    2.3781 F         1 <0>        -0.1212
      8 C7          3.6999   -0.6827   -0.0456 C.2       1 <0>         0.6210
      9 O1          4.7383   -0.0615   -0.1600 O.2       1 <0>        -0.4669
     10 N1          3.7255   -2.0272    0.0446 N.am      1 <0>        -0.3962
     11 C8          4.8314   -2.8210    0.1249 C.2       1 <0>         0.5948
     12 N2          4.4249   -4.0694    0.1979 N.2       1 <0>        -0.5873
     13 C9          3.0869   -4.1118    0.1675 C.2       1 <0>         0.5191
     14 N3          2.6183   -2.8904    0.0808 N.2       1 <0>        -0.3480
     15 N4          2.3148   -5.2702    0.2247 N.pl3     1 <0>        -0.6226
     16 C10         2.9267   -6.5079    0.4407 C.ar      1 <0>         0.2365
     17 C11         4.1432   -6.5760    1.1080 C.ar      1 <0>        -0.1584
     18 C12         4.7450   -7.8008    1.3202 C.ar      1 <0>         0.0098
     19 C13         4.1379   -8.9586    0.8692 C.ar      1 <0>        -0.7033
     20 C14         2.9269   -8.8944    0.2046 C.ar      1 <0>         0.0112
     21 C15         2.3170   -7.6734   -0.0063 C.ar      1 <0>        -0.1777
     22 S1          4.9094  -10.5191    1.1415 S.o2      1 <0>         2.7034
     23 O2          4.4084  -11.3993    0.1448 O.2       1 <0>        -0.9656
     24 O3          6.2977  -10.2630    1.3036 O.2       1 <0>        -0.9650
     25 N5          4.3605  -11.0895    2.5960 N.pl3     1 <0>        -1.2510
     26 N6          6.1422   -2.3912    0.1281 N.pl3     1 <0>        -0.7911
     27 F2          2.3185    0.0697   -2.3868 F         1 <0>        -0.1201
     28 H1         -0.9506    1.9116    0.0998 H         1 <0>         0.1546
     29 H2          0.0576    1.3300   -2.0654 H         1 <0>         0.1549
     30 H3          0.1721    1.2963    2.1984 H         1 <0>         0.1546
     31 H4          1.3525   -5.2176    0.1147 H         1 <0>         0.4325
     32 H5          4.6180   -5.6722    1.4601 H         1 <0>         0.1556
     33 H6          5.6909   -7.8544    1.8385 H         1 <0>         0.1456
     34 H7          2.4556   -9.8005   -0.1466 H         1 <0>         0.1475
     35 H8          1.3691   -7.6243   -0.5215 H         1 <0>         0.1387
     36 H9          3.7284  -10.5673    3.1145 H         1 <0>         0.4165
     37 H10         4.6709  -11.9458    2.9296 H         1 <0>         0.4206
     38 H11         6.3422   -1.4439    0.0694 H         1 <0>         0.4292
     39 H12         6.8640   -3.0364    0.1890 H         1 <0>         0.4303
@<TRIPOS>BOND
     1    1    6 ar
     2    1    2 ar
     3    1   28 1
     4    2    3 ar
     5    2   29 1
     6    3    4 ar
     7    3   27 1
     8    4    5 ar
     9    4    8 1
    10    5    6 ar
    11    5    7 1
    12    6   30 1
    13    8    9 2
    14    8   10 am
    15   10   14 1
    16   10   11 1
    17   11   12 2
    18   11   26 1
    19   12   13 1
    20   13   14 2
    21   13   15 1
    22   15   16 1
    23   15   31 1
    24   16   21 ar
    25   16   17 ar
    26   17   18 ar
    27   17   32 1
    28   18   19 ar
    29   18   33 1
    30   19   20 ar
    31   19   22 1
    32   20   21 ar
    33   20   34 1
    34   21   35 1
    35   22   23 2
    36   22   24 2
    37   22   25 1
    38   25   36 1
    39   25   37 1
    40   26   38 1
    41   26   39 1
@<TRIPOS>MOLECULE
ZINC00582590
   54    56     0     0     0
SMALL
USER_CHARGES

@<TRIPOS>ATOM
      1 C1          0.3210   -0.2542   -0.2950 C.3       1 <0>        -0.1471
      2 C2         -0.6989    0.1485    0.7720 C.3       1 <0>        -0.0980
      3 C3         -0.9526    1.6552    0.6922 C.3       1 <0>        -0.1473
      4 C4         -2.0102   -0.6029    0.5335 C.3       1 <0>         0.1711
      5 H1         -2.4152   -0.3269   -0.4401 H         1 <0>         0.1082
      6 C5         -3.0151   -0.2346    1.6269 C.3       1 <0>         0.0616
      7 O1         -2.4404   -0.4943    2.9092 O.3       1 <0>        -0.5710
      8 N1         -1.7592   -2.0458    0.5668 N.pl3     1 <0>        -0.6786
      9 C6         -2.6062   -2.9119   -0.1051 C.ar      1 <0>         0.6293
     10 N2         -3.6349   -2.4098   -0.7763 N.ar      1 <0>        -0.6062
     11 C7         -4.4751   -3.1988   -1.4363 C.ar      1 <0>         0.5376
     12 C8         -4.2539   -4.5867   -1.4114 C.ar      1 <0>        -0.1535
     13 C9         -3.1523   -5.0726   -0.6878 C.ar      1 <0>         0.3509
     14 N3         -2.3585   -4.2107   -0.0601 N.ar      1 <0>        -0.6161
     15 N4         -3.1762   -6.4368   -0.8324 N.pl3     1 <0>        -0.4727
     16 C10        -4.2520   -6.7464   -1.6124 C.2       1 <0>         0.2292
     17 N5         -4.8825   -5.6599   -1.9508 N.2       1 <0>        -0.4526
     18 C11        -2.2219   -7.3866   -0.2551 C.3       1 <0>         0.1354
     19 C12        -2.9632   -8.3593    0.6643 C.3       1 <0>        -0.1619
     20 C13        -1.5372   -8.1679   -1.3784 C.3       1 <0>        -0.1618
     21 N6         -5.5464   -2.6655   -2.1337 N.pl3     1 <0>        -0.6280
     22 C14        -5.6825   -1.2864   -2.2512 C.ar      1 <0>         0.1488
     23 C15        -4.5525   -0.4885   -2.4166 C.ar      1 <0>        -0.1220
     24 C16        -4.6779    0.8657   -2.5326 C.ar      1 <0>        -0.0594
     25 C17        -5.9451    1.4590   -2.4857 C.ar      1 <0>        -0.1364
     26 C18        -7.0831    0.6589   -2.3195 C.ar      1 <0>         0.0117
     27 C19        -6.9477   -0.7079   -2.2089 C.ar      1 <0>        -0.1557
     28 Cl1        -8.6583    1.3861   -2.2597 Cl        1 <0>        -0.0441
     29 C20        -6.0813    2.9182   -2.6102 C.2       1 <0>         0.5168
     30 O2         -5.0862    3.6154   -2.7549 O.co2     1 <0>        -0.6900
     31 O3         -7.1896    3.4349   -2.5690 O.co2     1 <0>        -0.6630
     32 H2          1.2552    0.2811   -0.1251 H         1 <0>         0.0549
     33 H3          0.5018   -1.3276   -0.2382 H         1 <0>         0.0529
     34 H4         -0.0674   -0.0030   -1.2820 H         1 <0>         0.0568
     35 H5         -0.3105   -0.1028    1.7590 H         1 <0>         0.0821
     36 H6         -1.3236    1.9090   -0.3008 H         1 <0>         0.0629
     37 H7         -1.6929    1.9391    1.4402 H         1 <0>         0.0595
     38 H8         -0.0222    2.1908    0.8803 H         1 <0>         0.0576
     39 H9         -3.2659    0.8232    1.5485 H         1 <0>         0.0601
     40 H10        -3.9187   -0.8321    1.5060 H         1 <0>         0.0503
     41 H11        -3.0232   -0.2835    3.6514 H         1 <0>         0.3749
     42 H12        -0.9999   -2.3948    1.0594 H         1 <0>         0.4127
     43 H13        -4.5374   -7.7457   -1.9061 H         1 <0>         0.2129
     44 H14        -1.4715   -6.8438    0.3196 H         1 <0>         0.1056
     45 H15        -3.7136   -8.9021    0.0895 H         1 <0>         0.0647
     46 H16        -2.2531   -9.0660    1.0938 H         1 <0>         0.0772
     47 H17        -3.4510   -7.8027    1.4645 H         1 <0>         0.0630
     48 H18        -1.0091   -7.4750   -2.0333 H         1 <0>         0.0633
     49 H19        -0.8272   -8.8746   -0.9489 H         1 <0>         0.0771
     50 H20        -2.2876   -8.7108   -1.9531 H         1 <0>         0.0647
     51 H21        -6.2018   -3.2539   -2.5402 H         1 <0>         0.4250
     52 H22        -3.5736   -0.9432   -2.4528 H         1 <0>         0.1261
     53 H23        -3.7989    1.4800   -2.6603 H         1 <0>         0.1350
     54 H24        -7.8223   -1.3294   -2.0853 H         1 <0>         0.1255
@<TRIPOS>BOND
     1    1    2 1
     2    1   32 1
     3    1   33 1
     4    1   34 1
     5    2    3 1
     6    2    4 1
     7    2   35 1
     8    3   36 1
     9    3   37 1
    10    3   38 1
    11    4    5 1
    12    4    6 1
    13    4    8 1
    14    6    7 1
    15    6   39 1
    16    6   40 1
    17    7   41 1
    18    8    9 1
    19    8   42 1
    20    9   14 ar
    21    9   10 ar
    22   10   11 ar
    23   11   12 ar
    24   11   21 1
    25   12   17 1
    26   12   13 ar
    27   13   14 ar
    28   13   15 1
    29   15   16 1
    30   15   18 1
    31   16   17 2
    32   16   43 1
    33   18   19 1
    34   18   20 1
    35   18   44 1
    36   19   45 1
    37   19   46 1
    38   19   47 1
    39   20   48 1
    40   20   49 1
    41   20   50 1
    42   21   22 1
    43   21   51 1
    44   22   27 ar
    45   22   23 ar
    46   23   24 ar
    47   23   52 1
    48   24   25 ar
    49   24   53 1
    50   25   26 ar
    51   25   29 1
    52   26   27 ar
    53   26   28 1
    54   27   54 1
    55   29   30 2
    56   29   31 1
@<TRIPOS>MOLECULE
ZINC00582575
   52    54     0     0     0
SMALL
USER_CHARGES

@<TRIPOS>ATOM
      1 C1          0.4280   -0.4909    1.8513 C.3       1 <0>        -0.1353
      2 C2         -0.1373    0.3043    0.6728 C.3       1 <0>        -0.0998
      3 C3          0.1219    1.7960    0.8928 C.3       1 <0>        -0.1438
      4 C4          0.5445   -0.1465   -0.6206 C.3       1 <0>         0.1707
      5 H1          1.6116    0.0682   -0.5626 H         1 <0>         0.1020
      6 C5         -0.0633    0.6053   -1.8064 C.3       1 <0>         0.0638
      7 O1         -1.4784    0.4070   -1.8214 O.3       1 <0>        -0.5678
      8 N1          0.3453   -1.5866   -0.8014 N.pl3     1 <0>        -0.6843
      9 C6          1.2038   -2.4865   -0.1915 C.ar      1 <0>         0.6278
     10 N2          2.1960   -2.0197    0.5559 N.ar      1 <0>        -0.6013
     11 C7          3.0454   -2.8423    1.1611 C.ar      1 <0>         0.5297
     12 C8          2.8737   -4.2277    0.9949 C.ar      1 <0>        -0.1465
     13 C9          1.8096   -4.6754    0.1948 C.ar      1 <0>         0.3495
     14 N3          1.0032   -3.7820   -0.3699 N.ar      1 <0>        -0.6072
     15 N4          1.8776   -6.0456    0.2064 N.pl3     1 <0>        -0.4700
     16 C10         2.9424   -6.3955    0.9844 C.2       1 <0>         0.2415
     17 N5          3.5251   -5.3277    1.4458 N.2       1 <0>        -0.4572
     18 C11         0.9729   -6.9645   -0.4890 C.3       1 <0>         0.1340
     19 C12         1.7722   -7.8175   -1.4761 C.3       1 <0>        -0.1629
     20 C13         0.2864   -7.8742    0.5318 C.3       1 <0>        -0.1632
     21 N6          4.0779   -2.3459    1.9386 N.pl3     1 <0>        -0.6355
     22 C14         4.2903   -0.9669    2.0207 C.ar      1 <0>         0.1742
     23 C15         4.0436   -0.1577    0.9185 C.ar      1 <0>        -0.1100
     24 C16         4.2538    1.2045    1.0024 C.ar      1 <0>        -0.0884
     25 C17         4.7100    1.7642    2.1819 C.ar      1 <0>        -0.1271
     26 C18         4.9569    0.9617    3.2819 C.ar      1 <0>        -0.0129
     27 C19         4.7429   -0.4020    3.2058 C.ar      1 <0>        -0.1416
     28 Cl1         5.5294    1.6687    4.7604 Cl        1 <0>        -0.0669
     29 H2          0.2433   -1.5536    1.6946 H         1 <0>         0.0430
     30 H3          1.5012   -0.3158    1.9263 H         1 <0>         0.0707
     31 H4         -0.0578   -0.1697    2.7727 H         1 <0>         0.0403
     32 H5         -1.2106    0.1292    0.5978 H         1 <0>         0.0766
     33 H6          1.1945    1.9872    0.8596 H         1 <0>         0.0559
     34 H7         -0.3739    2.3703    0.1101 H         1 <0>         0.0538
     35 H8         -0.2703    2.0934    1.8654 H         1 <0>         0.0560
     36 H9          0.1535    1.6693   -1.7118 H         1 <0>         0.0658
     37 H10         0.3663    0.2281   -2.7345 H         1 <0>         0.0519
     38 H11        -1.9308    0.8561   -2.5484 H         1 <0>         0.3823
     39 H12        -0.3878   -1.9099   -1.3481 H         1 <0>         0.4179
     40 H13         3.2553   -7.4091    1.1873 H         1 <0>         0.2164
     41 H14         0.2195   -6.3923   -1.0303 H         1 <0>         0.1069
     42 H15         2.5256   -8.3897   -0.9348 H         1 <0>         0.0660
     43 H16         1.0991   -8.5011   -1.9935 H         1 <0>         0.0802
     44 H17         2.2613   -7.1693   -2.2033 H         1 <0>         0.0632
     45 H18        -0.2830   -7.2665    1.2351 H         1 <0>         0.0634
     46 H19        -0.3867   -8.5579    0.0144 H         1 <0>         0.0803
     47 H20         1.0399   -8.4464    1.0731 H         1 <0>         0.0660
     48 H21         4.6539   -2.9553    2.4263 H         1 <0>         0.4297
     49 H22         3.6881   -0.5939   -0.0033 H         1 <0>         0.1411
     50 H23         4.0621    1.8335    0.1457 H         1 <0>         0.1337
     51 H24         4.8742    2.8298    2.2445 H         1 <0>         0.1331
     52 H25         4.9317   -1.0277    4.0656 H         1 <0>         0.1347
@<TRIPOS>BOND
     1    1    2 1
     2    1   29 1
     3    1   30 1
     4    1   31 1
     5    2    3 1
     6    2    4 1
     7    2   32 1
     8    3   33 1
     9    3   34 1
    10    3   35 1
    11    4    5 1
    12    4    6 1
    13    4    8 1
    14    6    7 1
    15    6   36 1
    16    6   37 1
    17    7   38 1
    18    8    9 1
    19    8   39 1
    20    9   14 ar
    21    9   10 ar
    22   10   11 ar
    23   11   12 ar
    24   11   21 1
    25   12   17 1
    26   12   13 ar
    27   13   14 ar
    28   13   15 1
    29   15   16 1
    30   15   18 1
    31   16   17 2
    32   16   40 1
    33   18   19 1
    34   18   20 1
    35   18   41 1
    36   19   42 1
    37   19   43 1
    38   19   44 1
    39   20   45 1
    40   20   46 1
    41   20   47 1
    42   21   22 1
    43   21   48 1
    44   22   27 ar
    45   22   23 ar
    46   23   24 ar
    47   23   49 1
    48   24   25 ar
    49   24   50 1
    50   25   26 ar
    51   25   51 1
    52   26   27 ar
    53   26   28 1
    54   27   52 1
@<TRIPOS>MOLECULE
ZINC12355112
   41    43     0     0     0
SMALL
USER_CHARGES

@<TRIPOS>ATOM
      1 C1         -0.1028    1.0961   -0.3671 C.ar      1 <0>        -0.0514
      2 C2          0.1939    0.2453    0.6818 C.ar      1 <0>        -0.1484
      3 C3          1.4264   -0.3800    0.7402 C.ar      1 <0>         0.1639
      4 C4          2.3673   -0.1521   -0.2572 C.ar      1 <0>         0.0453
      5 C5          2.0653    0.7038   -1.3099 C.ar      1 <0>         0.1303
      6 C6          0.8305    1.3253   -1.3612 C.ar      1 <0>        -0.1508
      7 F1          2.9766    0.9287   -2.2816 F         1 <0>        -0.1242
      8 N1          3.6170   -0.7832   -0.2014 N.pl3     1 <0>        -0.5829
      9 C7          3.7027   -2.0774    0.1649 C.2       1 <0>         0.5287
     10 S1          2.2783   -2.9758    0.4732 S.2       1 <0>        -0.4610
     11 N2          4.9096   -2.6643    0.2886 N.pl3     1 <0>        -0.3704
     12 C8          5.1565   -3.9777    0.5555 C.2       1 <0>         0.6130
     13 N3          6.4609   -4.1414    0.5939 N.2       1 <0>        -0.5881
     14 C9          7.0702   -2.9726    0.3596 C.2       1 <0>         0.5344
     15 N4          6.1641   -2.0459    0.1621 N.2       1 <0>        -0.3900
     16 N5          8.4494   -2.7737    0.3248 N.pl3     1 <0>        -0.6253
     17 C10         9.3156   -3.8654    0.4276 C.ar      1 <0>         0.2308
     18 C11         8.9430   -5.1006   -0.0877 C.ar      1 <0>        -0.1475
     19 C12         9.8015   -6.1774    0.0157 C.ar      1 <0>         0.0049
     20 C13        11.0306   -6.0273    0.6313 C.ar      1 <0>        -0.6997
     21 C14        11.4044   -4.7993    1.1458 C.ar      1 <0>         0.0107
     22 C15        10.5534   -3.7167    1.0403 C.ar      1 <0>        -0.1718
     23 S2         12.1228   -7.4039    0.7609 S.o2      1 <0>         2.7036
     24 O1         12.9813   -7.1389    1.8619 O.2       1 <0>        -0.9640
     25 O2         11.3155   -8.5710    0.6881 O.2       1 <0>        -0.9611
     26 N6         13.0757   -7.4022   -0.5934 N.pl3     1 <0>        -1.2489
     27 N7          4.2074   -4.9604    0.7511 N.pl3     1 <0>        -0.7789
     28 F2          1.7155   -1.2107    1.7657 F         1 <0>        -0.0889
     29 H1         -1.0676    1.5793   -0.4122 H         1 <0>         0.1524
     30 H2         -0.5376    0.0691    1.4566 H         1 <0>         0.1538
     31 H3          0.5950    1.9905   -2.1789 H         1 <0>         0.1534
     32 H4          4.4206   -0.2887   -0.4264 H         1 <0>         0.4283
     33 H5          8.8079   -1.8774    0.2293 H         1 <0>         0.4322
     34 H6          7.9831   -5.2186   -0.5683 H         1 <0>         0.1467
     35 H7          9.5123   -7.1380   -0.3844 H         1 <0>         0.1464
     36 H8         12.3649   -4.6855    1.6262 H         1 <0>         0.1476
     37 H9         10.8481   -2.7567    1.4378 H         1 <0>         0.1386
     38 H10        13.9781   -7.7554   -0.5519 H         1 <0>         0.4215
     39 H11        12.7314   -7.0480   -1.4282 H         1 <0>         0.4170
     40 H12         3.2665   -4.7264    0.7830 H         1 <0>         0.4323
     41 H13         4.4811   -5.8849    0.8567 H         1 <0>         0.4174
@<TRIPOS>BOND
     1    1    6 ar
     2    1    2 ar
     3    1   29 1
     4    2    3 ar
     5    2   30 1
     6    3    4 ar
     7    3   28 1
     8    4    5 ar
     9    4    8 1
    10    5    6 ar
    11    5    7 1
    12    6   31 1
    13    8    9 1
    14    8   32 1
    15    9   10 2
    16    9   11 1
    17   11   15 1
    18   11   12 1
    19   12   13 2
    20   12   27 1
    21   13   14 1
    22   14   15 2
    23   14   16 1
    24   16   17 1
    25   16   33 1
    26   17   22 ar
    27   17   18 ar
    28   18   19 ar
    29   18   34 1
    30   19   20 ar
    31   19   35 1
    32   20   21 ar
    33   20   23 1
    34   21   22 ar
    35   21   36 1
    36   22   37 1
    37   23   24 2
    38   23   25 2
    39   23   26 1
    40   26   38 1
    41   26   39 1
    42   27   40 1
    43   27   41 1
@<TRIPOS>MOLECULE
ZINC29135065
   25    27     0     0     0
SMALL
USER_CHARGES
4-(6-bromo-1H-pyrrolo[2,3-b]pyridin-3-yl)pyrimidin-2-amine
@<TRIPOS>ATOM
      1 C1          3.9019   -2.6656   -0.0489 C.ar      1 <0>        -0.0068
      2 C2          4.7889   -3.7264   -0.0625 C.ar      1 <0>        -0.1687
      3 C3          4.2976   -5.0234   -0.0642 C.ar      1 <0>         0.1610
      4 N1          3.0039   -5.2697   -0.0528 N.ar      1 <0>        -0.4735
      5 C4          2.1085   -4.2907   -0.0400 C.ar      1 <0>         0.2815
      6 C5          2.5372   -2.9515   -0.0375 C.ar      1 <0>        -0.1089
      7 C6          1.3158   -2.1310   -0.0215 C.2       1 <0>        -0.1479
      8 C7          0.2700   -2.9968   -0.0097 C.2       1 <0>         0.1376
      9 N2          0.7328   -4.2781   -0.0266 N.pl3     1 <0>        -0.5798
     10 H1          0.1740   -5.2256   -0.0304 H         1 <0>         0.4590
     11 C8          1.2420   -0.6541   -0.0133 C.ar      1 <0>         0.3054
     12 C9          0.0021   -0.0041    0.0020 C.ar      1 <0>        -0.2980
     13 C10        -0.0167    1.3771    0.0096 C.ar      1 <0>         0.1995
     14 N3          1.1296    2.0415    0.0022 N.ar      1 <0>        -0.5867
     15 C11         2.2897    1.4014   -0.0123 C.ar      1 <0>         0.5785
     16 N4          2.3547    0.0793   -0.0200 N.ar      1 <0>        -0.5766
     17 N5          3.4640    2.1342   -0.0191 N.pl3     1 <0>        -0.8460
     18 Br1         5.5134   -6.4716   -0.0828 Br        1 <0>        -0.0023
     19 H2          4.2558   -1.6452   -0.0476 H         1 <0>         0.1538
     20 H3          5.8538   -3.5466   -0.0712 H         1 <0>         0.1490
     21 H4         -0.7718   -2.7126    0.0080 H         1 <0>         0.1904
     22 H5         -0.9182   -0.5693    0.0081 H         1 <0>         0.1408
     23 H6         -0.9560    1.9100    0.0170 H         1 <0>         0.1666
     24 H7          4.4349    1.6172   -0.0311 H         1 <0>         0.4350
     25 H8          3.4263    3.2335   -0.0125 H         1 <0>         0.4372
@<TRIPOS>BOND
     1    1    6 ar
     2    1    2 ar
     3    1   19 1
     4    2    3 ar
     5    2   20 1
     6    3    4 ar
     7    3   18 1
     8    4    5 ar
     9    5    9 1
    10    5    6 ar
    11    6    7 1
    12    7    8 2
    13    7   11 1
    14    8    9 1
    15    8   21 1
    16    9   10 1
    17   11   16 ar
    18   11   12 ar
    19   12   13 ar
    20   12   22 1
    21   13   14 ar
    22   13   23 1
    23   14   15 ar
    24   15   16 ar
    25   15   17 1
    26   17   24 1
    27   17   25 1
@<TRIPOS>MOLECULE
ZINC29135071
   25    27     0     0     0
SMALL
USER_CHARGES
4-(4-chloro-1H-pyrrolo[2,3-b]pyridin-3-yl)pyrimidin-2-amine
@<TRIPOS>ATOM
      1 C1          4.6688    5.2304   -0.0133 C.ar      1 <0>        -0.1988
      2 C2          4.1415    6.5117   -0.0012 C.ar      1 <0>         0.1517
      3 N1          2.8423    6.7220    0.0117 N.ar      1 <0>        -0.4946
      4 C3          1.9731    5.7190    0.0139 C.ar      1 <0>         0.2866
      5 C4          2.4375    4.3925    0.0078 C.ar      1 <0>        -0.1240
      6 C5          3.8108    4.1438   -0.0116 C.ar      1 <0>         0.0624
      7 Cl1         4.4249    2.5202   -0.0258 Cl        1 <0>        -0.0158
      8 C6          1.2389    3.5391    0.0088 C.2       1 <0>        -0.1391
      9 C7          0.1699    4.3761    0.0234 C.2       1 <0>         0.1291
     10 N2          0.5983    5.6695    0.0266 N.pl3     1 <0>        -0.5797
     11 H1          0.0145    6.6017    0.0373 H         1 <0>         0.4590
     12 C8          1.2052    2.0607    0.0016 C.ar      1 <0>         0.2968
     13 C9         -0.0167    1.3772    0.0096 C.ar      1 <0>        -0.2957
     14 C10         0.0021   -0.0041    0.0020 C.ar      1 <0>         0.1967
     15 N3          1.1659   -0.6370   -0.0125 N.ar      1 <0>        -0.5865
     16 C11         2.3082    0.0345   -0.0198 C.ar      1 <0>         0.5726
     17 N4          2.3373    1.3579   -0.0130 N.ar      1 <0>        -0.5499
     18 N5          3.5019   -0.6660   -0.0345 N.pl3     1 <0>        -0.8460
     19 H2          5.7383    5.0808   -0.0234 H         1 <0>         0.1479
     20 H3          4.8125    7.3579   -0.0029 H         1 <0>         0.1714
     21 H4         -0.8640    4.0638    0.0314 H         1 <0>         0.1898
     22 H5         -0.9519    1.9171    0.0170 H         1 <0>         0.1390
     23 H6         -0.9225   -0.5623    0.0082 H         1 <0>         0.1652
     24 H7          4.4584   -0.1227   -0.0407 H         1 <0>         0.4252
     25 H8          3.4941   -1.7660   -0.0400 H         1 <0>         0.4366
@<TRIPOS>BOND
     1    1    6 ar
     2    1    2 ar
     3    1   19 1
     4    2    3 ar
     5    2   20 1
     6    3    4 ar
     7    4   10 1
     8    4    5 ar
     9    5    6 ar
    10    5    8 1
    11    6    7 1
    12    8    9 2
    13    8   12 1
    14    9   10 1
    15    9   21 1
    16   10   11 1
    17   12   17 ar
    18   12   13 ar
    19   13   14 ar
    20   13   22 1
    21   14   15 ar
    22   14   23 1
    23   15   16 ar
    24   16   17 ar
    25   16   18 1
    26   18   24 1
    27   18   25 1
@<TRIPOS>MOLECULE
ZINC01641925
   40    42     0     0     0
SMALL
USER_CHARGES

@<TRIPOS>ATOM
      1 C1         -0.0178    1.4608    0.0101 C.3       1 <0>         0.0831
      2 N1          0.0021   -0.0041    0.0020 N.pl3     1 <0>        -0.4808
      3 C2          0.0085   -0.8054   -1.1023 C.2       1 <0>         0.2308
      4 N2          0.0274   -2.0557   -0.7436 N.2       1 <0>        -0.4545
      5 C3          0.0343   -2.1368    0.6098 C.ar      1 <0>        -0.1554
      6 C4          0.0236   -0.8217    1.1034 C.ar      1 <0>         0.3460
      7 N3          0.0327   -0.6231    2.4177 N.ar      1 <0>        -0.6159
      8 C5          0.0544   -1.6488    3.2534 C.ar      1 <0>         0.6298
      9 N4          0.0680   -2.9065    2.8307 N.ar      1 <0>        -0.6237
     10 C6          0.0525   -3.1954    1.5342 C.ar      1 <0>         0.5415
     11 N5          0.0685   -4.5100    1.1029 N.pl3     1 <0>        -0.6890
     12 C7          0.0874   -5.6013    2.0801 C.3       1 <0>         0.1707
     13 C8          0.1022   -6.9232    1.3567 C.ar      1 <0>        -0.1135
     14 C9         -1.0881   -7.5430    1.0249 C.ar      1 <0>        -0.0983
     15 C10        -1.0745   -8.7555    0.3613 C.ar      1 <0>        -0.1220
     16 C11         0.1294   -9.3482    0.0290 C.ar      1 <0>        -0.1103
     17 C12         1.3196   -8.7280    0.3600 C.ar      1 <0>        -0.1222
     18 C13         1.3060   -7.5133    1.0198 C.ar      1 <0>        -0.0984
     19 N6          0.0637   -1.4010    4.6162 N.pl3     1 <0>        -0.6906
     20 C14         0.0877   -2.5182    5.5636 C.3       1 <0>         0.1417
     21 C15         0.0936   -1.9741    6.9936 C.3       1 <0>         0.0611
     22 O1         -1.1346   -1.2892    7.2477 O.3       1 <0>        -0.5709
     23 H1          1.0048    1.8381    0.0023 H         1 <0>         0.0748
     24 H2         -0.5450    1.8219   -0.8730 H         1 <0>         0.0893
     25 H3         -0.5280    1.8123    0.9069 H         1 <0>         0.0882
     26 H4         -0.0013   -0.4536   -2.1234 H         1 <0>         0.2190
     27 H5          0.0672   -4.7091    0.1536 H         1 <0>         0.4197
     28 H6          0.9790   -5.5172    2.7015 H         1 <0>         0.0778
     29 H7         -0.8008   -5.5413    2.7091 H         1 <0>         0.0779
     30 H8         -2.0286   -7.0800    1.2846 H         1 <0>         0.1238
     31 H9         -2.0044   -9.2401    0.1028 H         1 <0>         0.1245
     32 H10         0.1400  -10.2958   -0.4888 H         1 <0>         0.1237
     33 H11         2.2602   -9.1911    0.1006 H         1 <0>         0.1244
     34 H12         2.2359   -7.0270    1.2750 H         1 <0>         0.1237
     35 H13         0.0543   -0.4879    4.9432 H         1 <0>         0.4161
     36 H14        -0.7954   -3.1397    5.4150 H         1 <0>         0.0745
     37 H15         0.9844   -3.1155    5.3984 H         1 <0>         0.0812
     38 H16         0.2009   -2.8004    7.6963 H         1 <0>         0.0659
     39 H17         0.9273   -1.2826    7.1158 H         1 <0>         0.0536
     40 H18        -1.2006   -0.9172    8.1379 H         1 <0>         0.3829
@<TRIPOS>BOND
     1    1    2 1
     2    1   23 1
     3    1   24 1
     4    1   25 1
     5    2    6 1
     6    2    3 1
     7    3    4 2
     8    3   26 1
     9    4    5 1
    10    5   10 ar
    11    5    6 ar
    12    6    7 ar
    13    7    8 ar
    14    8    9 ar
    15    8   19 1
    16    9   10 ar
    17   10   11 1
    18   11   12 1
    19   11   27 1
    20   12   13 1
    21   12   28 1
    22   12   29 1
    23   13   18 ar
    24   13   14 ar
    25   14   15 ar
    26   14   30 1
    27   15   16 ar
    28   15   31 1
    29   16   17 ar
    30   16   32 1
    31   17   18 ar
    32   17   33 1
    33   18   34 1
    34   19   20 1
    35   19   35 1
    36   20   21 1
    37   20   36 1
    38   20   37 1
    39   21   22 1
    40   21   38 1
    41   21   39 1
    42   22   40 1
@<TRIPOS>MOLECULE
ZINC01639355
   31    34     0     0     0
SMALL
USER_CHARGES

@<TRIPOS>ATOM
      1 C1         -0.0166    1.3732    0.0096 C.ar      1 <0>        -0.1257
      2 C2          1.1748    2.0786    0.0020 C.ar      1 <0>        -0.0832
      3 C3          2.3792    1.4098    0.0056 C.ar      1 <0>        -0.1400
      4 C4          2.4210    0.0136    0.0061 C.ar      1 <0>         0.1789
      5 C5          1.2194   -0.6945   -0.0178 C.ar      1 <0>        -0.0582
      6 C6          0.0021   -0.0041    0.0020 C.ar      1 <0>        -0.0848
      7 C7          1.1765   -2.1700   -0.1110 C.2       1 <0>         0.1249
      8 C8          2.0458   -2.9289   -0.8258 C.2       1 <0>        -0.1473
      9 C9          1.6305   -4.3071   -0.6826 C.ar      1 <0>        -0.0956
     10 C10         2.1330   -5.5059   -1.2017 C.ar      1 <0>        -0.0291
     11 C11         1.4744   -6.6587   -0.8492 C.ar      1 <0>        -0.1144
     12 C12         0.3640   -6.6479   -0.0195 C.ar      1 <0>        -0.0709
     13 C13        -0.1535   -5.4768    0.5077 C.ar      1 <0>        -0.1209
     14 C14         0.4938   -4.2910    0.1676 C.ar      1 <0>         0.1207
     15 N1          0.2503   -2.9898    0.5038 N.pl3     1 <0>        -0.5782
     16 H1         -0.4640   -2.6874    1.0863 H         1 <0>         0.4210
     17 Br1         2.1020   -8.3126   -1.5175 Br        1 <0>        -0.0539
     18 C15         3.2306   -2.3907   -1.5888 C.3       1 <0>        -0.0636
     19 C16         4.1060   -1.6483   -0.6094 C.2       1 <0>         0.5307
     20 O1          5.2428   -2.0303   -0.4280 O.2       1 <0>        -0.5234
     21 N2          3.6660   -0.5863    0.0608 N.am      1 <0>        -0.6636
     22 H2         -0.9584    1.9016    0.0259 H         1 <0>         0.1335
     23 H3          1.1598    3.1584   -0.0064 H         1 <0>         0.1345
     24 H4          3.3016    1.9714    0.0076 H         1 <0>         0.1356
     25 H5         -0.9274   -0.5540    0.0114 H         1 <0>         0.1274
     26 H6          2.9973   -5.5236   -1.8490 H         1 <0>         0.1433
     27 H7         -0.1141   -7.5852    0.2239 H         1 <0>         0.1348
     28 H8         -1.0196   -5.4824    1.1528 H         1 <0>         0.1402
     29 H9          3.7892   -3.2143   -2.0334 H         1 <0>         0.1154
     30 H10         2.8897   -1.7104   -2.3693 H         1 <0>         0.1052
     31 H11         4.3030   -0.1787    0.6682 H         1 <0>         0.4064
@<TRIPOS>BOND
     1    1    6 ar
     2    1    2 ar
     3    1   22 1
     4    2    3 ar
     5    2   23 1
     6    3    4 ar
     7    3   24 1
     8    4   21 1
     9    4    5 ar
    10    5    6 ar
    11    5    7 1
    12    6   25 1
    13    7   15 1
    14    7    8 2
    15    8    9 1
    16    8   18 1
    17    9   14 ar
    18    9   10 ar
    19   10   11 ar
    20   10   26 1
    21   11   12 ar
    22   11   17 1
    23   12   13 ar
    24   12   27 1
    25   13   14 ar
    26   13   28 1
    27   14   15 1
    28   15   16 1
    29   18   19 1
    30   18   29 1
    31   18   30 1
    32   19   20 2
    33   19   21 am
    34   21   31 1
@<TRIPOS>MOLECULE
ZINC03814479
   35    36     0     0     0
SMALL
USER_CHARGES

@<TRIPOS>ATOM
      1 C1         -0.1624    1.4988   -0.0987 C.3       1 <0>        -0.1225
      2 C2          1.2633    2.0541   -0.0967 C.3       1 <0>        -0.1177
      3 C3          2.0049    1.5598   -1.3403 C.3       1 <0>        -0.1110
      4 C4          2.0532    0.0306   -1.3312 C.3       1 <0>        -0.0858
      5 C5          0.6275   -0.5247   -1.3332 C.3       1 <0>        -0.1160
      6 C6         -0.1141   -0.0304   -0.0896 C.3       1 <0>        -0.1194
      7 C7          2.7948   -0.4637   -2.5748 C.3       1 <0>         0.0638
      8 O1          2.9420   -1.8836   -2.5087 O.3       1 <0>        -0.2450
      9 C8          3.5799   -2.4823   -3.5373 C.ar      1 <0>         0.4866
     10 C9          3.7748   -3.9405   -3.5626 C.ar      1 <0>        -0.3011
     11 C10         4.4823   -4.4957   -4.7293 C.ar      1 <0>         0.5773
     12 N1          4.8911   -3.6519   -5.6674 N.ar      1 <0>        -0.6557
     13 C11         4.6765   -2.3486   -5.5709 C.ar      1 <0>         0.6842
     14 N2          4.0437   -1.7761   -4.5554 N.ar      1 <0>        -0.6663
     15 N3          5.1323   -1.5420   -6.5855 N.pl3     1 <0>        -0.7899
     16 N4          4.7118   -5.8437   -4.8418 N.pl3     1 <0>        -0.7841
     17 N5          3.3359   -4.7160   -2.5840 N.2       1 <0>        -0.2982
     18 O2          2.8608   -4.2182   -1.5790 O.2       1 <0>         0.0318
     19 H1         -0.6907    1.8510    0.7872 H         1 <0>         0.0617
     20 H2         -0.6841    1.8405   -0.9927 H         1 <0>         0.0602
     21 H3          1.2289    3.1435   -0.1032 H         1 <0>         0.0636
     22 H4          1.7850    1.7124    0.7973 H         1 <0>         0.0647
     23 H5          1.4832    1.9015   -2.2343 H         1 <0>         0.0647
     24 H6          3.0206    1.9554   -1.3389 H         1 <0>         0.0647
     25 H7          2.5749   -0.3111   -0.4372 H         1 <0>         0.0879
     26 H8          0.1058   -0.1830   -2.2271 H         1 <0>         0.0582
     27 H9          0.6619   -1.6141   -1.3267 H         1 <0>         0.0767
     28 H10         0.4076   -0.3721    0.8044 H         1 <0>         0.0655
     29 H11        -1.1298   -0.4260   -0.0910 H         1 <0>         0.0630
     30 H12         2.2263   -0.1985   -3.4662 H         1 <0>         0.0733
     31 H13         3.7793    0.0020   -2.6198 H         1 <0>         0.0741
     32 H14         5.5959   -1.9312   -7.3435 H         1 <0>         0.4222
     33 H15         4.9905   -0.5833   -6.5438 H         1 <0>         0.4222
     34 H16         4.3427   -6.4549   -4.1852 H         1 <0>         0.4275
     35 H17         5.2430   -6.1855   -5.5779 H         1 <0>         0.4185
@<TRIPOS>BOND
     1    1    6 1
     2    1    2 1
     3    1   19 1
     4    1   20 1
     5    2    3 1
     6    2   21 1
     7    2   22 1
     8    3    4 1
     9    3   23 1
    10    3   24 1
    11    4    5 1
    12    4    7 1
    13    4   25 1
    14    5    6 1
    15    5   26 1
    16    5   27 1
    17    6   28 1
    18    6   29 1
    19    7    8 1
    20    7   30 1
    21    7   31 1
    22    8    9 1
    23    9   14 ar
    24    9   10 ar
    25   10   11 ar
    26   10   17 1
    27   11   12 ar
    28   11   16 1
    29   12   13 ar
    30   13   14 ar
    31   13   15 1
    32   15   32 1
    33   15   33 1
    34   16   34 1
    35   16   35 1
    36   17   18 2
@<TRIPOS>MOLECULE
ZINC03873287
   50    53     0     0     0
SMALL
USER_CHARGES

@<TRIPOS>ATOM
      1 C1          1.0640   -0.4441   -0.7878 C.ar      1 <0>        -0.1410
      2 C2          2.2473    0.2676   -0.8051 C.ar      1 <0>        -0.0006
      3 C3          2.3751    1.4182   -0.0486 C.ar      1 <0>        -0.6984
      4 C4          1.3192    1.8600    0.7275 C.ar      1 <0>         0.0094
      5 C5          0.1332    1.1527    0.7497 C.ar      1 <0>        -0.1704
      6 C6          0.0014   -0.0032   -0.0094 C.ar      1 <0>         0.2324
      7 N1         -1.1980   -0.7210    0.0101 N.pl3     1 <0>        -0.6339
      8 C7         -1.1808   -2.1027   -0.1021 C.ar      1 <0>         0.6156
      9 N2         -2.3307   -2.7504   -0.1982 N.ar      1 <0>        -0.5803
     10 C8         -2.3525   -4.0741   -0.3076 C.ar      1 <0>         0.3394
     11 C9         -1.1370   -4.7803   -0.3202 C.ar      1 <0>        -0.1015
     12 C10         0.0574   -4.0511   -0.2158 C.ar      1 <0>         0.4739
     13 N3         -0.0115   -2.7302   -0.1151 N.ar      1 <0>        -0.6058
     14 O1          1.2559   -4.6825   -0.2224 O.3       1 <0>        -0.2730
     15 C11         2.4214   -3.8631   -0.1117 C.3       1 <0>         0.0667
     16 C12         3.6703   -4.7467   -0.1370 C.3       1 <0>        -0.0863
     17 C13         3.6862   -5.6428    1.1030 C.3       1 <0>        -0.1150
     18 C14         4.9350   -6.5264    1.0776 C.3       1 <0>        -0.1192
     19 C15         6.1845   -5.6434    1.0704 C.3       1 <0>        -0.1224
     20 C16         6.1685   -4.7473   -0.1696 C.3       1 <0>        -0.1175
     21 C17         4.9197   -3.8637   -0.1443 C.3       1 <0>        -0.1128
     22 N4         -1.4413   -6.0963   -0.4395 N.2       1 <0>        -0.4434
     23 C18        -2.7329   -6.2385   -0.4993 C.2       1 <0>         0.2546
     24 N5         -3.3404   -5.0194   -0.4220 N.pl3     1 <0>        -0.5790
     25 H1         -4.2955   -4.8516   -0.4439 H         1 <0>         0.4341
     26 S1          3.8869    2.3230   -0.0731 S.o2      1 <0>         2.7018
     27 O2          3.9389    3.0598    1.1409 O.2       1 <0>        -0.9640
     28 O3          4.9035    1.4050   -0.4512 O.2       1 <0>        -0.9607
     29 N6          3.7731    3.4335   -1.2963 N.pl3     1 <0>        -1.2490
     30 H2          0.9633   -1.3401   -1.3823 H         1 <0>         0.1431
     31 H3          3.0740   -0.0749   -1.4098 H         1 <0>         0.1446
     32 H4          1.4223    2.7589    1.3171 H         1 <0>         0.1468
     33 H5         -0.6908    1.4978    1.3565 H         1 <0>         0.1381
     34 H6         -2.0423   -0.2524    0.1021 H         1 <0>         0.4303
     35 H7          2.4544   -3.1635   -0.9469 H         1 <0>         0.0726
     36 H8          2.3879   -3.3083    0.8259 H         1 <0>         0.0738
     37 H9          3.6584   -5.3669   -1.0334 H         1 <0>         0.0830
     38 H10         3.6980   -5.0227    1.9993 H         1 <0>         0.0614
     39 H11         2.7961   -6.2719    1.1081 H         1 <0>         0.0692
     40 H12         4.9464   -7.1648    1.9610 H         1 <0>         0.0623
     41 H13         4.9232   -7.1466    0.1813 H         1 <0>         0.0626
     42 H14         6.1963   -5.0233    1.9667 H         1 <0>         0.0620
     43 H15         7.0741   -6.2729    1.0524 H         1 <0>         0.0618
     44 H16         7.0587   -4.1182   -0.1747 H         1 <0>         0.0663
     45 H17         6.1567   -5.3675   -1.0659 H         1 <0>         0.0630
     46 H18         4.9084   -3.2253   -1.0277 H         1 <0>         0.0678
     47 H19         4.9315   -3.2436    0.7521 H         1 <0>         0.0678
     48 H20        -3.2485   -7.1825   -0.5967 H         1 <0>         0.2311
     49 H21         4.2460    4.2778   -1.2303 H         1 <0>         0.4215
     50 H22         3.2336    3.2396   -2.0787 H         1 <0>         0.4170
@<TRIPOS>BOND
     1    1    6 ar
     2    1    2 ar
     3    1   30 1
     4    2    3 ar
     5    2   31 1
     6    3    4 ar
     7    3   26 1
     8    4    5 ar
     9    4   32 1
    10    5    6 ar
    11    5   33 1
    12    6    7 1
    13    7    8 1
    14    7   34 1
    15    8   13 ar
    16    8    9 ar
    17    9   10 ar
    18   10   24 1
    19   10   11 ar
    20   11   12 ar
    21   11   22 1
    22   12   13 ar
    23   12   14 1
    24   14   15 1
    25   15   16 1
    26   15   35 1
    27   15   36 1
    28   16   21 1
    29   16   17 1
    30   16   37 1
    31   17   18 1
    32   17   38 1
    33   17   39 1
    34   18   19 1
    35   18   40 1
    36   18   41 1
    37   19   20 1
    38   19   42 1
    39   19   43 1
    40   20   21 1
    41   20   44 1
    42   20   45 1
    43   21   46 1
    44   21   47 1
    45   22   23 2
    46   23   24 1
    47   23   48 1
    48   24   25 1
    49   26   27 2
    50   26   28 2
    51   26   29 1
    52   29   49 1
    53   29   50 1
@<TRIPOS>MOLECULE
ZINC02526465
   35    37     0     0     0
SMALL
USER_CHARGES

@<TRIPOS>ATOM
      1 C1         -0.6297    1.0732    0.2401 C.ar      1 <0>        -0.0643
      2 C2          0.4428    1.9449    0.3147 C.ar      1 <0>        -0.1043
      3 C3          1.7387    1.4606    0.2936 C.ar      1 <0>        -0.0525
      4 C4          1.9699    0.1039    0.1974 C.ar      1 <0>        -0.0314
      5 C5          0.8927   -0.7809    0.1218 C.ar      1 <0>         0.0333
      6 C6         -0.4128   -0.2854    0.1441 C.ar      1 <0>        -0.0890
      7 C7          1.1329   -2.2362    0.0180 C.2       1 <0>        -0.1314
      8 C8          1.0020   -3.0114   -1.1048 C.2       1 <0>         0.1526
      9 C9          1.3530   -4.3938   -0.6991 C.2       1 <0>         0.5523
     10 O1          1.3554   -5.3678   -1.4239 O.2       1 <0>        -0.4342
     11 N1          1.6686   -4.3851    0.6078 N.am      1 <0>        -0.6765
     12 C10         1.5668   -3.1388    1.1007 C.2       1 <0>         0.5856
     13 O2          1.7920   -2.8106    2.2487 O.2       1 <0>        -0.4491
     14 N2          0.6200   -2.5904   -2.3597 N.pl3     1 <0>        -0.6474
     15 C11        -0.4977   -3.1573   -2.9764 C.ar      1 <0>         0.1937
     16 C12        -1.3137   -4.0319   -2.2686 C.ar      1 <0>        -0.1450
     17 C13        -2.4185   -4.5915   -2.8786 C.ar      1 <0>        -0.0866
     18 C14        -2.7149   -4.2814   -4.1979 C.ar      1 <0>         0.0834
     19 C15        -1.9009   -3.4079   -4.9065 C.ar      1 <0>        -0.0220
     20 C16        -0.7978   -2.8428   -4.2962 C.ar      1 <0>        -0.1463
     21 Cl1        -2.2726   -3.0212   -6.5575 Cl        1 <0>        -0.0462
     22 O3         -3.8032   -4.8337   -4.7977 O.3       1 <0>        -0.4834
     23 N3          3.3571   -0.4124    0.1740 N.pl3     1 <0>         0.0359
     24 O4          4.2889    0.3551    0.2392 O.2       1 <0>        -0.1413
     25 O5          3.5581   -1.6016    0.0897 O.3       1 <0>        -0.1635
     26 H1         -1.6388    1.4575    0.2615 H         1 <0>         0.1511
     27 H2          0.2674    3.0079    0.3894 H         1 <0>         0.1535
     28 H3          2.5711    2.1462    0.3522 H         1 <0>         0.1602
     29 H4         -1.2505   -0.9644    0.0859 H         1 <0>         0.1508
     30 H5          1.9348   -5.1647    1.1199 H         1 <0>         0.4361
     31 H6          1.1273   -1.9002   -2.8149 H         1 <0>         0.4229
     32 H7         -1.0832   -4.2740   -1.2417 H         1 <0>         0.1255
     33 H8         -3.0522   -5.2714   -2.3285 H         1 <0>         0.1446
     34 H9         -0.1669   -2.1598   -4.8457 H         1 <0>         0.1422
     35 H10        -4.6125   -4.3134   -4.7002 H         1 <0>         0.3911
@<TRIPOS>BOND
     1    1    6 ar
     2    1    2 ar
     3    1   26 1
     4    2    3 ar
     5    2   27 1
     6    3    4 ar
     7    3   28 1
     8    4    5 ar
     9    4   23 1
    10    5    6 ar
    11    5    7 1
    12    6   29 1
    13    7   12 1
    14    7    8 2
    15    8    9 1
    16    8   14 1
    17    9   10 2
    18    9   11 am
    19   11   12 am
    20   11   30 1
    21   12   13 2
    22   14   15 1
    23   14   31 1
    24   15   20 ar
    25   15   16 ar
    26   16   17 ar
    27   16   32 1
    28   17   18 ar
    29   17   33 1
    30   18   19 ar
    31   18   22 1
    32   19   20 ar
    33   19   21 1
    34   20   34 1
    35   22   35 1
    36   23   24 2
    37   23   25 1
@<TRIPOS>MOLECULE
ZINC13580462
   26    27     0     0     0
SMALL
USER_CHARGES

@<TRIPOS>ATOM
      1 C1         -0.0184    1.5028    0.0103 C.3       1 <0>        -0.0948
      2 C2          0.0021   -0.0041    0.0020 C.2       1 <0>         0.0983
      3 C3          0.0079   -0.7942   -1.0955 C.2       1 <0>        -0.2678
      4 C4          0.0288   -2.1304   -0.6642 C.2       1 <0>         0.3015
      5 N1          0.0353   -2.1341    0.6481 N.2       1 <0>        -0.3197
      6 N2          0.0237   -0.8045    1.0886 N.pl3     1 <0>        -0.4658
      7 H1          0.0284   -0.5104    2.0129 H         1 <0>         0.4419
      8 N3          0.0401   -3.2617   -1.4904 N.am      1 <0>        -0.6311
      9 C5          0.0308   -3.1176   -2.8304 C.2       1 <0>         0.5703
     10 O1          0.0126   -2.0059   -3.3222 O.2       1 <0>        -0.5021
     11 C6          0.0426   -4.3110   -3.7019 C.ar      1 <0>        -0.1205
     12 C7          0.0576   -5.5891   -3.1401 C.ar      1 <0>        -0.0788
     13 C8          0.0682   -6.6988   -3.9587 C.ar      1 <0>        -0.0966
     14 C9          0.0639   -6.5475   -5.3351 C.ar      1 <0>        -0.0645
     15 C10         0.0495   -5.2825   -5.8983 C.ar      1 <0>        -0.0969
     16 C11         0.0330   -4.1650   -5.0904 C.ar      1 <0>        -0.0475
     17 Br1         0.0784   -8.0746   -6.4503 Br        1 <0>        -0.0360
     18 H2          1.0042    1.8801    0.0026 H         1 <0>         0.0838
     19 H3         -0.5455    1.8639   -0.8728 H         1 <0>         0.0897
     20 H4         -0.5286    1.8543    0.9071 H         1 <0>         0.0733
     21 H5         -0.0024   -0.4573   -2.1215 H         1 <0>         0.1731
     22 H6          0.0545   -4.1487   -1.0980 H         1 <0>         0.4157
     23 H7          0.0613   -5.7083   -2.0667 H         1 <0>         0.1371
     24 H8          0.0801   -7.6880   -3.5253 H         1 <0>         0.1431
     25 H9          0.0466   -5.1709   -6.9726 H         1 <0>         0.1444
     26 H10         0.0173   -3.1790   -5.5307 H         1 <0>         0.1499
@<TRIPOS>BOND
     1    1    2 1
     2    1   18 1
     3    1   19 1
     4    1   20 1
     5    2    6 1
     6    2    3 2
     7    3    4 1
     8    3   21 1
     9    4    5 2
    10    4    8 1
    11    5    6 1
    12    6    7 1
    13    8    9 am
    14    8   22 1
    15    9   10 2
    16    9   11 1
    17   11   16 ar
    18   11   12 ar
    19   12   13 ar
    20   12   23 1
    21   13   14 ar
    22   13   24 1
    23   14   15 ar
    24   14   17 1
    25   15   16 ar
    26   15   25 1
    27   16   26 1
@<TRIPOS>MOLECULE
ZINC01047455
   40    42     0     0     0
SMALL
USER_CHARGES

@<TRIPOS>ATOM
      1 C1         10.2571    0.5356    2.2250 C.ar      1 <0>        -0.0905
      2 C2          9.3710    1.0707    1.3091 C.ar      1 <0>        -0.1078
      3 C3          8.0517    1.2852    1.6663 C.ar      1 <0>        -0.0187
      4 C4          7.6193    0.9635    2.9404 C.ar      1 <0>        -0.0742
      5 C5          8.5065    0.4275    3.8564 C.ar      1 <0>        -0.0123
      6 C6          9.8257    0.2140    3.4982 C.ar      1 <0>        -0.1089
      7 Cl1         7.9650    0.0239    5.4557 Cl        1 <0>        -0.0245
      8 C7          6.1826    1.1973    3.3303 C.3       1 <0>         0.0011
      9 C8          5.3705   -0.0329    3.0169 C.2       1 <0>         0.0808
     10 N1          5.1230   -1.0622    3.7889 N.2       1 <0>        -0.4811
     11 C9          4.3867   -2.0746    3.3685 C.2       1 <0>         0.3250
     12 C10         3.9006   -1.9943    2.0982 C.2       1 <0>        -0.2920
     13 S1          4.5567   -0.4123    1.5935 S.3       1 <0>         0.1321
     14 N2          4.1180   -3.1818    4.1914 N.am      1 <0>        -0.6468
     15 C11         4.6973   -3.2760    5.4047 C.2       1 <0>         0.7216
     16 O1          5.3787   -2.3611    5.8258 O.2       1 <0>        -0.5226
     17 N3          4.5212   -4.3841    6.1513 N.am      1 <0>        -0.5902
     18 N4          3.7557   -5.4118    5.6783 N.3       1 <0>        -0.3076
     19 C12         2.5696   -5.6171    6.5224 C.3       1 <0>        -0.0042
     20 C13         1.7115   -6.7351    5.9243 C.3       1 <0>         0.0665
     21 O2          2.5008   -7.9214    5.8020 O.3       1 <0>        -0.3808
     22 C14         3.6638   -7.7575    4.9859 C.3       1 <0>         0.0666
     23 C15         4.5417   -6.6498    5.5745 C.3       1 <0>        -0.0019
     24 Cl2         6.9392    1.9584    0.5162 Cl        1 <0>        -0.0501
     25 H1         11.2859    0.3645    1.9443 H         1 <0>         0.1434
     26 H2          9.7087    1.3219    0.3144 H         1 <0>         0.1425
     27 H3         10.5185   -0.2045    4.2133 H         1 <0>         0.1410
     28 H4          6.1256    1.4079    4.3982 H         1 <0>         0.1179
     29 H5          5.7877    2.0455    2.7711 H         1 <0>         0.1095
     30 H6          3.2852   -2.6923    1.5500 H         1 <0>         0.1956
     31 H7          3.5156   -3.8781    3.8862 H         1 <0>         0.4226
     32 H8          4.9381   -4.4519    7.0245 H         1 <0>         0.4000
     33 H9          2.8827   -5.8971    7.5282 H         1 <0>         0.0566
     34 H10         1.9890   -4.6956    6.5646 H         1 <0>         0.0952
     35 H11         0.8607   -6.9297    6.5772 H         1 <0>         0.1068
     36 H12         1.3541   -6.4326    4.9400 H         1 <0>         0.0652
     37 H13         4.2250   -8.6916    4.9601 H         1 <0>         0.1069
     38 H14         3.3632   -7.4847    3.9743 H         1 <0>         0.0654
     39 H15         5.4006   -6.4822    4.9247 H         1 <0>         0.0955
     40 H16         4.8863   -6.9463    6.5652 H         1 <0>         0.0566
@<TRIPOS>BOND
     1    1    6 ar
     2    1    2 ar
     3    1   25 1
     4    2    3 ar
     5    2   26 1
     6    3    4 ar
     7    3   24 1
     8    4    5 ar
     9    4    8 1
    10    5    6 ar
    11    5    7 1
    12    6   27 1
    13    8    9 1
    14    8   28 1
    15    8   29 1
    16    9   13 1
    17    9   10 2
    18   10   11 1
    19   11   12 2
    20   11   14 1
    21   12   13 1
    22   12   30 1
    23   14   15 am
    24   14   31 1
    25   15   16 2
    26   15   17 am
    27   17   18 1
    28   17   32 1
    29   18   23 1
    30   18   19 1
    31   19   20 1
    32   19   33 1
    33   19   34 1
    34   20   21 1
    35   20   35 1
    36   20   36 1
    37   21   22 1
    38   22   23 1
    39   22   37 1
    40   22   38 1
    41   23   39 1
    42   23   40 1
@<TRIPOS>MOLECULE
ZINC14945777
   37    40     0     0     0
SMALL
USER_CHARGES

@<TRIPOS>ATOM
      1 C1          0.6485    0.2574   -1.1992 C.ar      1 <0>        -0.1462
      2 C2          1.8337    0.9663   -1.2037 C.ar      1 <0>         0.0029
      3 C3          2.3770    1.4156   -0.0140 C.ar      1 <0>        -0.6739
      4 C4          1.7359    1.1569    1.1836 C.ar      1 <0>         0.0039
      5 C5          0.5504    0.4486    1.1951 C.ar      1 <0>        -0.1223
      6 C6          0.0021   -0.0041    0.0020 C.ar      1 <0>         0.1972
      7 N1         -1.1997   -0.7220    0.0101 N.pl3     1 <0>        -0.2648
      8 C7         -1.4245   -1.8600   -0.7157 C.ar      1 <0>         0.1388
      9 C8         -2.7381   -2.2576   -0.4253 C.ar      1 <0>        -0.1351
     10 C9         -3.2811   -3.4028   -1.0169 C.ar      1 <0>         0.0043
     11 C10        -2.5399   -4.1466   -1.8828 C.ar      1 <0>        -0.1445
     12 C11        -1.2270   -3.7766   -2.1930 C.ar      1 <0>         0.1652
     13 C12        -0.6588   -2.6307   -1.6120 C.ar      1 <0>        -0.1793
     14 C13         0.6576   -2.5221   -2.1142 C.2       1 <0>         0.0700
     15 N2          0.8756   -3.5136   -2.9300 N.2       1 <0>        -0.2444
     16 N3         -0.2673   -4.3181   -3.0087 N.pl3     1 <0>        -0.4861
     17 H1         -0.3636   -5.1193   -3.5470 H         1 <0>         0.4482
     18 C14        -3.2246   -1.2459    0.5223 C.2       1 <0>         0.0324
     19 N4         -2.2311   -0.4005    0.7036 N.2       1 <0>        -0.2222
     20 C15        -4.5572   -1.1908    1.1492 C.2       1 <0>         0.6132
     21 O1         -5.3847   -2.0449    0.8946 O.2       1 <0>        -0.5239
     22 N5         -4.8588   -0.1939    2.0045 N.am      1 <0>        -0.8374
     23 S1          3.8896    2.3192   -0.0242 S.o2      1 <0>         2.7032
     24 O2          4.4689    2.1558    1.2630 O.2       1 <0>        -0.9570
     25 O3          4.5708    1.9574   -1.2177 O.2       1 <0>        -0.9564
     26 N6          3.5012    3.9225   -0.1685 N.pl3     1 <0>        -1.2487
     27 H2          0.2224   -0.0894   -2.1290 H         1 <0>         0.1486
     28 H3          2.3370    1.1697   -2.1374 H         1 <0>         0.1597
     29 H4          2.1629    1.5089    2.1111 H         1 <0>         0.1580
     30 H5          0.0504    0.2466    2.1308 H         1 <0>         0.1486
     31 H6         -4.2937   -3.6985   -0.7852 H         1 <0>         0.1533
     32 H7         -2.9686   -5.0295   -2.3336 H         1 <0>         0.1418
     33 H8          1.3651   -1.7455   -1.8637 H         1 <0>         0.1920
     34 H9         -4.1988    0.4873    2.2076 H         1 <0>         0.4087
     35 H10        -5.7359   -0.1576    2.4172 H         1 <0>         0.4114
     36 H11         2.5716    4.1929   -0.2283 H         1 <0>         0.4176
     37 H12         4.2034    4.5913   -0.1931 H         1 <0>         0.4234
@<TRIPOS>BOND
     1    1    6 ar
     2    1    2 ar
     3    1   27 1
     4    2    3 ar
     5    2   28 1
     6    3    4 ar
     7    3   23 1
     8    4    5 ar
     9    4   29 1
    10    5    6 ar
    11    5   30 1
    12    6    7 1
    13    7   19 1
    14    7    8 1
    15    8   13 ar
    16    8    9 ar
    17    9   10 ar
    18    9   18 1
    19   10   11 ar
    20   10   31 1
    21   11   12 ar
    22   11   32 1
    23   12   16 1
    24   12   13 ar
    25   13   14 1
    26   14   15 2
    27   14   33 1
    28   15   16 1
    29   16   17 1
    30   18   19 2
    31   18   20 1
    32   20   21 2
    33   20   22 am
    34   22   34 1
    35   22   35 1
    36   23   24 2
    37   23   25 2
    38   23   26 1
    39   26   36 1
    40   26   37 1
@<TRIPOS>MOLECULE
ZINC08830553
   23    24     0     0     0
SMALL
USER_CHARGES

@<TRIPOS>ATOM
      1 C1         -0.0178    1.4608    0.0101 C.3       1 <0>         0.1046
      2 N1          0.0021   -0.0041    0.0020 N.pl3     1 <0>        -0.5941
      3 C2          0.0241   -0.7433    1.2666 C.3       1 <0>         0.0832
      4 C3          0.0000   -0.6873   -1.1963 C.2       1 <0>         0.5723
      5 N2          0.0119   -2.0467   -1.3242 N.pl3     1 <0>        -0.6100
      6 H1          0.0232   -2.6926   -0.6006 H         1 <0>         0.4284
      7 C4          0.0041   -2.3318   -2.6805 C.ar      1 <0>         0.0801
      8 C5         -0.0126   -1.0922   -3.3399 C.ar      1 <0>         0.1386
      9 N3         -0.0193   -0.1288   -2.3806 N.2       1 <0>        -0.5242
     10 C6         -0.0242   -1.0555   -4.7369 C.ar      1 <0>        -0.0212
     11 C7         -0.0190   -2.2337   -5.4529 C.ar      1 <0>        -0.0459
     12 C8         -0.0029   -3.4564   -4.7961 C.ar      1 <0>        -0.0542
     13 C9          0.0091   -3.5081   -3.4157 C.ar      1 <0>        -0.0340
     14 Br1         0.0322   -5.1789   -2.5303 Br        1 <0>        -0.0066
     15 Br2         0.0027   -5.0609   -5.7968 Br        1 <0>         0.0152
     16 Br3        -0.0346   -2.1836   -7.3432 Br        1 <0>         0.0151
     17 Br4        -0.0474    0.6046   -5.6421 Br        1 <0>         0.0102
     18 H2          1.0048    1.8381    0.0023 H         1 <0>         0.0599
     19 H3         -0.5450    1.8219   -0.8730 H         1 <0>         0.0859
     20 H4         -0.5280    1.8123    0.9069 H         1 <0>         0.0771
     21 H5          0.0224   -0.0395    2.0990 H         1 <0>         0.0963
     22 H6         -0.8567   -1.3823    1.3294 H         1 <0>         0.0616
     23 H7          0.9230   -1.3581    1.3125 H         1 <0>         0.0616
@<TRIPOS>BOND
     1    1    2 1
     2    1   18 1
     3    1   19 1
     4    1   20 1
     5    2    3 1
     6    2    4 1
     7    3   21 1
     8    3   22 1
     9    3   23 1
    10    4    9 2
    11    4    5 1
    12    5    6 1
    13    5    7 1
    14    7   13 ar
    15    7    8 ar
    16    8    9 1
    17    8   10 ar
    18   10   11 ar
    19   10   17 1
    20   11   12 ar
    21   11   16 1
    22   12   13 ar
    23   12   15 1
    24   13   14 1
@<TRIPOS>MOLECULE
ZINC29135178
   25    27     0     0     0
SMALL
USER_CHARGES
4-(1H-pyrrolo[2,3-b]pyridin-3-yl)pyrimidin-2-amine
@<TRIPOS>ATOM
      1 C1          4.7883   -3.7278   -0.0631 C.ar      1 <0>        -0.2023
      2 C2          3.9016   -2.6660   -0.0490 C.ar      1 <0>        -0.0151
      3 C3          2.5371   -2.9514   -0.0434 C.ar      1 <0>        -0.1205
      4 C4          1.3158   -2.1310   -0.0215 C.2       1 <0>        -0.1497
      5 C5          0.2698   -2.9968   -0.0161 C.2       1 <0>         0.1117
      6 N1          0.7325   -4.2781   -0.0274 N.pl3     1 <0>        -0.5825
      7 H1          0.0233   -5.1190   -0.0251 H         1 <0>         0.4533
      8 C6          2.1082   -4.2909   -0.0406 C.ar      1 <0>         0.2883
      9 N2          3.0037   -5.2695   -0.0543 N.ar      1 <0>        -0.4996
     10 C7          4.2967   -5.0233   -0.0653 C.ar      1 <0>         0.1374
     11 C8          1.2420   -0.6541   -0.0133 C.ar      1 <0>         0.3061
     12 C9          0.0021   -0.0041    0.0020 C.ar      1 <0>        -0.2990
     13 C10        -0.0167    1.3771    0.0096 C.ar      1 <0>         0.1981
     14 N3          1.1296    2.0415    0.0022 N.ar      1 <0>        -0.5882
     15 C11         2.2897    1.4014   -0.0123 C.ar      1 <0>         0.5773
     16 N4          2.3546    0.0793   -0.0200 N.ar      1 <0>        -0.5763
     17 N5          3.4640    2.1342   -0.0196 N.pl3     1 <0>        -0.8466
     18 H2          5.8533   -3.5486   -0.0727 H         1 <0>         0.1386
     19 H3          4.2561   -1.6459   -0.0469 H         1 <0>         0.1435
     20 H4         -0.7720   -2.7125   -0.0043 H         1 <0>         0.1869
     21 H5          4.9908   -5.8507   -0.0760 H         1 <0>         0.1618
     22 H6         -0.9182   -0.5693    0.0081 H         1 <0>         0.1401
     23 H7         -0.9560    1.9100    0.0170 H         1 <0>         0.1658
     24 H8          4.4349    1.6172   -0.0316 H         1 <0>         0.4345
     25 H9          3.4263    3.2335   -0.0134 H         1 <0>         0.4365
@<TRIPOS>BOND
     1    1   10 ar
     2    1    2 ar
     3    1   18 1
     4    2    3 ar
     5    2   19 1
     6    3    8 ar
     7    3    4 1
     8    4    5 2
     9    4   11 1
    10    5    6 1
    11    5   20 1
    12    6    7 1
    13    6    8 1
    14    8    9 ar
    15    9   10 ar
    16   10   21 1
    17   11   16 ar
    18   11   12 ar
    19   12   13 ar
    20   12   22 1
    21   13   14 ar
    22   13   23 1
    23   14   15 ar
    24   15   16 ar
    25   15   17 1
    26   17   24 1
    27   17   25 1
@<TRIPOS>MOLECULE
ZINC12354799
   36    38     0     0     0
SMALL
USER_CHARGES
4-bromo-N-(5-cyclopentyl-1H-pyrazol-3-yl)benzamide
@<TRIPOS>ATOM
      1 C1         -5.1997    0.5589    0.0315 C.ar      1 <0>        -0.0789
      2 C2         -6.5035    0.1097    0.0274 C.ar      1 <0>        -0.0966
      3 C3         -6.7708   -1.2490    0.0212 C.ar      1 <0>        -0.0646
      4 C4         -5.7321   -2.1648    0.0124 C.ar      1 <0>        -0.0969
      5 C5         -4.4240   -1.7280    0.0097 C.ar      1 <0>        -0.0477
      6 C6         -4.1481   -0.3594    0.0163 C.ar      1 <0>        -0.1202
      7 C7         -2.7487    0.1153    0.0134 C.2       1 <0>         0.5700
      8 O1         -1.8348   -0.6865    0.0053 O.2       1 <0>        -0.5021
      9 N1         -2.4854    1.4370    0.0199 N.am      1 <0>        -0.6310
     10 C8         -1.1588    1.8870    0.0171 C.2       1 <0>         0.3002
     11 C9         -0.0126    1.0758    0.0080 C.2       1 <0>        -0.2653
     12 C10         1.0696    1.8868    0.0020 C.2       1 <0>         0.1121
     13 N2          0.6307    3.1631    0.0125 N.pl3     1 <0>        -0.4649
     14 H1          1.2049    3.9818    0.0112 H         1 <0>         0.4465
     15 N3         -0.7698    3.1403    0.0255 N.2       1 <0>        -0.3183
     16 C11         2.5100    1.4440   -0.0141 C.3       1 <0>        -0.0331
     17 C12         3.0868    1.4699    1.4164 C.3       1 <0>        -0.1158
     18 C13         4.5465    1.9529    1.2287 C.3       1 <0>        -0.1258
     19 C14         4.4141    3.0136    0.1078 C.3       1 <0>        -0.1274
     20 C15         3.3539    2.4255   -0.8462 C.3       1 <0>        -0.1249
     21 Br1        -8.5616   -1.8564    0.0242 Br        1 <0>        -0.0362
     22 H2         -4.9924    1.6188    0.0415 H         1 <0>         0.1370
     23 H3         -7.3179    0.8191    0.0335 H         1 <0>         0.1430
     24 H4         -5.9469   -3.2232    0.0073 H         1 <0>         0.1443
     25 H5         -3.6148   -2.4432    0.0021 H         1 <0>         0.1497
     26 H6         -3.2145    2.0768    0.0264 H         1 <0>         0.4153
     27 H7          0.0021   -0.0041    0.0020 H         1 <0>         0.1720
     28 H8          2.5870    0.4396   -0.4304 H         1 <0>         0.1019
     29 H9          2.5304    2.1701    2.0395 H         1 <0>         0.0674
     30 H10         3.0686    0.4714    1.8532 H         1 <0>         0.0752
     31 H11         5.1873    1.1311    0.9092 H         1 <0>         0.0719
     32 H12         4.9247    2.4050    2.1456 H         1 <0>         0.0700
     33 H13         5.3644    3.1416   -0.4104 H         1 <0>         0.0702
     34 H14         4.0730    3.9642    0.5177 H         1 <0>         0.0649
     35 H15         3.8411    1.8972   -1.6657 H         1 <0>         0.0760
     36 H16         2.7214    3.2216   -1.2390 H         1 <0>         0.0621
@<TRIPOS>BOND
     1    1    6 ar
     2    1    2 ar
     3    1   22 1
     4    2    3 ar
     5    2   23 1
     6    3    4 ar
     7    3   21 1
     8    4    5 ar
     9    4   24 1
    10    5    6 ar
    11    5   25 1
    12    6    7 1
    13    7    8 2
    14    7    9 am
    15    9   10 1
    16    9   26 1
    17   10   15 2
    18   10   11 1
    19   11   12 2
    20   11   27 1
    21   12   13 1
    22   12   16 1
    23   13   14 1
    24   13   15 1
    25   16   20 1
    26   16   17 1
    27   16   28 1
    28   17   18 1
    29   17   29 1
    30   17   30 1
    31   18   19 1
    32   18   31 1
    33   18   32 1
    34   19   20 1
    35   19   33 1
    36   19   34 1
    37   20   35 1
    38   20   36 1
@<TRIPOS>MOLECULE
ZINC21288966
   49    52     0     0     0
SMALL
USER_CHARGES
2-(2-chlorophenyl)-5,7-dihydroxy-8-[(3S,4R)-3-hydroxy-1-methyl-4-piperidyl]chromen-4-one
@<TRIPOS>ATOM
      1 C1          6.0895   -0.0238    5.9621 C.3       1 <0>        -0.0460
      2 N1          6.1756    1.0472    4.9603 N.4       1 <0>        -0.3934
      3 C2          5.9739    0.5180    3.6055 C.3       1 <0>        -0.0028
      4 C3          6.2126    1.6289    2.5802 C.3       1 <0>        -0.1464
      5 C4          5.2418    2.7821    2.8491 C.3       1 <0>        -0.0180
      6 H1          4.2050    2.4431    2.7074 H         1 <0>         0.1039
      7 C5          5.4391    3.2830    4.2825 C.3       1 <0>         0.1015
      8 H2          4.7709    4.1271    4.5084 H         1 <0>         0.0941
      9 C6          5.2218    2.1236    5.2574 C.3       1 <0>        -0.0361
     10 O1          6.7669    3.7898    4.4323 O.3       1 <0>        -0.5639
     11 C7          5.5132    3.9050    1.8814 C.ar      1 <0>        -0.2158
     12 C8          6.8017    4.3949    1.7322 C.ar      1 <0>         0.2946
     13 C9          7.0678    5.4304    0.8434 C.ar      1 <0>        -0.3049
     14 C10         6.0448    5.9841    0.0956 C.ar      1 <0>         0.3111
     15 C11         4.7411    5.4942    0.2412 C.ar      1 <0>        -0.3649
     16 C12         4.4748    4.4470    1.1407 C.ar      1 <0>         0.2362
     17 O2          3.2147    3.9814    1.2730 O.3       1 <0>        -0.2171
     18 C13         2.1871    4.4838    0.5705 C.2       1 <0>         0.1982
     19 C14         2.3394    5.4926   -0.3277 C.2       1 <0>        -0.2780
     20 C15         3.6225    6.0546   -0.5353 C.2       1 <0>         0.4382
     21 O3          3.7953    6.9641   -1.3304 O.2       1 <0>        -0.4786
     22 C16         0.8407    3.9147    0.7769 C.ar      1 <0>        -0.0680
     23 C17         0.6478    2.5322    0.7263 C.ar      1 <0>        -0.0708
     24 C18        -0.6124    2.0073    0.9205 C.ar      1 <0>        -0.1159
     25 C19        -1.6867    2.8467    1.1599 C.ar      1 <0>        -0.0780
     26 C20        -1.5036    4.2164    1.2169 C.ar      1 <0>        -0.1066
     27 C21        -0.2472    4.7566    1.0243 C.ar      1 <0>        -0.0057
     28 Cl1        -0.0199    6.4765    1.0889 Cl        1 <0>        -0.0424
     29 O4          6.3024    6.9947   -0.7728 O.3       1 <0>        -0.4999
     30 O5          7.8133    3.8585    2.4614 O.3       1 <0>        -0.4665
     31 H3          6.8128   -0.8151    5.7159 H         1 <0>         0.1242
     32 H4          5.0728   -0.4438    5.9634 H         1 <0>         0.1169
     33 H5          6.3184    0.3856    6.9571 H         1 <0>         0.1225
     34 H6          6.6809   -0.3050    3.4243 H         1 <0>         0.1308
     35 H7          4.9438    0.1448    3.5072 H         1 <0>         0.1211
     36 H8          7.2477    1.9910    2.6662 H         1 <0>         0.1216
     37 H9          6.0450    1.2349    1.5669 H         1 <0>         0.1057
     38 H10         4.1951    1.7434    5.1512 H         1 <0>         0.1298
     39 H11         5.3771    2.4772    6.2874 H         1 <0>         0.1312
     40 H12         7.0946    4.1958    5.4007 H         1 <0>         0.4106
     41 H13         8.0758    5.8030    0.7365 H         1 <0>         0.1471
     42 H14         1.4871    5.8659   -0.8759 H         1 <0>         0.1670
     43 H15         1.4839    1.8757    0.5352 H         1 <0>         0.1384
     44 H16        -0.7625    0.9385    0.8812 H         1 <0>         0.1407
     45 H17        -2.6721    2.4298    1.3071 H         1 <0>         0.1438
     46 H18        -2.3456    4.8651    1.4082 H         1 <0>         0.1476
     47 H19         5.4855    7.4321   -1.3656 H         1 <0>         0.4556
     48 H20         8.8375    4.2431    2.3473 H         1 <0>         0.4397
     49 H21         7.1882    1.4744    5.0059 H         1 <0>         0.4481
@<TRIPOS>BOND
     1    1    2 1
     2    1   31 1
     3    1   32 1
     4    1   33 1
     5    2    9 1
     6    2    3 1
     7    2   49 1
     8    3    4 1
     9    3   34 1
    10    3   35 1
    11    4    5 1
    12    4   36 1
    13    4   37 1
    14    5    6 1
    15    5    7 1
    16    5   11 1
    17    7    8 1
    18    7    9 1
    19    7   10 1
    20    9   38 1
    21    9   39 1
    22   10   40 1
    23   11   16 ar
    24   11   12 ar
    25   12   13 ar
    26   12   30 1
    27   13   14 ar
    28   13   41 1
    29   14   15 ar
    30   14   29 1
    31   15   20 1
    32   15   16 ar
    33   16   17 1
    34   17   18 1
    35   18   19 2
    36   18   22 1
    37   19   20 1
    38   19   42 1
    39   20   21 2
    40   22   27 ar
    41   22   23 ar
    42   23   24 ar
    43   23   43 1
    44   24   25 ar
    45   24   44 1
    46   25   26 ar
    47   25   45 1
    48   26   27 ar
    49   26   46 1
    50   27   28 1
    51   29   47 1
    52   30   48 1
@<TRIPOS>MOLECULE
ZINC01626613
   31    34     0     0     0
SMALL
USER_CHARGES
BLAHone
@<TRIPOS>ATOM
      1 C1          6.4967   -0.9421   -0.8454 C.ar      1 <0>        -0.1467
      2 C2          5.9357   -1.9084   -0.0262 C.ar      1 <0>        -0.0933
      3 C3          4.6611   -1.7834    0.4998 C.ar      1 <0>        -0.1325
      4 C4          3.9522   -0.6302    0.1700 C.ar      1 <0>         0.1086
      5 C5          4.5327    0.3577   -0.6680 C.ar      1 <0>        -0.0995
      6 C6          5.8231    0.2043   -1.1875 C.ar      1 <0>        -0.0629
      7 C7          3.5439    1.4059   -0.7996 C.2       1 <0>        -0.1530
      8 C8          2.4518    1.0187   -0.0942 C.2       1 <0>         0.1194
      9 N1          2.7010   -0.1993    0.5073 N.pl3     1 <0>        -0.5819
     10 H1          2.0818   -0.6759    1.0820 H         1 <0>         0.4182
     11 C9          1.1918    1.7883    0.0003 C.ar      1 <0>        -0.0549
     12 C10        -0.0126    1.0758    0.0080 C.ar      1 <0>        -0.0862
     13 C11        -1.2168    1.7447    0.0173 C.ar      1 <0>        -0.1257
     14 C12        -1.2361    3.1290    0.0278 C.ar      1 <0>        -0.0855
     15 C13        -0.0569    3.8412    0.0344 C.ar      1 <0>        -0.1399
     16 C14         1.1754    3.1828    0.0363 C.ar      1 <0>         0.1769
     17 N2          2.3138    3.9654    0.0978 N.am      1 <0>        -0.6637
     18 C15         3.4550    3.8280   -0.5739 C.2       1 <0>         0.5313
     19 O1          4.3479    4.6280   -0.3902 O.2       1 <0>        -0.5257
     20 C16         3.6669    2.7041   -1.5578 C.3       1 <0>        -0.0619
     21 H2          7.4953   -1.0956   -1.2270 H         1 <0>         0.1217
     22 H3          6.5128   -2.7903    0.2100 H         1 <0>         0.1238
     23 H4          4.2357   -2.5451    1.1365 H         1 <0>         0.1299
     24 H5          6.2679    0.9522   -1.8272 H         1 <0>         0.1326
     25 H6          0.0021   -0.0041    0.0020 H         1 <0>         0.1269
     26 H7         -2.1438    1.1905    0.0202 H         1 <0>         0.1328
     27 H8         -2.1804    3.6532    0.0267 H         1 <0>         0.1339
     28 H9         -0.0853    4.9209    0.0378 H         1 <0>         0.1350
     29 H10         2.2759    4.7145    0.7129 H         1 <0>         0.4055
     30 H11         2.9087    2.7491   -2.3397 H         1 <0>         0.1027
     31 H12         4.6598    2.7824   -2.0006 H         1 <0>         0.1141
@<TRIPOS>BOND
     1    1    6 ar
     2    1    2 ar
     3    1   21 1
     4    2    3 ar
     5    2   22 1
     6    3    4 ar
     7    3   23 1
     8    4    9 1
     9    4    5 ar
    10    5    6 ar
    11    5    7 1
    12    6   24 1
    13    7   20 1
    14    7    8 2
    15    8    9 1
    16    8   11 1
    17    9   10 1
    18   11   16 ar
    19   11   12 ar
    20   12   13 ar
    21   12   25 1
    22   13   14 ar
    23   13   26 1
    24   14   15 ar
    25   14   27 1
    26   15   16 ar
    27   15   28 1
    28   16   17 1
    29   17   18 am
    30   17   29 1
    31   18   19 2
    32   18   20 1
    33   20   30 1
    34   20   31 1
@<TRIPOS>MOLECULE
ZINC40442496
   48    50     0     0     0
SMALL
USER_CHARGES

@<TRIPOS>ATOM
      1 C1         -0.3035    1.5916   -0.2006 C.3       1 <0>        -0.1416
      2 C2         -0.2204    0.0919   -0.0785 C.cat     1 <0>         0.3300
      3 N1         -0.3374   -0.7570   -1.0651 N.pl3     1 <0>        -0.4778
      4 C3         -0.2111   -2.0037   -0.6007 C.2       1 <0>         0.0663
      5 C4         -0.0049   -1.9296    0.7438 C.2       1 <0>         0.0809
      6 N2         -0.0076   -0.5897    1.0654 N.pl3     1 <0>        -0.3913
      7 C5          0.1821   -0.0142    2.3992 C.3       1 <0>         0.1097
      8 C6          1.6270   -0.2375    2.8502 C.3       1 <0>        -0.1881
      9 C7         -0.1118    1.4866    2.3536 C.3       1 <0>        -0.1960
     10 C8          0.1887   -3.0612    1.6722 C.ar      1 <0>         0.2671
     11 C9          0.2594   -2.8438    3.0541 C.ar      1 <0>        -0.2822
     12 C10         0.4409   -3.9342    3.8831 C.ar      1 <0>         0.2146
     13 N3          0.5419   -5.1434    3.3517 N.ar      1 <0>        -0.5353
     14 C11         0.4716   -5.3214    2.0403 C.ar      1 <0>         0.5804
     15 N4          0.2934   -4.3070    1.2090 N.ar      1 <0>        -0.5453
     16 N5          0.5825   -6.6032    1.5266 N.pl3     1 <0>        -0.6309
     17 C12         0.6504   -7.6995    2.3916 C.ar      1 <0>         0.2074
     18 C13        -0.0655   -7.6924    3.5819 C.ar      1 <0>        -0.1347
     19 C14         0.0033   -8.7771    4.4338 C.ar      1 <0>        -0.0015
     20 C15         0.7838   -9.8697    4.1029 C.ar      1 <0>        -0.6719
     21 C16         1.4982   -9.8799    2.9189 C.ar      1 <0>         0.0016
     22 C17         1.4292   -8.8007    2.0598 C.ar      1 <0>        -0.1622
     23 S1          0.8688  -11.2516    5.1927 S.o2      1 <0>         2.5006
     24 O1          2.1265  -11.8532    4.9180 O.2       1 <0>        -0.9349
     25 O2          0.5870  -10.7171    6.4788 O.2       1 <0>        -0.9353
     26 C18        -0.4767  -12.3467    4.6627 C.3       1 <0>        -0.6502
     27 H1          0.7025    2.0103   -0.2277 H         1 <0>         0.1256
     28 H2         -0.8306    1.8528   -1.1182 H         1 <0>         0.1149
     29 H3         -0.8426    1.9966    0.6559 H         1 <0>         0.1416
     30 H4         -0.2638   -2.9091   -1.1870 H         1 <0>         0.2326
     31 H5         -0.4967   -0.4961    3.1028 H         1 <0>         0.1326
     32 H6          1.7910    0.2622    3.8049 H         1 <0>         0.1069
     33 H7          1.8115   -1.3058    2.9628 H         1 <0>         0.0828
     34 H8          2.3079    0.1722    2.1040 H         1 <0>         0.0772
     35 H9         -1.1588    1.6441    2.0945 H         1 <0>         0.0864
     36 H10         0.0910    1.9264    3.3301 H         1 <0>         0.1082
     37 H11         0.5231    1.9586    1.6037 H         1 <0>         0.0925
     38 H12         0.1744   -1.8474    3.4620 H         1 <0>         0.1599
     39 H13         0.5001   -3.8020    4.9534 H         1 <0>         0.1876
     40 H14         0.6132   -6.7400    0.5668 H         1 <0>         0.4306
     41 H15        -0.6750   -6.8393    3.8410 H         1 <0>         0.1402
     42 H16        -0.5528   -8.7720    5.3596 H         1 <0>         0.1481
     43 H17         2.1074  -10.7344    2.6638 H         1 <0>         0.1503
     44 H18         1.9839   -8.8112    1.1331 H         1 <0>         0.1381
     45 H19        -0.3183  -12.6411    3.6252 H         1 <0>         0.1318
     46 H20        -0.4922  -13.2351    5.2941 H         1 <0>         0.1354
     47 H21        -1.4281  -11.8221    4.7503 H         1 <0>         0.1313
     48 H22        -0.4926   -0.5188   -1.9925 H         1 <0>         0.4663
@<TRIPOS>BOND
     1    1    2 1
     2    1   27 1
     3    1   28 1
     4    1   29 1
     5    2    6 1
     6    2    3 2
     7    3    4 1
     8    3   48 1
     9    4    5 2
    10    4   30 1
    11    5    6 1
    12    5   10 1
    13    6    7 1
    14    7    8 1
    15    7    9 1
    16    7   31 1
    17    8   32 1
    18    8   33 1
    19    8   34 1
    20    9   35 1
    21    9   36 1
    22    9   37 1
    23   10   15 ar
    24   10   11 ar
    25   11   12 ar
    26   11   38 1
    27   12   13 ar
    28   12   39 1
    29   13   14 ar
    30   14   15 ar
    31   14   16 1
    32   16   17 1
    33   16   40 1
    34   17   22 ar
    35   17   18 ar
    36   18   19 ar
    37   18   41 1
    38   19   20 ar
    39   19   42 1
    40   20   21 ar
    41   20   23 1
    42   21   22 ar
    43   21   43 1
    44   22   44 1
    45   23   24 2
    46   23   25 2
    47   23   26 1
    48   26   45 1
    49   26   46 1
    50   26   47 1
@<TRIPOS>MOLECULE
ZINC40442496
   47    49     0     0     0
SMALL
USER_CHARGES

@<TRIPOS>ATOM
      1 C1         -0.3035    1.5916   -0.2007 C.3       1 <0>        -0.0993
      2 C2         -0.2204    0.0919   -0.0786 C.2       1 <0>         0.2415
      3 N1         -0.3374   -0.7571   -1.0652 N.2       1 <0>        -0.4953
      4 C3         -0.2111   -2.0037   -0.6007 C.2       1 <0>         0.0612
      5 C4         -0.0049   -1.9296    0.7438 C.2       1 <0>        -0.0230
      6 N2         -0.0076   -0.5897    1.0654 N.pl3     1 <0>        -0.4384
      7 C5          0.1821   -0.0141    2.3992 C.3       1 <0>         0.1185
      8 C6          1.6270   -0.2374    2.8501 C.3       1 <0>        -0.1794
      9 C7         -0.1118    1.4867    2.3535 C.3       1 <0>        -0.1818
     10 C8          0.1887   -3.0611    1.6722 C.ar      1 <0>         0.3085
     11 C9          0.2594   -2.8437    3.0541 C.ar      1 <0>        -0.2980
     12 C10         0.4409   -3.9342    3.8831 C.ar      1 <0>         0.1981
     13 N3          0.5419   -5.1433    3.3517 N.ar      1 <0>        -0.5589
     14 C11         0.4716   -5.3213    2.0404 C.ar      1 <0>         0.5685
     15 N4          0.2934   -4.3069    1.2091 N.ar      1 <0>        -0.5508
     16 N5          0.5826   -6.6032    1.5267 N.pl3     1 <0>        -0.6389
     17 C12         0.6504   -7.6995    2.3917 C.ar      1 <0>         0.2254
     18 C13        -0.0655   -7.6923    3.5819 C.ar      1 <0>        -0.1369
     19 C14         0.0033   -8.7771    4.4339 C.ar      1 <0>        -0.0022
     20 C15         0.7838   -9.8696    4.1031 C.ar      1 <0>        -0.6810
     21 C16         1.4982   -9.8798    2.9190 C.ar      1 <0>         0.0006
     22 C17         1.4292   -8.8007    2.0599 C.ar      1 <0>        -0.1700
     23 S1          0.8688  -11.2515    5.1929 S.o2      1 <0>         2.5030
     24 O1          2.1265  -11.8531    4.9182 O.2       1 <0>        -0.9392
     25 O2          0.5870  -10.7169    6.4790 O.2       1 <0>        -0.9387
     26 C18        -0.4767  -12.3467    4.6629 C.3       1 <0>        -0.6514
     27 H1          0.7025    2.0103   -0.2277 H         1 <0>         0.0847
     28 H2         -0.8306    1.8528   -1.1183 H         1 <0>         0.0907
     29 H3         -0.8426    1.9966    0.6558 H         1 <0>         0.1023
     30 H4         -0.2638   -2.9092   -1.1870 H         1 <0>         0.1812
     31 H5         -0.4967   -0.4961    3.1028 H         1 <0>         0.1018
     32 H6          2.3079    0.1722    2.1040 H         1 <0>         0.0682
     33 H7          1.7910    0.2623    3.8049 H         1 <0>         0.0841
     34 H8          1.8115   -1.3058    2.9627 H         1 <0>         0.0738
     35 H9         -1.1588    1.6442    2.0944 H         1 <0>         0.0773
     36 H10         0.0910    1.9265    3.3300 H         1 <0>         0.0837
     37 H11         0.5230    1.9586    1.6036 H         1 <0>         0.0871
     38 H12         0.1744   -1.8473    3.4620 H         1 <0>         0.1560
     39 H13         0.5001   -3.8019    4.9534 H         1 <0>         0.1754
     40 H14         0.6132   -6.7400    0.5669 H         1 <0>         0.4284
     41 H15        -0.6750   -6.8392    3.8411 H         1 <0>         0.1418
     42 H16        -0.5528   -8.7720    5.3597 H         1 <0>         0.1445
     43 H17         2.1074  -10.7343    2.6639 H         1 <0>         0.1463
     44 H18         1.9839   -8.8112    1.1333 H         1 <0>         0.1364
     45 H19        -0.3183  -12.6410    3.6254 H         1 <0>         0.1311
     46 H20        -0.4922  -13.2350    5.2943 H         1 <0>         0.1322
     47 H21        -1.4281  -11.8220    4.7505 H         1 <0>         0.1310
@<TRIPOS>BOND
     1    1    2 1
     2    1   27 1
     3    1   28 1
     4    1   29 1
     5    2    6 1
     6    2    3 2
     7    3    4 1
     8    4    5 2
     9    4   30 1
    10    5    6 1
    11    5   10 1
    12    6    7 1
    13    7    8 1
    14    7    9 1
    15    7   31 1
    16    8   32 1
    17    8   33 1
    18    8   34 1
    19    9   35 1
    20    9   36 1
    21    9   37 1
    22   10   15 ar
    23   10   11 ar
    24   11   12 ar
    25   11   38 1
    26   12   13 ar
    27   12   39 1
    28   13   14 ar
    29   14   15 ar
    30   14   16 1
    31   16   17 1
    32   16   40 1
    33   17   22 ar
    34   17   18 ar
    35   18   19 ar
    36   18   41 1
    37   19   20 ar
    38   19   42 1
    39   20   21 ar
    40   20   23 1
    41   21   22 ar
    42   21   43 1
    43   22   44 1
    44   23   24 2
    45   23   25 2
    46   23   26 1
    47   26   45 1
    48   26   46 1
    49   26   47 1
@<TRIPOS>MOLECULE
ZINC03973984
   56    61     0     0     0
SMALL
USER_CHARGES

@<TRIPOS>ATOM
      1 C1          2.5035    5.2044    5.2747 C.3       1 <0>        -0.0407
      2 C2          2.1460    2.8917    5.8982 C.3       1 <0>         0.0002
      3 C3          2.5994    1.4554    5.6263 C.3       1 <0>         0.0414
      4 N1          2.3296    1.1169    4.2220 N.pl3     1 <0>        -0.4613
      5 C4          3.0395    2.0315    3.3170 C.3       1 <0>         0.0369
      6 C5          2.5862    3.4678    3.5888 C.3       1 <0>         0.0039
      7 C6          2.6615   -0.1998    3.9568 C.ar      1 <0>         0.4871
      8 N2          3.1470   -0.9308    4.9409 N.ar      1 <0>        -0.5353
      9 C7          3.4872   -2.2119    4.7478 C.ar      1 <0>         0.1825
     10 C8          4.0048   -3.0092    5.7783 C.ar      1 <0>        -0.1065
     11 C9          4.3334   -4.3076    5.5235 C.ar      1 <0>        -0.0656
     12 C10         4.1631   -4.8562    4.2555 C.ar      1 <0>        -0.1085
     13 C11         3.6617   -4.1078    3.2298 C.ar      1 <0>        -0.0669
     14 C12         3.3105   -2.7758    3.4594 C.ar      1 <0>        -0.1492
     15 C13         2.7731   -1.9159    2.4035 C.ar      1 <0>         0.3236
     16 N3          2.4744   -0.6585    2.7252 N.ar      1 <0>        -0.4991
     17 C14         2.5650   -2.4238    1.0387 C.2       1 <0>        -0.1201
     18 C15         3.1800   -1.9689   -0.1276 C.2       1 <0>         0.0533
     19 C16         2.6362   -2.8084   -1.2276 C.2       1 <0>         0.5500
     20 O1          2.9328   -2.7204   -2.4013 O.2       1 <0>        -0.4227
     21 N4          1.7605   -3.6814   -0.7012 N.am      1 <0>        -0.6820
     22 C17         1.6634   -3.5132    0.6279 C.2       1 <0>         0.5700
     23 O2          0.9508   -4.1587    1.3715 O.2       1 <0>        -0.4396
     24 C18         4.1628   -0.8913   -0.2438 C.2       1 <0>        -0.1709
     25 C19         5.4966   -0.9402    0.1201 C.2       1 <0>         0.1080
     26 N5          6.0779    0.2476   -0.1381 N.pl3     1 <0>        -0.5732
     27 H1          7.0102    0.4541    0.0329 H         1 <0>         0.4235
     28 C20         5.1647    1.1307   -0.6801 C.ar      1 <0>         0.0844
     29 C21         3.9309    0.4665   -0.7721 C.ar      1 <0>        -0.0602
     30 C22         2.8189    1.1254   -1.2880 C.ar      1 <0>        -0.0732
     31 C23         2.9346    2.4335   -1.7084 C.ar      1 <0>        -0.1312
     32 C24         4.1518    3.0912   -1.6184 C.ar      1 <0>        -0.0989
     33 C25         5.2601    2.4513   -1.1048 C.ar      1 <0>        -0.1234
     34 H2          2.7756    5.4479    6.3018 H         1 <0>         0.1235
     35 H3          3.0428    5.8598    4.5909 H         1 <0>         0.1231
     36 H4          1.4307    5.3427    5.1405 H         1 <0>         0.1252
     37 H5          1.0724    2.9725    5.7281 H         1 <0>         0.1413
     38 H6          2.3713    3.1547    6.9317 H         1 <0>         0.1414
     39 H7          2.0529    0.7723    6.2765 H         1 <0>         0.1348
     40 H8          3.6680    1.3677    5.8227 H         1 <0>         0.0783
     41 H9          4.1131    1.9507    3.4870 H         1 <0>         0.0667
     42 H10         2.8139    1.7684    2.2835 H         1 <0>         0.1408
     43 H11         1.5175    3.5551    3.3925 H         1 <0>         0.1441
     44 H12         3.1327    4.1509    2.9386 H         1 <0>         0.1409
     45 H13         4.1420   -2.5977    6.7674 H         1 <0>         0.1438
     46 H14         4.7321   -4.9205    6.3183 H         1 <0>         0.1425
     47 H15         4.4315   -5.8876    4.0807 H         1 <0>         0.1407
     48 H16         3.5332   -4.5436    2.2500 H         1 <0>         0.1310
     49 H17         1.2665   -4.3425   -1.2110 H         1 <0>         0.4382
     50 H18         5.9953   -1.7986    0.5453 H         1 <0>         0.1795
     51 H19         1.8699    0.6147   -1.3585 H         1 <0>         0.1217
     52 H20         2.0736    2.9480   -2.1089 H         1 <0>         0.1281
     53 H21         4.2319    4.1158   -1.9504 H         1 <0>         0.1296
     54 H22         6.2033    2.9732   -1.0392 H         1 <0>         0.1233
     55 N6          2.8834    3.8027    4.9973 N.4       1 <0>        -0.4016
     56 H23         3.8908    3.6913    5.1615 H         1 <0>         0.4268
@<TRIPOS>BOND
     1    1   34 1
     2    1   35 1
     3    1   36 1
     4    1   55 1
     5    2    3 1
     6    2   37 1
     7    2   38 1
     8    2   55 1
     9    3    4 1
    10    3   39 1
    11    3   40 1
    12    4    5 1
    13    4    7 1
    14    5    6 1
    15    5   41 1
    16    5   42 1
    17    6   43 1
    18    6   44 1
    19    6   55 1
    20    7   16 ar
    21    7    8 ar
    22    8    9 ar
    23    9   14 ar
    24    9   10 ar
    25   10   11 ar
    26   10   45 1
    27   11   12 ar
    28   11   46 1
    29   12   13 ar
    30   12   47 1
    31   13   14 ar
    32   13   48 1
    33   14   15 ar
    34   15   16 ar
    35   15   17 1
    36   17   22 1
    37   17   18 2
    38   18   19 1
    39   18   24 1
    40   19   20 2
    41   19   21 am
    42   21   22 am
    43   21   49 1
    44   22   23 2
    45   24   29 1
    46   24   25 2
    47   25   26 1
    48   25   50 1
    49   26   27 1
    50   26   28 1
    51   28   33 ar
    52   28   29 ar
    53   29   30 ar
    54   30   31 ar
    55   30   51 1
    56   31   32 ar
    57   31   52 1
    58   32   33 ar
    59   32   53 1
    60   33   54 1
    61   55   56 1
@<TRIPOS>MOLECULE
ZINC02540737
   37    39     0     0     0
SMALL
USER_CHARGES

@<TRIPOS>ATOM
      1 C1          1.8081   -4.6616   -0.1863 C.3       1 <0>        -0.1532
      2 C2          0.9947   -3.3694   -0.0888 C.3       1 <0>        -0.1238
      3 C3         -0.4979   -3.7054   -0.0851 C.3       1 <0>        -0.1108
      4 C4         -1.3114   -2.4133    0.0123 C.3       1 <0>        -0.0498
      5 C5         -2.7792   -2.7336   -0.1052 C.2       1 <0>        -0.1230
      6 C6         -3.6798   -2.9315    0.9703 C.ar      1 <0>         0.0614
      7 C7         -4.9420   -3.2065    0.4005 C.ar      1 <0>         0.2369
      8 N1         -4.7889   -3.1715   -0.9660 N.pl3     1 <0>        -0.5623
      9 H1         -5.4920   -3.3243   -1.6165 H         1 <0>         0.4248
     10 C8         -3.4763   -2.8785   -1.2598 C.2       1 <0>         0.1482
     11 C9         -2.9137   -2.7464   -2.6203 C.ar      1 <0>        -0.0487
     12 C10        -2.1113   -1.6503   -2.9425 C.ar      1 <0>        -0.0701
     13 C11        -1.5883   -1.5309   -4.2122 C.ar      1 <0>        -0.1417
     14 C12        -1.8588   -2.4990   -5.1705 C.ar      1 <0>         0.1212
     15 C13        -2.6570   -3.5907   -4.8541 C.ar      1 <0>        -0.1426
     16 C14        -3.1787   -3.7204   -3.5849 C.ar      1 <0>        -0.0837
     17 O1         -1.3418   -2.3776   -6.4209 O.3       1 <0>        -0.4984
     18 N2         -5.9810   -3.4342    1.1913 N.ar      1 <0>        -0.4505
     19 C15        -5.8299   -3.4027    2.5029 C.ar      1 <0>         0.0851
     20 C16        -4.5912   -3.1329    3.0645 C.ar      1 <0>         0.0409
     21 N3         -3.5445   -2.9034    2.2954 N.ar      1 <0>        -0.4011
     22 H2          2.8715   -4.4222   -0.1889 H         1 <0>         0.0536
     23 H3          1.5814   -5.2990    0.6683 H         1 <0>         0.0533
     24 H4          1.5511   -5.1841   -1.1077 H         1 <0>         0.0520
     25 H5          1.2518   -2.8468    0.8325 H         1 <0>         0.0628
     26 H6          1.2215   -2.7320   -0.9435 H         1 <0>         0.0607
     27 H7         -0.7550   -4.2280   -1.0065 H         1 <0>         0.0595
     28 H8         -0.7247   -4.3429    0.7695 H         1 <0>         0.0621
     29 H9         -1.1197   -1.9348    0.9728 H         1 <0>         0.0793
     30 H10        -1.0209   -1.7394   -0.7936 H         1 <0>         0.0738
     31 H11        -1.9010   -0.8967   -2.1981 H         1 <0>         0.1370
     32 H12        -0.9674   -0.6833   -4.4622 H         1 <0>         0.1370
     33 H13        -2.8654   -4.3412   -5.6021 H         1 <0>         0.1349
     34 H14        -3.7953   -4.5721   -3.3382 H         1 <0>         0.1284
     35 H15        -0.4754   -2.7929   -6.5303 H         1 <0>         0.3956
     36 H16        -6.6791   -3.5885    3.1439 H         1 <0>         0.1767
     37 H17        -4.4828   -3.1100    4.1388 H         1 <0>         0.1746
@<TRIPOS>BOND
     1    1    2 1
     2    1   22 1
     3    1   23 1
     4    1   24 1
     5    2    3 1
     6    2   25 1
     7    2   26 1
     8    3    4 1
     9    3   27 1
    10    3   28 1
    11    4    5 1
    12    4   29 1
    13    4   30 1
    14    5   10 2
    15    5    6 1
    16    6   21 ar
    17    6    7 ar
    18    7    8 1
    19    7   18 ar
    20    8    9 1
    21    8   10 1
    22   10   11 1
    23   11   16 ar
    24   11   12 ar
    25   12   13 ar
    26   12   31 1
    27   13   14 ar
    28   13   32 1
    29   14   15 ar
    30   14   17 1
    31   15   16 ar
    32   15   33 1
    33   16   34 1
    34   17   35 1
    35   18   19 ar
    36   19   20 ar
    37   19   36 1
    38   20   21 ar
    39   20   37 1
