@<TRIPOS>MOLECULE
ZINC01493890
   37    40     0     0     0
SMALL
USER_CHARGES

@<TRIPOS>ATOM
      1 C1         -0.0178    1.4608    0.0101 C.3       1 <0>         0.0734
      2 N1          0.0021   -0.0041    0.0020 N.pl3     1 <0>        -0.4737
      3 C2          0.0078   -0.7727   -1.1169 C.2       1 <0>         0.1075
      4 C3          0.0281   -2.0944   -0.7674 C.2       1 <0>        -0.1579
      5 C4          0.0354   -2.1366    0.7062 C.ar      1 <0>        -0.0717
      6 C5          0.0236   -0.7978    1.1309 C.ar      1 <0>         0.0936
      7 C6          0.0319   -0.5143    2.4922 C.ar      1 <0>        -0.1217
      8 C7          0.0548   -1.5434    3.4092 C.ar      1 <0>        -0.0984
      9 C8          0.0696   -2.8648    2.9882 C.ar      1 <0>        -0.1347
     10 C9          0.0537   -3.1664    1.6433 C.ar      1 <0>        -0.0758
     11 C10         0.0395   -3.2453   -1.6802 C.2       1 <0>         0.0076
     12 C11         1.1151   -3.7103   -2.4252 C.2       1 <0>        -0.0960
     13 C12         0.6209   -4.8797   -3.1750 C.2       1 <0>         0.5637
     14 O1          1.2771   -5.5582   -3.9404 O.2       1 <0>        -0.4429
     15 N2         -0.6738   -5.0723   -2.8722 N.am      1 <0>        -0.6877
     16 C13        -1.0937   -4.1509   -1.9885 C.2       1 <0>         0.5544
     17 O2         -2.2127   -4.0711   -1.5240 O.2       1 <0>        -0.4382
     18 C14         2.4796   -3.1466   -2.4599 C.ar      1 <0>        -0.0170
     19 C15         3.3545   -3.3599   -1.3914 C.ar      1 <0>        -0.0612
     20 C16         4.6271   -2.8314   -1.4301 C.ar      1 <0>        -0.1027
     21 C17         5.0400   -2.0893   -2.5251 C.ar      1 <0>        -0.0144
     22 C18         4.1789   -1.8735   -3.5878 C.ar      1 <0>        -0.1022
     23 C19         2.9039   -2.4018   -3.5647 C.ar      1 <0>        -0.0020
     24 Cl1         1.8274   -2.1362   -4.9005 Cl        1 <0>        -0.0460
     25 Cl2         6.6441   -1.4267   -2.5645 Cl        1 <0>        -0.0499
     26 H1          1.0048    1.8381    0.0023 H         1 <0>         0.0752
     27 H2         -0.5450    1.8219   -0.8730 H         1 <0>         0.0873
     28 H3         -0.5280    1.8123    0.9069 H         1 <0>         0.0858
     29 H4         -0.0026   -0.3972   -2.1295 H         1 <0>         0.1749
     30 H5          0.0209    0.5112    2.8309 H         1 <0>         0.1213
     31 H6          0.0616   -1.3185    4.4655 H         1 <0>         0.1280
     32 H7          0.0879   -3.6611    3.7175 H         1 <0>         0.1260
     33 H8          0.0668   -4.1961    1.3179 H         1 <0>         0.1197
     34 H9         -1.2273   -5.7803   -3.2375 H         1 <0>         0.4319
     35 H10         3.0343   -3.9374   -0.5368 H         1 <0>         0.1466
     36 H11         5.3039   -2.9958   -0.6047 H         1 <0>         0.1469
     37 H12         4.5068   -1.2939   -4.4381 H         1 <0>         0.1501
@<TRIPOS>BOND
     1    1    2 1
     2    1   26 1
     3    1   27 1
     4    1   28 1
     5    2    6 1
     6    2    3 1
     7    3    4 2
     8    3   29 1
     9    4    5 1
    10    4   11 1
    11    5   10 ar
    12    5    6 ar
    13    6    7 ar
    14    7    8 ar
    15    7   30 1
    16    8    9 ar
    17    8   31 1
    18    9   10 ar
    19    9   32 1
    20   10   33 1
    21   11   16 1
    22   11   12 2
    23   12   13 1
    24   12   18 1
    25   13   14 2
    26   13   15 am
    27   15   16 am
    28   15   34 1
    29   16   17 2
    30   18   23 ar
    31   18   19 ar
    32   19   20 ar
    33   19   35 1
    34   20   21 ar
    35   20   36 1
    36   21   22 ar
    37   21   25 1
    38   22   23 ar
    39   22   37 1
    40   23   24 1
@<TRIPOS>MOLECULE
ZINC44136098
   50    53     0     0     0
SMALL
USER_CHARGES

@<TRIPOS>ATOM
      1 C1         -0.2091    0.5158    0.9417 C.ar      1 <0>        -0.1104
      2 C2          1.0375    1.1055    0.9791 C.ar      1 <0>        -0.0063
      3 C3          1.4681    1.8891   -0.0913 C.ar      1 <0>        -0.0306
      4 C4          0.6336    2.0719   -1.1958 C.ar      1 <0>         0.0152
      5 C5         -0.6119    1.4766   -1.2220 C.ar      1 <0>        -0.1149
      6 C6         -1.0331    0.7001   -0.1559 C.ar      1 <0>        -0.0042
      7 Cl1        -2.6001   -0.0459   -0.1955 Cl        1 <0>        -0.0575
      8 Cl2         1.1606    3.0459   -2.5327 Cl        1 <0>        -0.0503
      9 C7          2.8047    2.5249   -0.0564 C.ar      1 <0>         0.3017
     10 C8          3.9688    1.7418    0.0894 C.ar      1 <0>        -0.1664
     11 C9          5.2042    2.3949    0.1154 C.ar      1 <0>         0.2094
     12 N1          5.2379    3.7111    0.0036 N.ar      1 <0>        -0.5578
     13 C10         4.1233    4.4165   -0.1322 C.ar      1 <0>         0.5766
     14 N2          2.9299    3.8443   -0.1676 N.ar      1 <0>        -0.5385
     15 N3          4.2105    5.7921   -0.2451 N.pl3     1 <0>        -0.6907
     16 C11         5.5200    6.4481   -0.2138 C.3       1 <0>         0.1271
     17 C12         5.3365    7.9603   -0.3567 C.3       1 <0>         0.1087
     18 N4          6.6460    8.6163   -0.3255 N.pl3     1 <0>        -0.7021
     19 C13         6.7336    9.9988   -0.4390 C.ar      1 <0>         0.4894
     20 C14         5.5738   10.7526   -0.5761 C.ar      1 <0>        -0.2837
     21 C15         5.6707   12.1298   -0.6881 C.ar      1 <0>         0.0629
     22 C16         6.9283   12.7105   -0.6592 C.ar      1 <0>        -0.2238
     23 C17         8.0480   11.8993   -0.5197 C.ar      1 <0>         0.5165
     24 N5          7.9212   10.5850   -0.4098 N.ar      1 <0>        -0.5877
     25 N6          9.3136   12.4731   -0.4902 N.pl3     1 <0>        -0.8255
     26 N7          7.0776   14.1783   -0.7762 N.pl3     1 <0>         0.0562
     27 O1          6.2781   14.9117   -0.2427 O.2       1 <0>        -0.1530
     28 O2          7.9991   14.6440   -1.4053 O.3       1 <0>        -0.1888
     29 C18         3.8846    0.2727    0.2115 C.2       1 <0>         0.2544
     30 N8          4.9258   -0.5682    0.4793 N.pl3     1 <0>        -0.5651
     31 H1          5.8507   -0.3138    0.6233 H         1 <0>         0.4195
     32 C19         4.4166   -1.8400    0.5058 C.2       1 <0>        -0.0393
     33 C20         3.0953   -1.7418    0.2568 C.2       1 <0>        -0.0208
     34 N9          2.7921   -0.4494    0.0866 N.2       1 <0>        -0.4626
     35 H2         -0.5413   -0.0947    1.7683 H         1 <0>         0.1406
     36 H3          1.6787    0.9611    1.8361 H         1 <0>         0.1326
     37 H4         -1.2587    1.6170   -2.0754 H         1 <0>         0.1449
     38 H5          6.1189    1.8314    0.2259 H         1 <0>         0.1668
     39 H6          3.4046    6.3226   -0.3450 H         1 <0>         0.4197
     40 H7          6.0132    6.2299    0.7334 H         1 <0>         0.0804
     41 H8          6.1320    6.0771   -1.0360 H         1 <0>         0.0801
     42 H9          4.8433    8.1786   -1.3040 H         1 <0>         0.0814
     43 H10         4.7245    8.3314    0.4654 H         1 <0>         0.0819
     44 H11         7.4519    8.0859   -0.2255 H         1 <0>         0.4142
     45 H12         4.6079   10.2698   -0.5955 H         1 <0>         0.1512
     46 H13         4.7848   12.7380   -0.7960 H         1 <0>         0.1576
     47 H14         9.4166   13.4278   -0.6276 H         1 <0>         0.4222
     48 H15        10.0938   11.9188   -0.3322 H         1 <0>         0.4141
     49 H16         4.9693   -2.7492    0.6909 H         1 <0>         0.1812
     50 H17         2.3989   -2.5658    0.2075 H         1 <0>         0.1736
@<TRIPOS>BOND
     1    1    6 ar
     2    1    2 ar
     3    1   35 1
     4    2    3 ar
     5    2   36 1
     6    3    4 ar
     7    3    9 1
     8    4    5 ar
     9    4    8 1
    10    5    6 ar
    11    5   37 1
    12    6    7 1
    13    9   14 ar
    14    9   10 ar
    15   10   11 ar
    16   10   29 1
    17   11   12 ar
    18   11   38 1
    19   12   13 ar
    20   13   14 ar
    21   13   15 1
    22   15   16 1
    23   15   39 1
    24   16   17 1
    25   16   40 1
    26   16   41 1
    27   17   18 1
    28   17   42 1
    29   17   43 1
    30   18   19 1
    31   18   44 1
    32   19   24 ar
    33   19   20 ar
    34   20   21 ar
    35   20   45 1
    36   21   22 ar
    37   21   46 1
    38   22   23 ar
    39   22   26 1
    40   23   24 ar
    41   23   25 1
    42   25   47 1
    43   25   48 1
    44   26   27 2
    45   26   28 1
    46   29   34 2
    47   29   30 1
    48   30   31 1
    49   30   32 1
    50   32   33 2
    51   32   49 1
    52   33   34 1
    53   33   50 1
@<TRIPOS>MOLECULE
ZINC44136098
   51    54     0     0     0
SMALL
USER_CHARGES

@<TRIPOS>ATOM
      1 C1          2.1874   -0.7993   -1.1271 C.ar      1 <0>        -0.1049
      2 C2          3.2997    0.0019   -0.9718 C.ar      1 <0>        -0.0773
      3 C3          3.2672    1.0701   -0.0756 C.ar      1 <0>        -0.0955
      4 C4          2.1073    1.3222    0.6599 C.ar      1 <0>         0.0143
      5 C5          1.0003    0.5135    0.4960 C.ar      1 <0>        -0.1002
      6 C6          1.0395   -0.5452   -0.3953 C.ar      1 <0>         0.0019
      7 Cl1        -0.3561   -1.5578   -0.5969 Cl        1 <0>        -0.0219
      8 Cl2         2.0575    2.6491    1.7782 Cl        1 <0>        -0.0181
      9 C7          4.4580    1.9330    0.0956 C.ar      1 <0>         0.3309
     10 C8          5.7146    1.3702    0.4023 C.ar      1 <0>        -0.2746
     11 C9          6.8045    2.2321    0.5529 C.ar      1 <0>         0.2648
     12 N1          6.6212    3.5320    0.4039 N.ar      1 <0>        -0.5506
     13 C10         5.4253    4.0273    0.1154 C.ar      1 <0>         0.6084
     14 N2          4.3635    3.2523   -0.0425 N.ar      1 <0>        -0.5332
     15 N3          5.2840    5.3950   -0.0302 N.pl3     1 <0>        -0.6653
     16 C11         6.4452    6.2729    0.1342 C.3       1 <0>         0.1159
     17 C12         6.0191    7.7271   -0.0775 C.3       1 <0>         0.1094
     18 N4          7.1803    8.6051    0.0869 N.pl3     1 <0>        -0.7068
     19 C13         7.0383    9.9799   -0.0595 C.ar      1 <0>         0.4879
     20 C14         5.7901   10.5148   -0.3562 C.ar      1 <0>        -0.2865
     21 C15         5.6579   11.8860   -0.4998 C.ar      1 <0>         0.0651
     22 C16         6.7818   12.6807   -0.3416 C.ar      1 <0>        -0.2200
     23 C17         8.0005   12.0823   -0.0454 C.ar      1 <0>         0.5169
     24 N5          8.0928   10.7675    0.0906 N.ar      1 <0>        -0.5864
     25 N6          9.1334   12.8715    0.1146 N.pl3     1 <0>        -0.8224
     26 N7          6.6855   14.1504   -0.4869 N.pl3     1 <0>         0.0537
     27 O1          5.7055   14.7345   -0.0869 O.2       1 <0>        -0.1487
     28 O2          7.5870   14.7669   -1.0055 O.3       1 <0>        -0.1849
     29 C18         5.8740   -0.0892    0.5605 C.cat     1 <0>         0.3950
     30 N8          4.9806   -0.9159    1.1051 N.pl3     1 <0>        -0.4886
     31 H1          4.1162   -0.6627    1.4651 H         1 <0>         0.4601
     32 C19         5.4875   -2.1654    1.0686 C.2       1 <0>         0.0211
     33 C20         6.7056   -2.0947    0.4935 C.2       1 <0>         0.0238
     34 N9          6.9330   -0.8032    0.1775 N.pl3     1 <0>        -0.4884
     35 H2          2.2105   -1.6239   -1.8242 H         1 <0>         0.1564
     36 H3          4.1942   -0.1979   -1.5430 H         1 <0>         0.1437
     37 H4          0.1024    0.7071    1.0640 H         1 <0>         0.1618
     38 H5          7.7832    1.8408    0.7881 H         1 <0>         0.1840
     39 H6          4.4160    5.7732   -0.2411 H         1 <0>         0.4278
     40 H7          6.8501    6.1556    1.1394 H         1 <0>         0.0904
     41 H8          7.2079    6.0076   -0.5980 H         1 <0>         0.0905
     42 H9          5.6143    7.8445   -1.0826 H         1 <0>         0.0829
     43 H10         5.2565    7.9925    0.6547 H         1 <0>         0.0830
     44 H11         8.0483    8.2269    0.2979 H         1 <0>         0.4141
     45 H12         4.9330    9.8683   -0.4738 H         1 <0>         0.1494
     46 H13         4.6991   12.3265   -0.7306 H         1 <0>         0.1591
     47 H14         9.0817   13.8292   -0.0306 H         1 <0>         0.4238
     48 H15         9.9756   12.4646    0.3715 H         1 <0>         0.4150
     49 H16         5.0056   -3.0602    1.4339 H         1 <0>         0.2285
     50 H17         7.3755   -2.9227    0.3146 H         1 <0>         0.2302
     51 H18         7.7297   -0.4541   -0.2518 H         1 <0>         0.4644
@<TRIPOS>BOND
     1    1    6 ar
     2    1    2 ar
     3    1   35 1
     4    2    3 ar
     5    2   36 1
     6    3    4 ar
     7    3    9 1
     8    4    5 ar
     9    4    8 1
    10    5    6 ar
    11    5   37 1
    12    6    7 1
    13    9   14 ar
    14    9   10 ar
    15   10   11 ar
    16   10   29 1
    17   11   12 ar
    18   11   38 1
    19   12   13 ar
    20   13   14 ar
    21   13   15 1
    22   15   16 1
    23   15   39 1
    24   16   17 1
    25   16   40 1
    26   16   41 1
    27   17   18 1
    28   17   42 1
    29   17   43 1
    30   18   19 1
    31   18   44 1
    32   19   24 ar
    33   19   20 ar
    34   20   21 ar
    35   20   45 1
    36   21   22 ar
    37   21   46 1
    38   22   23 ar
    39   22   26 1
    40   23   24 ar
    41   23   25 1
    42   25   47 1
    43   25   48 1
    44   26   27 2
    45   26   28 1
    46   29   34 2
    47   29   30 1
    48   30   31 1
    49   30   32 1
    50   32   33 2
    51   32   49 1
    52   33   34 1
    53   33   50 1
    54   34   51 1
@<TRIPOS>MOLECULE
ZINC12504456
   53    55     0     0     0
SMALL
USER_CHARGES

@<TRIPOS>ATOM
      1 C1         -0.0187    1.5258    0.0104 C.3       1 <0>        -0.1530
      2 C2          0.0021   -0.0041    0.0020 C.3       1 <0>        -0.1278
      3 C3          0.7421   -0.5109    1.2415 C.3       1 <0>         0.1693
      4 H1          1.7350   -0.0630    1.2804 H         1 <0>         0.1025
      5 C4          0.8719   -2.0337    1.1708 C.3       1 <0>         0.0627
      6 O1         -0.4227   -2.6149    1.0028 O.3       1 <0>        -0.5690
      7 N1         -0.0083   -0.1401    2.4439 N.pl3     1 <0>        -0.6822
      8 C5          0.6480   -0.0075    3.6565 C.ar      1 <0>         0.6304
      9 N2          1.9579   -0.2164    3.7024 N.ar      1 <0>        -0.6269
     10 C6          2.6319   -0.1015    4.8410 C.ar      1 <0>         0.5424
     11 C7          1.9280    0.2482    6.0067 C.ar      1 <0>        -0.1553
     12 C8          0.5430    0.4594    5.9101 C.ar      1 <0>         0.3481
     13 N3         -0.0514    0.3282    4.7280 N.ar      1 <0>        -0.6168
     14 N4          0.1199    0.7821    7.1746 N.pl3     1 <0>        -0.4704
     15 C9          1.2142    0.7624    7.9893 C.2       1 <0>         0.2308
     16 N5          2.2736    0.4491    7.3023 N.2       1 <0>        -0.4537
     17 C10        -1.2545    1.0917    7.5763 C.3       1 <0>         0.1345
     18 C11        -1.7141    0.0890    8.6365 C.3       1 <0>        -0.1626
     19 C12        -1.3101    2.5071    8.1548 C.3       1 <0>        -0.1624
     20 N6          3.9973   -0.3216    4.8792 N.pl3     1 <0>        -0.6835
     21 C13         4.7151   -0.6857    3.6551 C.3       1 <0>         0.1803
     22 C14         6.1784   -0.8678    3.9660 C.ar      1 <0>        -0.1412
     23 C15         7.0757    0.1451    3.6870 C.ar      1 <0>        -0.0826
     24 C16         8.4183   -0.0214    3.9716 C.ar      1 <0>        -0.1305
     25 C17         8.8666   -1.2014    4.5364 C.ar      1 <0>        -0.0933
     26 C18         7.9735   -2.2168    4.8176 C.ar      1 <0>        -0.1485
     27 C19         6.6247   -2.0501    4.5378 C.ar      1 <0>         0.1259
     28 O2          5.7431   -3.0455    4.8188 O.3       1 <0>        -0.4924
     29 H2          1.0039    1.9031    0.0027 H         1 <0>         0.0535
     30 H3         -0.5459    1.8868   -0.8726 H         1 <0>         0.0561
     31 H4         -0.5289    1.8773    0.9072 H         1 <0>         0.0554
     32 H5         -1.0205   -0.3814    0.0098 H         1 <0>         0.0768
     33 H6          0.5123   -0.3556   -0.8948 H         1 <0>         0.0771
     34 H7          1.5047   -2.3056    0.3260 H         1 <0>         0.0516
     35 H8          1.3192   -2.4035    2.0935 H         1 <0>         0.0505
     36 H9         -0.4165   -3.5805    0.9499 H         1 <0>         0.3775
     37 H10        -0.9647    0.0126    2.3909 H         1 <0>         0.4143
     38 H11         1.2028    0.9760    9.0479 H         1 <0>         0.2135
     39 H12        -1.9099    1.0282    6.7077 H         1 <0>         0.1060
     40 H13        -1.0587    0.1525    9.5051 H         1 <0>         0.0654
     41 H14        -2.7367    0.3194    8.9354 H         1 <0>         0.0791
     42 H15        -1.6745   -0.9193    8.2244 H         1 <0>         0.0629
     43 H16        -0.6547    2.5706    9.0233 H         1 <0>         0.0653
     44 H17        -0.9827    3.2214    7.3994 H         1 <0>         0.0628
     45 H18        -2.3327    2.7375    8.4536 H         1 <0>         0.0790
     46 H19         4.4793   -0.2349    5.7164 H         1 <0>         0.4197
     47 H20         4.3092   -1.6167    3.2592 H         1 <0>         0.0750
     48 H21         4.5966    0.1059    2.9153 H         1 <0>         0.0762
     49 H22         6.7281    1.0676    3.2460 H         1 <0>         0.1291
     50 H23         9.1182    0.7713    3.7521 H         1 <0>         0.1282
     51 H24         9.9159   -1.3292    4.7575 H         1 <0>         0.1289
     52 H25         8.3241   -3.1382    5.2587 H         1 <0>         0.1307
     53 H26         5.6163   -3.6744    4.0952 H         1 <0>         0.3907
@<TRIPOS>BOND
     1    1    2 1
     2    1   29 1
     3    1   30 1
     4    1   31 1
     5    2    3 1
     6    2   32 1
     7    2   33 1
     8    3    4 1
     9    3    5 1
    10    3    7 1
    11    5    6 1
    12    5   34 1
    13    5   35 1
    14    6   36 1
    15    7    8 1
    16    7   37 1
    17    8   13 ar
    18    8    9 ar
    19    9   10 ar
    20   10   11 ar
    21   10   20 1
    22   11   16 1
    23   11   12 ar
    24   12   13 ar
    25   12   14 1
    26   14   15 1
    27   14   17 1
    28   15   16 2
    29   15   38 1
    30   17   18 1
    31   17   19 1
    32   17   39 1
    33   18   40 1
    34   18   41 1
    35   18   42 1
    36   19   43 1
    37   19   44 1
    38   19   45 1
    39   20   21 1
    40   20   46 1
    41   21   22 1
    42   21   47 1
    43   21   48 1
    44   22   27 ar
    45   22   23 ar
    46   23   24 ar
    47   23   49 1
    48   24   25 ar
    49   24   50 1
    50   25   26 ar
    51   25   51 1
    52   26   27 ar
    53   26   52 1
    54   27   28 1
    55   28   53 1
@<TRIPOS>MOLECULE
ZINC58638454
   36    39     0     0     0
SMALL
USER_CHARGES

@<TRIPOS>ATOM
      1 C1          1.0856   -0.4596    0.7542 C.ar      1 <0>        -0.0832
      2 C2          2.2742    0.2440    0.7408 C.ar      1 <0>        -0.1072
      3 C3          2.3814    1.4102   -0.0062 C.ar      1 <0>         0.1804
      4 C4          1.2919    1.8655   -0.7379 C.ar      1 <0>        -0.1496
      5 C5          0.1054    1.1571   -0.7204 C.ar      1 <0>        -0.0148
      6 C6          0.0026   -0.0047    0.0253 C.ar      1 <0>        -0.1319
      7 Cl1        -1.2573    1.7249   -1.6338 Cl        1 <0>        -0.0755
      8 N1          3.5827    2.1243   -0.0212 N.pl3     1 <0>        -0.6509
      9 C7          4.7876    1.4521    0.0681 C.ar      1 <0>         0.4153
     10 C8          6.0341    2.2096    0.1758 C.ar      1 <0>        -0.0765
     11 C9          6.0766    3.6057    0.1939 C.ar      1 <0>        -0.1369
     12 C10         7.2943    4.2214    0.2981 C.ar      1 <0>         0.0773
     13 N2          8.4194    3.5315    0.3811 N.ar      1 <0>        -0.4714
     14 C11         8.4464    2.2147    0.3695 C.ar      1 <0>         0.1272
     15 C12         7.2551    1.5004    0.2664 C.ar      1 <0>        -0.0441
     16 C13         7.1958    0.0359    0.2463 C.ar      1 <0>        -0.1077
     17 C14         8.3565   -0.7366    0.3320 C.ar      1 <0>        -0.1123
     18 C15         8.2776   -2.0965    0.3119 C.ar      1 <0>        -0.0757
     19 C16         7.0321   -2.7341    0.2047 C.ar      1 <0>        -0.1079
     20 C17         5.8644   -1.9869    0.1182 C.ar      1 <0>        -0.0623
     21 C18         5.9309   -0.5872    0.1382 C.ar      1 <0>         0.1355
     22 N3          4.8025    0.1408    0.0611 N.ar      1 <0>        -0.5111
     23 C19         6.9625   -4.2076    0.1833 C.2       1 <0>         0.5195
     24 O1          7.9882   -4.8693    0.2588 O.co2     1 <0>        -0.6816
     25 O2          5.8791   -4.7673    0.0900 O.co2     1 <0>        -0.6793
     26 H1          1.0036   -1.3687    1.3314 H         1 <0>         0.1366
     27 H2          3.1195   -0.1121    1.3110 H         1 <0>         0.1448
     28 H3          1.3719    2.7720   -1.3194 H         1 <0>         0.1316
     29 H4         -0.9254   -0.5569    0.0374 H         1 <0>         0.1318
     30 H5          3.5711    3.0914   -0.0942 H         1 <0>         0.4165
     31 H6          5.1685    4.1865    0.1268 H         1 <0>         0.1362
     32 H7          7.3377    5.3004    0.3126 H         1 <0>         0.1575
     33 H8          9.3884    1.6910    0.4392 H         1 <0>         0.1690
     34 H9          9.3193   -0.2543    0.4140 H         1 <0>         0.1236
     35 H10         9.1791   -2.6874    0.3786 H         1 <0>         0.1360
     36 H11         4.9085   -2.4828    0.0363 H         1 <0>         0.1412
@<TRIPOS>BOND
     1    1    6 ar
     2    1    2 ar
     3    1   26 1
     4    2    3 ar
     5    2   27 1
     6    3    4 ar
     7    3    8 1
     8    4    5 ar
     9    4   28 1
    10    5    6 ar
    11    5    7 1
    12    6   29 1
    13    8    9 1
    14    8   30 1
    15    9   22 ar
    16    9   10 ar
    17   10   15 ar
    18   10   11 ar
    19   11   12 ar
    20   11   31 1
    21   12   13 ar
    22   12   32 1
    23   13   14 ar
    24   14   15 ar
    25   14   33 1
    26   15   16 ar
    27   16   21 ar
    28   16   17 ar
    29   17   18 ar
    30   17   34 1
    31   18   19 ar
    32   18   35 1
    33   19   20 ar
    34   19   23 1
    35   20   21 ar
    36   20   36 1
    37   21   22 ar
    38   23   24 2
    39   23   25 1
@<TRIPOS>MOLECULE
ZINC18230030
   32    35     0     0     0
SMALL
USER_CHARGES

@<TRIPOS>ATOM
      1 C1         -0.0024    1.3636   -0.3852 C.ar      1 <0>        -0.1425
      2 C2          1.1843    2.0764   -0.3355 C.ar      1 <0>        -0.0866
      3 C3          2.3918    1.4233   -0.1939 C.ar      1 <0>        -0.1380
      4 C4          2.4281    0.0365   -0.0988 C.ar      1 <0>         0.1367
      5 C5          1.2250   -0.6816   -0.1490 C.ar      1 <0>        -0.0800
      6 C6          0.0127   -0.0131   -0.2925 C.ar      1 <0>        -0.0826
      7 C7          1.5867   -2.1097   -0.0238 C.2       1 <0>        -0.2056
      8 C8          0.7284   -3.2007   -0.0213 C.2       1 <0>         0.2986
      9 C9         -0.7457   -3.1540    0.0907 C.2       1 <0>         0.1829
     10 N1         -1.5003   -2.0946    0.2062 N.2       1 <0>        -0.2631
     11 O1         -2.9062   -2.2339    0.3026 O.3       1 <0>        -0.3834
     12 C10        -1.1809   -4.5701    0.0427 C.ar      1 <0>        -0.1642
     13 C11        -2.4307   -5.1782    0.1013 C.ar      1 <0>        -0.0259
     14 C12        -2.5280   -6.5532    0.0311 C.ar      1 <0>        -0.1512
     15 C13        -1.3849   -7.3243   -0.0969 C.ar      1 <0>        -0.0586
     16 C14        -0.1407   -6.7311   -0.1555 C.ar      1 <0>        -0.1447
     17 C15        -0.0228   -5.3458   -0.0871 C.ar      1 <0>         0.1647
     18 N2          1.0909   -4.5168   -0.1279 N.pl3     1 <0>        -0.6175
     19 C16         3.0493   -2.1247    0.0967 C.2       1 <0>         0.5684
     20 O2          3.7472   -3.1157    0.2192 O.2       1 <0>        -0.5230
     21 N3          3.4842   -0.8541    0.0471 N.am      1 <0>        -0.6490
     22 H1         -0.9413    1.8865   -0.4922 H         1 <0>         0.1273
     23 H2          1.1645    3.1537   -0.4088 H         1 <0>         0.1294
     24 H3          3.3103    1.9903   -0.1572 H         1 <0>         0.1266
     25 H4         -0.9122   -0.5695   -0.3311 H         1 <0>         0.1639
     26 H5         -3.3798   -1.3948    0.3850 H         1 <0>         0.4132
     27 H6         -3.3218   -4.5764    0.2018 H         1 <0>         0.1385
     28 H7         -3.4969   -7.0283    0.0763 H         1 <0>         0.1358
     29 H8         -1.4681   -8.3998   -0.1510 H         1 <0>         0.1377
     30 H9          0.7438   -7.3428   -0.2549 H         1 <0>         0.1344
     31 H10         2.0048   -4.8291   -0.2181 H         1 <0>         0.4389
     32 H11         4.4164   -0.5923    0.1057 H         1 <0>         0.4189
@<TRIPOS>BOND
     1    1    6 ar
     2    1    2 ar
     3    1   22 1
     4    2    3 ar
     5    2   23 1
     6    3    4 ar
     7    3   24 1
     8    4   21 1
     9    4    5 ar
    10    5    6 ar
    11    5    7 1
    12    6   25 1
    13    7    8 2
    14    7   19 1
    15    8   18 1
    16    8    9 1
    17    9   10 2
    18    9   12 1
    19   10   11 1
    20   11   26 1
    21   12   17 ar
    22   12   13 ar
    23   13   14 ar
    24   13   27 1
    25   14   15 ar
    26   14   28 1
    27   15   16 ar
    28   15   29 1
    29   16   17 ar
    30   16   30 1
    31   17   18 1
    32   18   31 1
    33   19   20 2
    34   19   21 am
    35   21   32 1
@<TRIPOS>MOLECULE
ZINC18230030
   32    35     0     0     0
SMALL
USER_CHARGES

@<TRIPOS>ATOM
      1 C1         -0.0166    1.3748    0.0096 C.ar      1 <0>        -0.1225
      2 C2          1.1716    2.0888    0.0021 C.ar      1 <0>        -0.0962
      3 C3          2.3849    1.4332   -0.0130 C.ar      1 <0>        -0.1155
      4 C4          2.4239    0.0437   -0.0209 C.ar      1 <0>         0.0981
      5 C5          1.2204   -0.6769   -0.0133 C.ar      1 <0>        -0.0528
      6 C6          0.0021   -0.0041    0.0020 C.ar      1 <0>        -0.0805
      7 C7          1.5974   -2.1049   -0.0246 C.2       1 <0>        -0.2093
      8 C8          2.9936   -2.1364   -0.0381 C.2       1 <0>         0.3333
      9 N1          3.4675   -0.8669   -0.0358 N.pl3     1 <0>        -0.5789
     10 H1          4.4078   -0.6287   -0.0438 H         1 <0>         0.4230
     11 O1          3.7505   -3.2537   -0.0509 O.3       1 <0>        -0.4537
     12 C9          0.7262   -3.2100   -0.0222 C.2       1 <0>         0.3448
     13 C10         0.1967   -3.8930    1.1657 C.2       1 <0>        -0.1671
     14 C11        -0.6625   -4.9778    0.6376 C.ar      1 <0>        -0.0626
     15 C12        -1.4332   -5.9613    1.2492 C.ar      1 <0>        -0.0741
     16 C13        -2.1438   -6.8553    0.4745 C.ar      1 <0>        -0.1171
     17 C14        -2.0895   -6.7734   -0.9072 C.ar      1 <0>        -0.1048
     18 C15        -1.3281   -5.8025   -1.5238 C.ar      1 <0>        -0.1132
     19 C16        -0.6049   -4.8915   -0.7591 C.ar      1 <0>         0.0632
     20 N2          0.2180   -3.8346   -1.1211 N.pl3     1 <0>        -0.5424
     21 H2          0.4086   -3.5762   -2.0364 H         1 <0>         0.4251
     22 N3          0.4346   -3.6041    2.4257 N.2       1 <0>        -0.2807
     23 O2         -0.0801   -4.2653    3.3097 O.2       1 <0>         0.0258
     24 H3         -0.9601    1.9001    0.0260 H         1 <0>         0.1313
     25 H4          1.1469    3.1685    0.0078 H         1 <0>         0.1340
     26 H5          3.3046    1.9993   -0.0191 H         1 <0>         0.1285
     27 H6         -0.9243   -0.5592    0.0083 H         1 <0>         0.1229
     28 H7          3.9627   -3.5749   -0.9380 H         1 <0>         0.4047
     29 H8         -1.4750   -6.0251    2.3265 H         1 <0>         0.1455
     30 H9         -2.7428   -7.6202    0.9462 H         1 <0>         0.1335
     31 H10        -2.6482   -7.4764   -1.5072 H         1 <0>         0.1325
     32 H11        -1.2933   -5.7487   -2.6019 H         1 <0>         0.1251
@<TRIPOS>BOND
     1    1    6 ar
     2    1    2 ar
     3    1   24 1
     4    2    3 ar
     5    2   25 1
     6    3    4 ar
     7    3   26 1
     8    4    9 1
     9    4    5 ar
    10    5    6 ar
    11    5    7 1
    12    6   27 1
    13    7    8 2
    14    7   12 1
    15    8    9 1
    16    8   11 1
    17    9   10 1
    18   11   28 1
    19   12   20 1
    20   12   13 2
    21   13   14 1
    22   13   22 1
    23   14   19 ar
    24   14   15 ar
    25   15   16 ar
    26   15   29 1
    27   16   17 ar
    28   16   30 1
    29   17   18 ar
    30   17   31 1
    31   18   19 ar
    32   18   32 1
    33   19   20 1
    34   20   21 1
    35   22   23 2
@<TRIPOS>MOLECULE
ZINC18230030
   32    35     0     0     0
SMALL
USER_CHARGES

@<TRIPOS>ATOM
      1 C1         -0.0166    1.3757    0.0096 C.ar      1 <0>        -0.1357
      2 C2          1.1722    2.0867    0.0021 C.ar      1 <0>        -0.0871
      3 C3          2.3853    1.4289   -0.0135 C.ar      1 <0>        -0.1330
      4 C4          2.4252    0.0389   -0.0214 C.ar      1 <0>         0.1465
      5 C5          1.2200   -0.6774   -0.0133 C.ar      1 <0>        -0.0875
      6 C6          0.0021   -0.0041    0.0020 C.ar      1 <0>        -0.0793
      7 C7          1.5867   -2.1097   -0.0238 C.2       1 <0>        -0.2136
      8 C8          0.7284   -3.2007   -0.0213 C.2       1 <0>         0.3077
      9 C9          1.1246   -4.6257   -0.0260 C.2       1 <0>         0.1435
     10 N1          2.3359   -5.1133   -0.0337 N.2       1 <0>        -0.2047
     11 O1          2.5348   -6.5152   -0.0374 O.3       1 <0>        -0.3879
     12 C10        -0.1511   -5.3804   -0.0197 C.ar      1 <0>        -0.1524
     13 C11        -0.4460   -6.7399   -0.0207 C.ar      1 <0>        -0.0325
     14 C12        -1.7620   -7.1560   -0.0139 C.ar      1 <0>        -0.1476
     15 C13        -2.7850   -6.2226   -0.0067 C.ar      1 <0>        -0.0650
     16 C14        -2.5032   -4.8720   -0.0061 C.ar      1 <0>        -0.1436
     17 C15        -1.1821   -4.4335   -0.0119 C.ar      1 <0>         0.1573
     18 N2         -0.6401   -3.1547   -0.0078 N.pl3     1 <0>        -0.6231
     19 C16         3.0542   -2.1288   -0.0380 C.2       1 <0>         0.5661
     20 O2          3.7569   -3.1240   -0.0505 O.2       1 <0>        -0.4814
     21 N3          3.4872   -0.8566   -0.0360 N.am      1 <0>        -0.6546
     22 H1         -0.9596    1.9020    0.0260 H         1 <0>         0.1299
     23 H2          1.1495    3.1665    0.0081 H         1 <0>         0.1317
     24 H3          3.3053    1.9946   -0.0200 H         1 <0>         0.1287
     25 H4         -0.9244   -0.5591    0.0079 H         1 <0>         0.1145
     26 H5          3.4646   -6.7806   -0.0431 H         1 <0>         0.4151
     27 H6          0.3522   -7.4674   -0.0270 H         1 <0>         0.1376
     28 H7         -1.9942   -8.2107   -0.0147 H         1 <0>         0.1348
     29 H8         -3.8126   -6.5549   -0.0018 H         1 <0>         0.1367
     30 H9         -3.3094   -4.1534   -0.0008 H         1 <0>         0.1326
     31 H10        -1.1620   -2.3371    0.0014 H         1 <0>         0.4278
     32 H11         4.4217   -0.5969   -0.0438 H         1 <0>         0.4186
@<TRIPOS>BOND
     1    1    6 ar
     2    1    2 ar
     3    1   22 1
     4    2    3 ar
     5    2   23 1
     6    3    4 ar
     7    3   24 1
     8    4   21 1
     9    4    5 ar
    10    5    6 ar
    11    5    7 1
    12    6   25 1
    13    7    8 2
    14    7   19 1
    15    8   18 1
    16    8    9 1
    17    9   10 2
    18    9   12 1
    19   10   11 1
    20   11   26 1
    21   12   17 ar
    22   12   13 ar
    23   13   14 ar
    24   13   27 1
    25   14   15 ar
    26   14   28 1
    27   15   16 ar
    28   15   29 1
    29   16   17 ar
    30   16   30 1
    31   17   18 1
    32   18   31 1
    33   19   20 2
    34   19   21 am
    35   21   32 1
@<TRIPOS>MOLECULE
ZINC01649340
   52    54     0     0     0
SMALL
USER_CHARGES

@<TRIPOS>ATOM
      1 C1         -0.0187    1.5258    0.0104 C.3       1 <0>        -0.1531
      2 C2          0.0021   -0.0041    0.0020 C.3       1 <0>        -0.1278
      3 C3         -1.4333   -0.5336    0.0129 C.3       1 <0>         0.1689
      4 H1         -1.9701   -0.1109    0.8621 H         1 <0>         0.1030
      5 C4         -1.4133   -2.0590    0.1302 C.3       1 <0>         0.0625
      6 O1         -0.6117   -2.6069   -0.9183 O.3       1 <0>        -0.5692
      7 N1         -2.1054   -0.1483   -1.2305 N.pl3     1 <0>        -0.6816
      8 C5         -3.4856   -0.0365   -1.2658 C.ar      1 <0>         0.6305
      9 N2         -4.1766   -0.2783   -0.1589 N.ar      1 <0>        -0.6256
     10 C6         -5.5013   -0.1844   -0.1423 C.ar      1 <0>         0.5407
     11 C7         -6.1646    0.1788   -1.3275 C.ar      1 <0>        -0.1560
     12 C8         -5.3921    0.4251   -2.4741 C.ar      1 <0>         0.3485
     13 N3         -4.0693    0.3129   -2.4004 N.ar      1 <0>        -0.6161
     14 N4         -6.2808    0.7538   -3.4662 N.pl3     1 <0>        -0.4704
     15 C9         -7.5330    0.7038   -2.9264 C.2       1 <0>         0.2320
     16 N5         -7.4624    0.3664   -1.6720 N.2       1 <0>        -0.4548
     17 C10        -5.9467    1.0964   -4.8508 C.3       1 <0>         0.1344
     18 C11        -6.6196    0.1019   -5.7989 C.3       1 <0>        -0.1626
     19 C12        -6.4419    2.5107   -5.1599 C.3       1 <0>        -0.1626
     20 N6         -6.2133   -0.4389    1.0165 N.pl3     1 <0>        -0.6899
     21 C13        -5.5062   -0.8166    2.2427 C.3       1 <0>         0.1717
     22 C14        -6.5039   -1.0364    3.3505 C.ar      1 <0>        -0.1135
     23 C15        -6.8801    0.0183    4.1611 C.ar      1 <0>        -0.0982
     24 C16        -7.7953   -0.1833    5.1773 C.ar      1 <0>        -0.1219
     25 C17        -8.3347   -1.4394    5.3826 C.ar      1 <0>        -0.1101
     26 C18        -7.9592   -2.4939    4.5714 C.ar      1 <0>        -0.1221
     27 C19        -7.0472   -2.2913    3.5524 C.ar      1 <0>        -0.0986
     28 H2          1.0039    1.9031    0.0027 H         1 <0>         0.0563
     29 H3         -0.5459    1.8868   -0.8726 H         1 <0>         0.0552
     30 H4         -0.5289    1.8773    0.9072 H         1 <0>         0.0537
     31 H5          0.5123   -0.3556   -0.8948 H         1 <0>         0.0768
     32 H6          0.5293   -0.3651    0.8851 H         1 <0>         0.0774
     33 H7         -0.9936   -2.3437    1.0951 H         1 <0>         0.0524
     34 H8         -2.4301   -2.4431    0.0488 H         1 <0>         0.0503
     35 H9         -0.5540   -3.5721   -0.9058 H         1 <0>         0.3776
     36 H10        -1.5839    0.0285   -2.0291 H         1 <0>         0.4145
     37 H11        -8.4474    0.9139   -3.4613 H         1 <0>         0.2138
     38 H12        -4.8660    1.0524   -4.9853 H         1 <0>         0.1061
     39 H13        -7.7004    0.1459   -5.6644 H         1 <0>         0.0654
     40 H14        -6.3710    0.3568   -6.8291 H         1 <0>         0.0793
     41 H15        -6.2668   -0.9057   -5.5787 H         1 <0>         0.0629
     42 H16        -5.9625    3.2193   -4.4845 H         1 <0>         0.0629
     43 H17        -6.1933    2.7656   -6.1901 H         1 <0>         0.0793
     44 H18        -7.5227    2.5547   -5.0254 H         1 <0>         0.0654
     45 H19        -7.1807   -0.3672    1.0169 H         1 <0>         0.4195
     46 H20        -4.9460   -1.7357    2.0706 H         1 <0>         0.0763
     47 H21        -4.8186   -0.0196    2.5258 H         1 <0>         0.0773
     48 H22        -6.4587    0.9996    4.0008 H         1 <0>         0.1237
     49 H23        -8.0886    0.6405    5.8111 H         1 <0>         0.1245
     50 H24        -9.0492   -1.5971    6.1770 H         1 <0>         0.1237
     51 H25        -8.3804   -3.4753    4.7320 H         1 <0>         0.1244
     52 H26        -6.7567   -3.1143    2.9163 H         1 <0>         0.1232
@<TRIPOS>BOND
     1    1    2 1
     2    1   28 1
     3    1   29 1
     4    1   30 1
     5    2    3 1
     6    2   31 1
     7    2   32 1
     8    3    4 1
     9    3    5 1
    10    3    7 1
    11    5    6 1
    12    5   33 1
    13    5   34 1
    14    6   35 1
    15    7    8 1
    16    7   36 1
    17    8   13 ar
    18    8    9 ar
    19    9   10 ar
    20   10   11 ar
    21   10   20 1
    22   11   16 1
    23   11   12 ar
    24   12   13 ar
    25   12   14 1
    26   14   15 1
    27   14   17 1
    28   15   16 2
    29   15   37 1
    30   17   18 1
    31   17   19 1
    32   17   38 1
    33   18   39 1
    34   18   40 1
    35   18   41 1
    36   19   42 1
    37   19   43 1
    38   19   44 1
    39   20   21 1
    40   20   45 1
    41   21   22 1
    42   21   46 1
    43   21   47 1
    44   22   27 ar
    45   22   23 ar
    46   23   24 ar
    47   23   48 1
    48   24   25 ar
    49   24   49 1
    50   25   26 ar
    51   25   50 1
    52   26   27 ar
    53   26   51 1
    54   27   52 1
@<TRIPOS>MOLECULE
ZINC03814434
   62    69     0     0     0
SMALL
USER_CHARGES

@<TRIPOS>ATOM
      1 C1         -0.1295    1.5952   -0.2973 C.3       1 <0>        -0.1687
      2 C2         -0.0862    0.0696   -0.1900 C.3       1 <0>         0.3342
      3 C3          0.5692   -0.4501   -1.4637 C.3       1 <0>         0.0405
      4 H1          1.4796    0.1159   -1.6612 H         1 <0>         0.1372
      5 C4          0.9167   -1.9328   -1.2889 C.3       1 <0>        -0.0061
      6 H2          1.3963   -2.3075   -2.1932 H         1 <0>         0.1555
      7 C5          1.8785   -2.0596   -0.1021 C.3       1 <0>        -0.1827
      8 C6          1.2061   -1.5198    1.1541 C.3       1 <0>         0.2999
      9 H3          1.9797   -1.4243    1.9161 H         1 <0>         0.1550
     10 O1          0.6555   -0.2442    0.9666 O.3       1 <0>        -0.3234
     11 N1          0.2189   -2.4746    1.6600 N.pl3     1 <0>        -0.5366
     12 C7          0.4705   -3.5508    2.4739 C.ar      1 <0>         0.1469
     13 C8          1.6649   -4.0152    3.0240 C.ar      1 <0>        -0.1522
     14 C9          1.5948   -5.1456    3.8201 C.ar      1 <0>        -0.0582
     15 C10         0.4006   -5.7997    4.0696 C.ar      1 <0>        -0.1457
     16 C11        -0.7984   -5.3597    3.5358 C.ar      1 <0>        -0.0280
     17 C12        -0.7487   -4.2198    2.7307 C.ar      1 <0>        -0.1131
     18 C13        -1.7893   -3.4830    2.0197 C.ar      1 <0>         0.0276
     19 C14        -1.1442   -2.4197    1.3841 C.ar      1 <0>         0.0376
     20 C15        -1.8806   -1.5095    0.6175 C.ar      1 <0>         0.0894
     21 N2         -1.4718   -0.3951   -0.1095 N.pl3     1 <0>        -0.5183
     22 C16        -2.5611    0.1913   -0.7090 C.ar      1 <0>         0.1618
     23 C17        -2.6521    1.3277   -1.5118 C.ar      1 <0>        -0.1305
     24 C18        -3.9109    1.6745   -1.9733 C.ar      1 <0>        -0.0737
     25 C19        -5.0393    0.9368   -1.6616 C.ar      1 <0>        -0.1358
     26 C20        -4.9745   -0.1955   -0.8662 C.ar      1 <0>        -0.0503
     27 C21        -3.7147   -0.5596   -0.3919 C.ar      1 <0>        -0.1042
     28 C22        -3.2693   -1.6660    0.4845 C.ar      1 <0>        -0.0360
     29 C23        -3.9084   -2.7313    1.1102 C.ar      1 <0>        -0.0288
     30 C24        -3.1873   -3.6421    1.8754 C.ar      1 <0>        -0.1255
     31 C25        -4.1221   -4.6480    2.4030 C.2       1 <0>         0.5632
     32 O2         -3.8062   -5.5851    3.1110 O.2       1 <0>        -0.5106
     33 N3         -5.3744   -4.3851    1.9926 N.am      1 <0>        -0.7162
     34 C26        -5.3495   -3.1771    1.1601 C.3       1 <0>         0.1358
     35 N4         -0.3067   -2.7008   -1.0216 N.4       1 <0>        -0.5252
     36 C27         0.0145   -4.1336   -0.9773 C.3       1 <0>        -0.0497
     37 O3         -0.3340   -0.2979   -2.5607 O.3       1 <0>        -0.3614
     38 C28         0.3101   -0.0933   -3.8198 C.3       1 <0>         0.0162
     39 H4          0.8261    2.0094    0.0240 H         1 <0>         0.0984
     40 H5         -0.3202    1.8814   -1.3317 H         1 <0>         0.1036
     41 H6         -0.9255    1.9818    0.3392 H         1 <0>         0.0921
     42 H7          2.1370   -3.1081    0.0458 H         1 <0>         0.1233
     43 H8          2.7835   -1.4869   -0.3048 H         1 <0>         0.1455
     44 H9          2.6036   -3.5149    2.8368 H         1 <0>         0.1365
     45 H10         2.5026   -5.5304    4.2610 H         1 <0>         0.1359
     46 H11         0.4045   -6.6780    4.6980 H         1 <0>         0.1352
     47 H12        -1.7278   -5.8736    3.7323 H         1 <0>         0.1600
     48 H13        -1.7792    1.9122   -1.7624 H         1 <0>         0.1440
     49 H14        -4.0153    2.5500   -2.5970 H         1 <0>         0.1336
     50 H15        -5.9967    1.2527   -2.0488 H         1 <0>         0.1332
     51 H16        -5.8575   -0.7687   -0.6249 H         1 <0>         0.1415
     52 H17        -6.1628   -4.9065    2.2103 H         1 <0>         0.4348
     53 H18        -5.9671   -2.3994    1.6094 H         1 <0>         0.1115
     54 H19        -5.7060   -3.4063    0.1559 H         1 <0>         0.1103
     55 H20        -0.6958   -2.4158   -0.1353 H         1 <0>         0.4186
     56 H21         0.4349   -4.4415   -1.9347 H         1 <0>         0.1256
     57 H22         0.7403   -4.3189   -0.1854 H         1 <0>         0.1191
     58 H23        -0.8932   -4.7035   -0.7789 H         1 <0>         0.1256
     59 H24         0.9168    0.8112   -3.7748 H         1 <0>         0.0633
     60 H25         0.9482   -0.9479   -4.0446 H         1 <0>         0.0514
     61 H26        -0.4433    0.0130   -4.6003 H         1 <0>         0.1100
     62 H27        -0.9785   -2.5293   -1.7546 H         1 <0>         0.4274
@<TRIPOS>BOND
     1    1    2 1
     2    1   39 1
     3    1   40 1
     4    1   41 1
     5    2   10 1
     6    2   21 1
     7    2    3 1
     8    3    4 1
     9    3    5 1
    10    3   37 1
    11    5    6 1
    12    5    7 1
    13    5   35 1
    14    7    8 1
    15    7   42 1
    16    7   43 1
    17    8    9 1
    18    8   10 1
    19    8   11 1
    20   11   19 1
    21   11   12 1
    22   12   17 ar
    23   12   13 ar
    24   13   14 ar
    25   13   44 1
    26   14   15 ar
    27   14   45 1
    28   15   16 ar
    29   15   46 1
    30   16   17 ar
    31   16   47 1
    32   17   18 1
    33   18   30 ar
    34   18   19 ar
    35   19   20 ar
    36   20   28 ar
    37   20   21 1
    38   21   22 1
    39   22   27 ar
    40   22   23 ar
    41   23   24 ar
    42   23   48 1
    43   24   25 ar
    44   24   49 1
    45   25   26 ar
    46   25   50 1
    47   26   27 ar
    48   26   51 1
    49   27   28 1
    50   28   29 ar
    51   29   34 1
    52   29   30 ar
    53   30   31 1
    54   31   32 2
    55   31   33 am
    56   33   34 1
    57   33   52 1
    58   34   53 1
    59   34   54 1
    60   35   36 1
    61   35   55 1
    62   35   62 1
    63   36   56 1
    64   36   57 1
    65   36   58 1
    66   37   38 1
    67   38   59 1
    68   38   60 1
    69   38   61 1
@<TRIPOS>MOLECULE
ZINC13763987
   58    60     0     0     0
SMALL
USER_CHARGES

@<TRIPOS>ATOM
      1 C1          0.1578    1.5374   -0.0550 C.3       1 <0>         0.0751
      2 N1          0.1405    0.0725   -0.0490 N.pl3     1 <0>        -0.6052
      3 C2          0.1526   -0.6549    1.2226 C.3       1 <0>         0.0781
      4 C3          0.1130   -0.6173   -1.2329 C.ar      1 <0>         0.2662
      5 C4          0.0907   -2.0163   -1.2253 C.ar      1 <0>        -0.2052
      6 C5          0.0634   -2.7049   -2.4005 C.ar      1 <0>        -0.0095
      7 C6          0.0571   -2.0088   -3.6208 C.ar      1 <0>        -0.2285
      8 C7          0.0791   -0.6041   -3.6251 C.ar      1 <0>        -0.0136
      9 C8          0.1015    0.0789   -2.4465 C.ar      1 <0>        -0.2096
     10 C9          0.0283   -2.7459   -4.8858 C.2       1 <0>         0.3472
     11 C10        -1.1318   -2.6338   -5.7722 C.2       1 <0>        -0.2156
     12 C11        -2.2155   -1.8149   -5.4131 C.2       1 <0>         0.0427
     13 C12        -3.2932   -1.7123   -6.2402 C.2       1 <0>        -0.2291
     14 C13        -3.3218   -2.4218   -7.4458 C.2       1 <0>         0.3271
     15 N2         -4.4076   -2.3168   -8.2754 N.pl3     1 <0>        -0.5670
     16 C14        -5.5932   -1.5745   -7.8399 C.3       1 <0>         0.0599
     17 C15        -4.3827   -2.9470   -9.5977 C.3       1 <0>         0.0554
     18 C16        -2.2440   -3.2378   -7.8064 C.2       1 <0>        -0.2315
     19 C17        -1.1610   -3.3404   -6.9861 C.2       1 <0>         0.0418
     20 C18         1.1595   -3.5951   -5.2643 C.ar      1 <0>        -0.2294
     21 C19         1.4688   -4.7356   -4.5044 C.ar      1 <0>        -0.0083
     22 C20         2.5217   -5.5239   -4.8594 C.ar      1 <0>        -0.2091
     23 C21         3.2949   -5.1986   -5.9792 C.ar      1 <0>         0.2684
     24 C22         2.9897   -4.0632   -6.7377 C.ar      1 <0>        -0.2129
     25 C23         1.9343   -3.2743   -6.3915 C.ar      1 <0>        -0.0124
     26 N3          4.3537   -5.9934   -6.3335 N.pl3     1 <0>        -0.6054
     27 C24         4.6068   -7.2418   -5.6099 C.3       1 <0>         0.0752
     28 C25         5.2324   -5.5946   -7.4358 C.3       1 <0>         0.0714
     29 H1          1.1895    1.8885   -0.0733 H         1 <0>         0.0634
     30 H2         -0.3662    1.9033   -0.9380 H         1 <0>         0.0772
     31 H3         -0.3371    1.9103    0.8417 H         1 <0>         0.0797
     32 H4          0.1745    0.0566    2.0480 H         1 <0>         0.0849
     33 H5         -0.7436   -1.2708    1.2974 H         1 <0>         0.0666
     34 H6          1.0360   -1.2919    1.2684 H         1 <0>         0.0666
     35 H7          0.0955   -2.5508   -0.2869 H         1 <0>         0.1368
     36 H8          0.0469   -3.7848   -2.3941 H         1 <0>         0.1311
     37 H9          0.0744   -0.0662   -4.5616 H         1 <0>         0.1321
     38 H10         0.1143    1.1588   -2.4490 H         1 <0>         0.1385
     39 H11        -2.1943   -1.2676   -4.4823 H         1 <0>         0.1502
     40 H12        -4.1266   -1.0830   -5.9647 H         1 <0>         0.1496
     41 H13        -5.4962   -0.5296   -8.1347 H         1 <0>         0.0782
     42 H14        -6.4811   -2.0025   -8.3053 H         1 <0>         0.0920
     43 H15        -5.6843   -1.6391   -6.7557 H         1 <0>         0.0872
     44 H16        -3.4649   -3.5244   -9.7078 H         1 <0>         0.0932
     45 H17        -5.2428   -3.6085   -9.7012 H         1 <0>         0.0844
     46 H18        -4.4221   -2.1768  -10.3680 H         1 <0>         0.0828
     47 H19        -2.2688   -3.7839   -8.7378 H         1 <0>         0.1515
     48 H20        -0.3276   -3.9672   -7.2670 H         1 <0>         0.1501
     49 H21         0.8728   -4.9869   -3.6395 H         1 <0>         0.1313
     50 H22         2.7599   -6.4008   -4.2756 H         1 <0>         0.1387
     51 H23         3.5887   -3.8144   -7.6013 H         1 <0>         0.1403
     52 H24         1.6963   -2.4007   -6.9802 H         1 <0>         0.1323
     53 H25         4.0682   -8.0572   -6.0927 H         1 <0>         0.0638
     54 H26         5.6754   -7.4566   -5.6187 H         1 <0>         0.0794
     55 H27         4.2651   -7.1404   -4.5798 H         1 <0>         0.0780
     56 H28         4.8381   -4.6943   -7.9072 H         1 <0>         0.0851
     57 H29         6.2318   -5.3946   -7.0496 H         1 <0>         0.0679
     58 H30         5.2809   -6.3981   -8.1707 H         1 <0>         0.0706
@<TRIPOS>BOND
     1    1    2 1
     2    1   29 1
     3    1   30 1
     4    1   31 1
     5    2    3 1
     6    2    4 1
     7    3   32 1
     8    3   33 1
     9    3   34 1
    10    4    9 ar
    11    4    5 ar
    12    5    6 ar
    13    5   35 1
    14    6    7 ar
    15    6   36 1
    16    7    8 ar
    17    7   10 1
    18    8    9 ar
    19    8   37 1
    20    9   38 1
    21   10   11 2
    22   10   20 1
    23   11   19 1
    24   11   12 1
    25   12   13 2
    26   12   39 1
    27   13   14 1
    28   13   40 1
    29   14   15 2
    30   14   18 1
    31   15   16 1
    32   15   17 1
    33   16   41 1
    34   16   42 1
    35   16   43 1
    36   17   44 1
    37   17   45 1
    38   17   46 1
    39   18   19 2
    40   18   47 1
    41   19   48 1
    42   20   25 ar
    43   20   21 ar
    44   21   22 ar
    45   21   49 1
    46   22   23 ar
    47   22   50 1
    48   23   24 ar
    49   23   26 1
    50   24   25 ar
    51   24   51 1
    52   25   52 1
    53   26   27 1
    54   26   28 1
    55   27   53 1
    56   27   54 1
    57   27   55 1
    58   28   56 1
    59   28   57 1
    60   28   58 1
@<TRIPOS>MOLECULE
ZINC21288966
   49    52     0     0     0
SMALL
USER_CHARGES
2-(2-chlorophenyl)-5,7-dihydroxy-8-[(3S,4R)-3-hydroxy-1-methyl-4-piperidyl]chromen-4-one
@<TRIPOS>ATOM
      1 C1          6.0895   -0.0238    5.9621 C.3       1 <0>        -0.0460
      2 N1          6.1756    1.0472    4.9603 N.4       1 <0>        -0.3934
      3 C2          5.9739    0.5180    3.6055 C.3       1 <0>        -0.0028
      4 C3          6.2126    1.6289    2.5802 C.3       1 <0>        -0.1464
      5 C4          5.2418    2.7821    2.8491 C.3       1 <0>        -0.0180
      6 H1          4.2050    2.4431    2.7074 H         1 <0>         0.1039
      7 C5          5.4391    3.2830    4.2825 C.3       1 <0>         0.1015
      8 H2          4.7709    4.1271    4.5084 H         1 <0>         0.0941
      9 C6          5.2218    2.1236    5.2574 C.3       1 <0>        -0.0361
     10 O1          6.7669    3.7898    4.4323 O.3       1 <0>        -0.5639
     11 C7          5.5132    3.9050    1.8814 C.ar      1 <0>        -0.2158
     12 C8          6.8017    4.3949    1.7322 C.ar      1 <0>         0.2946
     13 C9          7.0678    5.4304    0.8434 C.ar      1 <0>        -0.3049
     14 C10         6.0448    5.9841    0.0956 C.ar      1 <0>         0.3111
     15 C11         4.7411    5.4942    0.2412 C.ar      1 <0>        -0.3649
     16 C12         4.4748    4.4470    1.1407 C.ar      1 <0>         0.2362
     17 O2          3.2147    3.9814    1.2730 O.3       1 <0>        -0.2171
     18 C13         2.1871    4.4838    0.5705 C.2       1 <0>         0.1982
     19 C14         2.3394    5.4926   -0.3277 C.2       1 <0>        -0.2780
     20 C15         3.6225    6.0546   -0.5353 C.2       1 <0>         0.4382
     21 O3          3.7953    6.9641   -1.3304 O.2       1 <0>        -0.4786
     22 C16         0.8407    3.9147    0.7769 C.ar      1 <0>        -0.0680
     23 C17         0.6478    2.5322    0.7263 C.ar      1 <0>        -0.0708
     24 C18        -0.6124    2.0073    0.9205 C.ar      1 <0>        -0.1159
     25 C19        -1.6867    2.8467    1.1599 C.ar      1 <0>        -0.0780
     26 C20        -1.5036    4.2164    1.2169 C.ar      1 <0>        -0.1066
     27 C21        -0.2472    4.7566    1.0243 C.ar      1 <0>        -0.0057
     28 Cl1        -0.0199    6.4765    1.0889 Cl        1 <0>        -0.0424
     29 O4          6.3024    6.9947   -0.7728 O.3       1 <0>        -0.4999
     30 O5          7.8133    3.8585    2.4614 O.3       1 <0>        -0.4665
     31 H3          6.8128   -0.8151    5.7159 H         1 <0>         0.1242
     32 H4          5.0728   -0.4438    5.9634 H         1 <0>         0.1169
     33 H5          6.3184    0.3856    6.9571 H         1 <0>         0.1225
     34 H6          6.6809   -0.3050    3.4243 H         1 <0>         0.1308
     35 H7          4.9438    0.1448    3.5072 H         1 <0>         0.1211
     36 H8          7.2477    1.9910    2.6662 H         1 <0>         0.1216
     37 H9          6.0450    1.2349    1.5669 H         1 <0>         0.1057
     38 H10         4.1951    1.7434    5.1512 H         1 <0>         0.1298
     39 H11         5.3771    2.4772    6.2874 H         1 <0>         0.1312
     40 H12         7.0946    4.1958    5.4007 H         1 <0>         0.4106
     41 H13         8.0758    5.8030    0.7365 H         1 <0>         0.1471
     42 H14         1.4871    5.8659   -0.8759 H         1 <0>         0.1670
     43 H15         1.4839    1.8757    0.5352 H         1 <0>         0.1384
     44 H16        -0.7625    0.9385    0.8812 H         1 <0>         0.1407
     45 H17        -2.6721    2.4298    1.3071 H         1 <0>         0.1438
     46 H18        -2.3456    4.8651    1.4082 H         1 <0>         0.1476
     47 H19         5.4855    7.4321   -1.3656 H         1 <0>         0.4556
     48 H20         8.8375    4.2431    2.3473 H         1 <0>         0.4397
     49 H21         7.1882    1.4744    5.0059 H         1 <0>         0.4481
@<TRIPOS>BOND
     1    1    2 1
     2    1   31 1
     3    1   32 1
     4    1   33 1
     5    2    9 1
     6    2    3 1
     7    2   49 1
     8    3    4 1
     9    3   34 1
    10    3   35 1
    11    4    5 1
    12    4   36 1
    13    4   37 1
    14    5    6 1
    15    5    7 1
    16    5   11 1
    17    7    8 1
    18    7    9 1
    19    7   10 1
    20    9   38 1
    21    9   39 1
    22   10   40 1
    23   11   16 ar
    24   11   12 ar
    25   12   13 ar
    26   12   30 1
    27   13   14 ar
    28   13   41 1
    29   14   15 ar
    30   14   29 1
    31   15   20 1
    32   15   16 ar
    33   16   17 1
    34   17   18 1
    35   18   19 2
    36   18   22 1
    37   19   20 1
    38   19   42 1
    39   20   21 2
    40   22   27 ar
    41   22   23 ar
    42   23   24 ar
    43   23   43 1
    44   24   25 ar
    45   24   44 1
    46   25   26 ar
    47   25   45 1
    48   26   27 ar
    49   26   46 1
    50   27   28 1
    51   29   47 1
    52   30   48 1
@<TRIPOS>MOLECULE
ZINC03871576
   30    32     0     0     0
SMALL
USER_CHARGES

@<TRIPOS>ATOM
      1 C1         -0.0169    1.3935    0.0097 C.ar      1 <0>        -0.0604
      2 C2          1.1676    2.0963    0.0022 C.ar      1 <0>        -0.1497
      3 C3          2.3803    1.4179   -0.0135 C.ar      1 <0>         0.1360
      4 C4          2.4038    0.0284   -0.0212 C.ar      1 <0>        -0.1474
      5 C5          1.2241   -0.6823   -0.0133 C.ar      1 <0>        -0.0612
      6 C6          0.0021   -0.0041    0.0020 C.ar      1 <0>        -0.0853
      7 C7         -1.2639   -0.7610    0.0105 C.2       1 <0>         0.2092
      8 C8         -1.2134   -2.1203    0.0083 C.2       1 <0>        -0.3116
      9 C9         -2.4177   -2.8631    0.0169 C.2       1 <0>         0.4226
     10 O1         -2.4099   -4.0836    0.0156 O.2       1 <0>        -0.4538
     11 C10        -3.6809   -2.1061    0.0279 C.ar      1 <0>        -0.2659
     12 C11        -4.9199   -2.7591    0.0374 C.ar      1 <0>         0.2192
     13 C12        -6.0832   -2.0121    0.0480 C.ar      1 <0>        -0.2049
     14 C13        -6.0212   -0.6227    0.0493 C.ar      1 <0>         0.1922
     15 C14        -4.7984    0.0300    0.0400 C.ar      1 <0>        -0.1830
     16 C15        -3.6212   -0.7020    0.0293 C.ar      1 <0>         0.1830
     17 O2         -2.4220   -0.0821    0.0257 O.3       1 <0>        -0.2182
     18 O3         -7.1695    0.1013    0.0593 O.3       1 <0>        -0.4872
     19 O4         -4.9782   -4.1150    0.0356 O.3       1 <0>        -0.4722
     20 O5          3.5455    2.1145   -0.0218 O.3       1 <0>        -0.4965
     21 H1         -0.9589    1.9215    0.0260 H         1 <0>         0.1404
     22 H2          1.1538    3.1762    0.0081 H         1 <0>         0.1393
     23 H3          3.3485   -0.4949   -0.0338 H         1 <0>         0.1414
     24 H4          1.2432   -1.7622   -0.0196 H         1 <0>         0.1415
     25 H5         -0.2608   -2.6290   -0.0002 H         1 <0>         0.1637
     26 H6         -7.0423   -2.5086    0.0550 H         1 <0>         0.1502
     27 H7         -4.7627    1.1094    0.0411 H         1 <0>         0.1534
     28 H8         -7.4952    0.3100    0.9456 H         1 <0>         0.4037
     29 H9         -4.9875   -4.5094    0.9185 H         1 <0>         0.4031
     30 H10         3.8920    2.3119    0.8591 H         1 <0>         0.3984
@<TRIPOS>BOND
     1    1    6 ar
     2    1    2 ar
     3    1   21 1
     4    2    3 ar
     5    2   22 1
     6    3    4 ar
     7    3   20 1
     8    4    5 ar
     9    4   23 1
    10    5    6 ar
    11    5   24 1
    12    6    7 1
    13    7   17 1
    14    7    8 2
    15    8    9 1
    16    8   25 1
    17    9   10 2
    18    9   11 1
    19   11   16 ar
    20   11   12 ar
    21   12   13 ar
    22   12   19 1
    23   13   14 ar
    24   13   26 1
    25   14   15 ar
    26   14   18 1
    27   15   16 ar
    28   15   27 1
    29   16   17 1
    30   18   28 1
    31   19   29 1
    32   20   30 1
@<TRIPOS>MOLECULE
ZINC03871576
   29    31     0     0     0
SMALL
USER_CHARGES

@<TRIPOS>ATOM
      1 C1         -0.0169    1.3945    0.0097 C.ar      1 <0>        -0.0666
      2 C2          1.1672    2.0969    0.0022 C.ar      1 <0>        -0.1480
      3 C3          2.3804    1.4183   -0.0135 C.ar      1 <0>         0.1175
      4 C4          2.4042    0.0284   -0.0212 C.ar      1 <0>        -0.1471
      5 C5          1.2251   -0.6825   -0.0138 C.ar      1 <0>        -0.0696
      6 C6          0.0021   -0.0041    0.0020 C.ar      1 <0>        -0.0607
      7 C7         -1.2623   -0.7603    0.0105 C.2       1 <0>         0.1733
      8 C8         -1.2238   -2.1392    0.0085 C.2       1 <0>        -0.2675
      9 C9         -2.4161   -2.8666    0.0170 C.2       1 <0>         0.3649
     10 C10        -3.6370   -2.1554    0.0275 C.2       1 <0>        -0.3407
     11 C11        -4.8707   -2.8387    0.0369 C.2       1 <0>         0.2653
     12 C12        -6.0384   -2.1317    0.0475 C.2       1 <0>        -0.3780
     13 C13        -6.0158   -0.7277    0.0485 C.2       1 <0>         0.3615
     14 O1         -7.1627   -0.0461    0.0589 O.2       1 <0>        -0.6669
     15 C14        -4.7977   -0.0391    0.0393 C.2       1 <0>        -0.3147
     16 C15        -3.6098   -0.7430    0.0291 C.2       1 <0>         0.2111
     17 O2         -2.4272   -0.0920    0.0257 O.3       1 <0>        -0.2196
     18 O3         -4.8969   -4.1953    0.0351 O.3       1 <0>        -0.4477
     19 O4         -2.4024   -4.2178    0.0147 O.3       1 <0>        -0.5784
     20 O5          3.5452    2.1149   -0.0218 O.3       1 <0>        -0.4988
     21 H1         -0.9589    1.9225    0.0260 H         1 <0>         0.1416
     22 H2          1.1536    3.1768    0.0081 H         1 <0>         0.1349
     23 H3          3.3490   -0.4946   -0.0334 H         1 <0>         0.1360
     24 H4          1.2446   -1.7623   -0.0201 H         1 <0>         0.1407
     25 H5         -0.2747   -2.6546   -0.0001 H         1 <0>         0.1464
     26 H6         -6.9835   -2.6543    0.0547 H         1 <0>         0.1160
     27 H7         -4.7867    1.0408    0.0398 H         1 <0>         0.1203
     28 H8         -5.7877   -4.5715    0.0420 H         1 <0>         0.3828
     29 H9          3.8917    2.3124    0.8591 H         1 <0>         0.3921
@<TRIPOS>BOND
     1    1    6 ar
     2    1    2 ar
     3    1   21 1
     4    2    3 ar
     5    2   22 1
     6    3    4 ar
     7    3   20 1
     8    4    5 ar
     9    4   23 1
    10    5    6 ar
    11    5   24 1
    12    6    7 1
    13    7   17 1
    14    7    8 2
    15    8    9 1
    16    8   25 1
    17    9   10 2
    18    9   19 1
    19   10   16 1
    20   10   11 1
    21   11   12 2
    22   11   18 1
    23   12   13 1
    24   12   26 1
    25   13   14 2
    26   13   15 1
    27   15   16 2
    28   15   27 1
    29   16   17 1
    30   18   28 1
    31   20   29 1
@<TRIPOS>MOLECULE
ZINC03872070
   29    31     0     0     0
SMALL
USER_CHARGES

@<TRIPOS>ATOM
      1 C1         -0.0167    1.3795    0.0096 C.ar      1 <0>        -0.0927
      2 C2          1.1683    2.0940    0.0021 C.ar      1 <0>        -0.1229
      3 C3          2.3774    1.4303   -0.0130 C.ar      1 <0>        -0.0794
      4 C4          2.4038    0.0341   -0.0208 C.ar      1 <0>        -0.0750
      5 C5          1.2040   -0.6806   -0.0131 C.ar      1 <0>        -0.0800
      6 C6          0.0021   -0.0041    0.0020 C.ar      1 <0>        -0.1206
      7 C7          3.6945   -0.6834   -0.0374 C.2       1 <0>         0.2076
      8 C8          3.6865   -2.0422   -0.0503 C.2       1 <0>        -0.3115
      9 C9          4.9147   -2.7475   -0.0669 C.2       1 <0>         0.4227
     10 O1          4.9453   -3.9673   -0.0791 O.2       1 <0>        -0.4538
     11 C10         6.1531   -1.9509   -0.0693 C.ar      1 <0>        -0.2663
     12 C11         7.4124   -2.5640   -0.0858 C.ar      1 <0>         0.2193
     13 C12         8.5511   -1.7802   -0.0879 C.ar      1 <0>        -0.2051
     14 C13         8.4449   -0.3935   -0.0739 C.ar      1 <0>         0.1922
     15 C14         7.2019    0.2199   -0.0571 C.ar      1 <0>        -0.1832
     16 C15         6.0486   -0.5493   -0.0551 C.ar      1 <0>         0.1831
     17 O2          4.8303    0.0319   -0.0449 O.3       1 <0>        -0.2180
     18 O3          9.5695    0.3668   -0.0761 O.3       1 <0>        -0.4872
     19 O4          7.5139   -3.9173   -0.0990 O.3       1 <0>        -0.4722
     20 H1         -0.9606    1.9042    0.0260 H         1 <0>         0.1309
     21 H2          1.1464    3.1738    0.0078 H         1 <0>         0.1326
     22 H3          3.3016    1.9892   -0.0192 H         1 <0>         0.1349
     23 H4          1.2173   -1.7605   -0.0194 H         1 <0>         0.1361
     24 H5         -0.9265   -0.5555    0.0079 H         1 <0>         0.1347
     25 H6          2.7503   -2.5805   -0.0475 H         1 <0>         0.1636
     26 H7          9.5256   -2.2457   -0.1002 H         1 <0>         0.1502
     27 H8          7.1320    1.2975   -0.0459 H         1 <0>         0.1533
     28 H9          9.8879    0.5955   -0.9601 H         1 <0>         0.4037
     29 H10         7.5357   -4.3014   -0.9862 H         1 <0>         0.4030
@<TRIPOS>BOND
     1    1    6 ar
     2    1    2 ar
     3    1   20 1
     4    2    3 ar
     5    2   21 1
     6    3    4 ar
     7    3   22 1
     8    4    5 ar
     9    4    7 1
    10    5    6 ar
    11    5   23 1
    12    6   24 1
    13    7   17 1
    14    7    8 2
    15    8    9 1
    16    8   25 1
    17    9   10 2
    18    9   11 1
    19   11   16 ar
    20   11   12 ar
    21   12   13 ar
    22   12   19 1
    23   13   14 ar
    24   13   26 1
    25   14   15 ar
    26   14   18 1
    27   15   16 ar
    28   15   27 1
    29   16   17 1
    30   18   28 1
    31   19   29 1
@<TRIPOS>MOLECULE
ZINC03872070
   28    30     0     0     0
SMALL
USER_CHARGES

@<TRIPOS>ATOM
      1 C1         -0.0167    1.3797    0.0096 C.ar      1 <0>        -0.1070
      2 C2          1.1682    2.0946    0.0022 C.ar      1 <0>        -0.1239
      3 C3          2.3774    1.4315   -0.0129 C.ar      1 <0>        -0.0844
      4 C4          2.4042    0.0344   -0.0206 C.ar      1 <0>        -0.0523
      5 C5          1.2037   -0.6807   -0.0130 C.ar      1 <0>        -0.0872
      6 C6          0.0021   -0.0041    0.0020 C.ar      1 <0>        -0.1230
      7 C7          3.6938   -0.6822   -0.0372 C.2       1 <0>         0.1725
      8 C8          3.6987   -2.0599   -0.0503 C.2       1 <0>        -0.2684
      9 C9          4.9147   -2.7500   -0.0661 C.2       1 <0>         0.3652
     10 C10         6.1116   -2.0009   -0.0682 C.2       1 <0>        -0.3412
     11 C11         7.3668   -2.6443   -0.0844 C.2       1 <0>         0.2654
     12 C12         8.5111   -1.9002   -0.0865 C.2       1 <0>        -0.3783
     13 C13         8.4435   -0.4975   -0.0722 C.2       1 <0>         0.3617
     14 O1          9.5678    0.2204   -0.0740 O.2       1 <0>        -0.6670
     15 C14         7.2040    0.1518   -0.0566 C.2       1 <0>        -0.3151
     16 C15         6.0392   -0.5896   -0.0543 C.2       1 <0>         0.2114
     17 O2          4.8365    0.0229   -0.0448 O.3       1 <0>        -0.2195
     18 O3          7.4365   -3.9993   -0.0974 O.3       1 <0>        -0.4477
     19 O4          4.9436   -4.1007   -0.0786 O.3       1 <0>        -0.5790
     20 H1         -0.9606    1.9042    0.0260 H         1 <0>         0.1247
     21 H2          1.1460    3.1743    0.0078 H         1 <0>         0.1280
     22 H3          3.3014    1.9906   -0.0191 H         1 <0>         0.1359
     23 H4          1.2169   -1.7606   -0.0192 H         1 <0>         0.1351
     24 H5         -0.9266   -0.5554    0.0079 H         1 <0>         0.1291
     25 H6          2.7663   -2.6050   -0.0479 H         1 <0>         0.1462
     26 H7          9.4725   -2.3921   -0.0990 H         1 <0>         0.1160
     27 H8          7.1585    1.2308   -0.0456 H         1 <0>         0.1202
     28 H9          8.3389   -4.3466   -0.1079 H         1 <0>         0.3827
@<TRIPOS>BOND
     1    1    6 ar
     2    1    2 ar
     3    1   20 1
     4    2    3 ar
     5    2   21 1
     6    3    4 ar
     7    3   22 1
     8    4    5 ar
     9    4    7 1
    10    5    6 ar
    11    5   23 1
    12    6   24 1
    13    7   17 1
    14    7    8 2
    15    8    9 1
    16    8   25 1
    17    9   10 2
    18    9   19 1
    19   10   16 1
    20   10   11 1
    21   11   12 2
    22   11   18 1
    23   12   13 1
    24   12   26 1
    25   13   14 2
    26   13   15 1
    27   15   16 2
    28   15   27 1
    29   16   17 1
    30   18   28 1
@<TRIPOS>MOLECULE
ZINC18185774
   31    33     0     0     0
SMALL
USER_CHARGES

@<TRIPOS>ATOM
      1 C1         -0.0169    1.3929    0.0097 C.ar      1 <0>        -0.0705
      2 C2          1.1675    2.0983    0.0022 C.ar      1 <0>        -0.1309
      3 C3          2.3803    1.4240   -0.0135 C.ar      1 <0>         0.1099
      4 C4          2.4067    0.0300   -0.0212 C.ar      1 <0>         0.0792
      5 C5          1.2240   -0.6832   -0.0138 C.ar      1 <0>        -0.0904
      6 C6          0.0021   -0.0041    0.0020 C.ar      1 <0>        -0.0661
      7 C7         -1.2642   -0.7606    0.0105 C.2       1 <0>         0.2069
      8 C8         -2.4374   -0.0724    0.0203 C.2       1 <0>        -0.3067
      9 C9         -3.6620   -0.7813    0.0286 C.2       1 <0>         0.4226
     10 O1         -4.7331   -0.1964    0.0371 O.2       1 <0>        -0.4521
     11 C10        -3.5935   -2.2524    0.0260 C.ar      1 <0>        -0.2661
     12 C11        -4.7554   -3.0344    0.0332 C.ar      1 <0>         0.2196
     13 C12        -4.6484   -4.4128    0.0300 C.ar      1 <0>        -0.2046
     14 C13        -3.3955   -5.0163    0.0203 C.ar      1 <0>         0.1928
     15 C14        -2.2415   -4.2483    0.0131 C.ar      1 <0>        -0.1829
     16 C15        -2.3286   -2.8648    0.0157 C.ar      1 <0>         0.1832
     17 O2         -1.2147   -2.1022    0.0028 O.3       1 <0>        -0.2181
     18 O3         -3.3016   -6.3705    0.0182 O.3       1 <0>        -0.4872
     19 O4         -5.9771   -2.4436    0.0436 O.3       1 <0>        -0.4722
     20 O5          3.5971   -0.6274   -0.0366 O.3       1 <0>        -0.4831
     21 O6          3.5446    2.1239   -0.0217 O.3       1 <0>        -0.4848
     22 H1         -0.9593    1.9201    0.0260 H         1 <0>         0.1451
     23 H2          1.1515    3.1781    0.0081 H         1 <0>         0.1468
     24 H3          1.2430   -1.7630   -0.0205 H         1 <0>         0.1466
     25 H4         -2.4342    1.0076    0.0222 H         1 <0>         0.1649
     26 H5         -5.5400   -5.0224    0.0355 H         1 <0>         0.1504
     27 H6         -1.2739   -4.7281    0.0059 H         1 <0>         0.1535
     28 H7         -3.2809   -6.7620   -0.8658 H         1 <0>         0.4041
     29 H8         -6.3379   -2.2705   -0.8367 H         1 <0>         0.4034
     30 H9          3.9502   -0.8223    0.8423 H         1 <0>         0.3919
     31 H10         3.8907    2.3221    0.8592 H         1 <0>         0.3948
@<TRIPOS>BOND
     1    1    6 ar
     2    1    2 ar
     3    1   22 1
     4    2    3 ar
     5    2   23 1
     6    3    4 ar
     7    3   21 1
     8    4    5 ar
     9    4   20 1
    10    5    6 ar
    11    5   24 1
    12    6    7 1
    13    7   17 1
    14    7    8 2
    15    8    9 1
    16    8   25 1
    17    9   10 2
    18    9   11 1
    19   11   16 ar
    20   11   12 ar
    21   12   13 ar
    22   12   19 1
    23   13   14 ar
    24   13   26 1
    25   14   15 ar
    26   14   18 1
    27   15   16 ar
    28   15   27 1
    29   16   17 1
    30   18   28 1
    31   19   29 1
    32   20   30 1
    33   21   31 1
@<TRIPOS>MOLECULE
ZINC03938688
   39    41     0     0     0
SMALL
USER_CHARGES

@<TRIPOS>ATOM
      1 C1         -0.0095    1.3826    0.0704 C.ar      1 <0>        -0.0343
      2 C2          0.5587    1.0580   -1.1482 C.ar      1 <0>        -0.1609
      3 C3          1.7655    0.3862   -1.1955 C.ar      1 <0>         0.1753
      4 C4          2.4129    0.0342   -0.0053 C.ar      1 <0>        -0.1954
      5 C5          1.8304    0.3669    1.2233 C.ar      1 <0>         0.1741
      6 C6          0.6231    1.0388    1.2514 C.ar      1 <0>        -0.1610
      7 F1          2.4463    0.0317    2.3781 F         1 <0>        -0.1212
      8 C7          3.6999   -0.6827   -0.0456 C.2       1 <0>         0.6210
      9 O1          4.7383   -0.0615   -0.1600 O.2       1 <0>        -0.4669
     10 N1          3.7255   -2.0272    0.0446 N.am      1 <0>        -0.3962
     11 C8          4.8314   -2.8210    0.1249 C.2       1 <0>         0.5948
     12 N2          4.4249   -4.0694    0.1979 N.2       1 <0>        -0.5873
     13 C9          3.0869   -4.1118    0.1675 C.2       1 <0>         0.5191
     14 N3          2.6183   -2.8904    0.0808 N.2       1 <0>        -0.3480
     15 N4          2.3148   -5.2702    0.2247 N.pl3     1 <0>        -0.6226
     16 C10         2.9267   -6.5079    0.4407 C.ar      1 <0>         0.2365
     17 C11         4.1432   -6.5760    1.1080 C.ar      1 <0>        -0.1584
     18 C12         4.7450   -7.8008    1.3202 C.ar      1 <0>         0.0098
     19 C13         4.1379   -8.9586    0.8692 C.ar      1 <0>        -0.7033
     20 C14         2.9269   -8.8944    0.2046 C.ar      1 <0>         0.0112
     21 C15         2.3170   -7.6734   -0.0063 C.ar      1 <0>        -0.1777
     22 S1          4.9094  -10.5191    1.1415 S.o2      1 <0>         2.7034
     23 O2          4.4084  -11.3993    0.1448 O.2       1 <0>        -0.9656
     24 O3          6.2977  -10.2630    1.3036 O.2       1 <0>        -0.9650
     25 N5          4.3605  -11.0895    2.5960 N.pl3     1 <0>        -1.2510
     26 N6          6.1422   -2.3912    0.1281 N.pl3     1 <0>        -0.7911
     27 F2          2.3185    0.0697   -2.3868 F         1 <0>        -0.1201
     28 H1         -0.9506    1.9116    0.0998 H         1 <0>         0.1546
     29 H2          0.0576    1.3300   -2.0654 H         1 <0>         0.1549
     30 H3          0.1721    1.2963    2.1984 H         1 <0>         0.1546
     31 H4          1.3525   -5.2176    0.1147 H         1 <0>         0.4325
     32 H5          4.6180   -5.6722    1.4601 H         1 <0>         0.1556
     33 H6          5.6909   -7.8544    1.8385 H         1 <0>         0.1456
     34 H7          2.4556   -9.8005   -0.1466 H         1 <0>         0.1475
     35 H8          1.3691   -7.6243   -0.5215 H         1 <0>         0.1387
     36 H9          3.7284  -10.5673    3.1145 H         1 <0>         0.4165
     37 H10         4.6709  -11.9458    2.9296 H         1 <0>         0.4206
     38 H11         6.3422   -1.4439    0.0694 H         1 <0>         0.4292
     39 H12         6.8640   -3.0364    0.1890 H         1 <0>         0.4303
@<TRIPOS>BOND
     1    1    6 ar
     2    1    2 ar
     3    1   28 1
     4    2    3 ar
     5    2   29 1
     6    3    4 ar
     7    3   27 1
     8    4    5 ar
     9    4    8 1
    10    5    6 ar
    11    5    7 1
    12    6   30 1
    13    8    9 2
    14    8   10 am
    15   10   14 1
    16   10   11 1
    17   11   12 2
    18   11   26 1
    19   12   13 1
    20   13   14 2
    21   13   15 1
    22   15   16 1
    23   15   31 1
    24   16   21 ar
    25   16   17 ar
    26   17   18 ar
    27   17   32 1
    28   18   19 ar
    29   18   33 1
    30   19   20 ar
    31   19   22 1
    32   20   21 ar
    33   20   34 1
    34   21   35 1
    35   22   23 2
    36   22   24 2
    37   22   25 1
    38   25   36 1
    39   25   37 1
    40   26   38 1
    41   26   39 1
@<TRIPOS>MOLECULE
ZINC00582590
   54    56     0     0     0
SMALL
USER_CHARGES

@<TRIPOS>ATOM
      1 C1          0.3210   -0.2542   -0.2950 C.3       1 <0>        -0.1471
      2 C2         -0.6989    0.1485    0.7720 C.3       1 <0>        -0.0980
      3 C3         -0.9526    1.6552    0.6922 C.3       1 <0>        -0.1473
      4 C4         -2.0102   -0.6029    0.5335 C.3       1 <0>         0.1711
      5 H1         -2.4152   -0.3269   -0.4401 H         1 <0>         0.1082
      6 C5         -3.0151   -0.2346    1.6269 C.3       1 <0>         0.0616
      7 O1         -2.4404   -0.4943    2.9092 O.3       1 <0>        -0.5710
      8 N1         -1.7592   -2.0458    0.5668 N.pl3     1 <0>        -0.6786
      9 C6         -2.6062   -2.9119   -0.1051 C.ar      1 <0>         0.6293
     10 N2         -3.6349   -2.4098   -0.7763 N.ar      1 <0>        -0.6062
     11 C7         -4.4751   -3.1988   -1.4363 C.ar      1 <0>         0.5376
     12 C8         -4.2539   -4.5867   -1.4114 C.ar      1 <0>        -0.1535
     13 C9         -3.1523   -5.0726   -0.6878 C.ar      1 <0>         0.3509
     14 N3         -2.3585   -4.2107   -0.0601 N.ar      1 <0>        -0.6161
     15 N4         -3.1762   -6.4368   -0.8324 N.pl3     1 <0>        -0.4727
     16 C10        -4.2520   -6.7464   -1.6124 C.2       1 <0>         0.2292
     17 N5         -4.8825   -5.6599   -1.9508 N.2       1 <0>        -0.4526
     18 C11        -2.2219   -7.3866   -0.2551 C.3       1 <0>         0.1354
     19 C12        -2.9632   -8.3593    0.6643 C.3       1 <0>        -0.1619
     20 C13        -1.5372   -8.1679   -1.3784 C.3       1 <0>        -0.1618
     21 N6         -5.5464   -2.6655   -2.1337 N.pl3     1 <0>        -0.6280
     22 C14        -5.6825   -1.2864   -2.2512 C.ar      1 <0>         0.1488
     23 C15        -4.5525   -0.4885   -2.4166 C.ar      1 <0>        -0.1220
     24 C16        -4.6779    0.8657   -2.5326 C.ar      1 <0>        -0.0594
     25 C17        -5.9451    1.4590   -2.4857 C.ar      1 <0>        -0.1364
     26 C18        -7.0831    0.6589   -2.3195 C.ar      1 <0>         0.0117
     27 C19        -6.9477   -0.7079   -2.2089 C.ar      1 <0>        -0.1557
     28 Cl1        -8.6583    1.3861   -2.2597 Cl        1 <0>        -0.0441
     29 C20        -6.0813    2.9182   -2.6102 C.2       1 <0>         0.5168
     30 O2         -5.0862    3.6154   -2.7549 O.co2     1 <0>        -0.6900
     31 O3         -7.1896    3.4349   -2.5690 O.co2     1 <0>        -0.6630
     32 H2          1.2552    0.2811   -0.1251 H         1 <0>         0.0549
     33 H3          0.5018   -1.3276   -0.2382 H         1 <0>         0.0529
     34 H4         -0.0674   -0.0030   -1.2820 H         1 <0>         0.0568
     35 H5         -0.3105   -0.1028    1.7590 H         1 <0>         0.0821
     36 H6         -1.3236    1.9090   -0.3008 H         1 <0>         0.0629
     37 H7         -1.6929    1.9391    1.4402 H         1 <0>         0.0595
     38 H8         -0.0222    2.1908    0.8803 H         1 <0>         0.0576
     39 H9         -3.2659    0.8232    1.5485 H         1 <0>         0.0601
     40 H10        -3.9187   -0.8321    1.5060 H         1 <0>         0.0503
     41 H11        -3.0232   -0.2835    3.6514 H         1 <0>         0.3749
     42 H12        -0.9999   -2.3948    1.0594 H         1 <0>         0.4127
     43 H13        -4.5374   -7.7457   -1.9061 H         1 <0>         0.2129
     44 H14        -1.4715   -6.8438    0.3196 H         1 <0>         0.1056
     45 H15        -3.7136   -8.9021    0.0895 H         1 <0>         0.0647
     46 H16        -2.2531   -9.0660    1.0938 H         1 <0>         0.0772
     47 H17        -3.4510   -7.8027    1.4645 H         1 <0>         0.0630
     48 H18        -1.0091   -7.4750   -2.0333 H         1 <0>         0.0633
     49 H19        -0.8272   -8.8746   -0.9489 H         1 <0>         0.0771
     50 H20        -2.2876   -8.7108   -1.9531 H         1 <0>         0.0647
     51 H21        -6.2018   -3.2539   -2.5402 H         1 <0>         0.4250
     52 H22        -3.5736   -0.9432   -2.4528 H         1 <0>         0.1261
     53 H23        -3.7989    1.4800   -2.6603 H         1 <0>         0.1350
     54 H24        -7.8223   -1.3294   -2.0853 H         1 <0>         0.1255
@<TRIPOS>BOND
     1    1    2 1
     2    1   32 1
     3    1   33 1
     4    1   34 1
     5    2    3 1
     6    2    4 1
     7    2   35 1
     8    3   36 1
     9    3   37 1
    10    3   38 1
    11    4    5 1
    12    4    6 1
    13    4    8 1
    14    6    7 1
    15    6   39 1
    16    6   40 1
    17    7   41 1
    18    8    9 1
    19    8   42 1
    20    9   14 ar
    21    9   10 ar
    22   10   11 ar
    23   11   12 ar
    24   11   21 1
    25   12   17 1
    26   12   13 ar
    27   13   14 ar
    28   13   15 1
    29   15   16 1
    30   15   18 1
    31   16   17 2
    32   16   43 1
    33   18   19 1
    34   18   20 1
    35   18   44 1
    36   19   45 1
    37   19   46 1
    38   19   47 1
    39   20   48 1
    40   20   49 1
    41   20   50 1
    42   21   22 1
    43   21   51 1
    44   22   27 ar
    45   22   23 ar
    46   23   24 ar
    47   23   52 1
    48   24   25 ar
    49   24   53 1
    50   25   26 ar
    51   25   29 1
    52   26   27 ar
    53   26   28 1
    54   27   54 1
    55   29   30 2
    56   29   31 1
@<TRIPOS>MOLECULE
ZINC00582575
   52    54     0     0     0
SMALL
USER_CHARGES

@<TRIPOS>ATOM
      1 C1          0.4280   -0.4909    1.8513 C.3       1 <0>        -0.1353
      2 C2         -0.1373    0.3043    0.6728 C.3       1 <0>        -0.0998
      3 C3          0.1219    1.7960    0.8928 C.3       1 <0>        -0.1438
      4 C4          0.5445   -0.1465   -0.6206 C.3       1 <0>         0.1707
      5 H1          1.6116    0.0682   -0.5626 H         1 <0>         0.1020
      6 C5         -0.0633    0.6053   -1.8064 C.3       1 <0>         0.0638
      7 O1         -1.4784    0.4070   -1.8214 O.3       1 <0>        -0.5678
      8 N1          0.3453   -1.5866   -0.8014 N.pl3     1 <0>        -0.6843
      9 C6          1.2038   -2.4865   -0.1915 C.ar      1 <0>         0.6278
     10 N2          2.1960   -2.0197    0.5559 N.ar      1 <0>        -0.6013
     11 C7          3.0454   -2.8423    1.1611 C.ar      1 <0>         0.5297
     12 C8          2.8737   -4.2277    0.9949 C.ar      1 <0>        -0.1465
     13 C9          1.8096   -4.6754    0.1948 C.ar      1 <0>         0.3495
     14 N3          1.0032   -3.7820   -0.3699 N.ar      1 <0>        -0.6072
     15 N4          1.8776   -6.0456    0.2064 N.pl3     1 <0>        -0.4700
     16 C10         2.9424   -6.3955    0.9844 C.2       1 <0>         0.2415
     17 N5          3.5251   -5.3277    1.4458 N.2       1 <0>        -0.4572
     18 C11         0.9729   -6.9645   -0.4890 C.3       1 <0>         0.1340
     19 C12         1.7722   -7.8175   -1.4761 C.3       1 <0>        -0.1629
     20 C13         0.2864   -7.8742    0.5318 C.3       1 <0>        -0.1632
     21 N6          4.0779   -2.3459    1.9386 N.pl3     1 <0>        -0.6355
     22 C14         4.2903   -0.9669    2.0207 C.ar      1 <0>         0.1742
     23 C15         4.0436   -0.1577    0.9185 C.ar      1 <0>        -0.1100
     24 C16         4.2538    1.2045    1.0024 C.ar      1 <0>        -0.0884
     25 C17         4.7100    1.7642    2.1819 C.ar      1 <0>        -0.1271
     26 C18         4.9569    0.9617    3.2819 C.ar      1 <0>        -0.0129
     27 C19         4.7429   -0.4020    3.2058 C.ar      1 <0>        -0.1416
     28 Cl1         5.5294    1.6687    4.7604 Cl        1 <0>        -0.0669
     29 H2          0.2433   -1.5536    1.6946 H         1 <0>         0.0430
     30 H3          1.5012   -0.3158    1.9263 H         1 <0>         0.0707
     31 H4         -0.0578   -0.1697    2.7727 H         1 <0>         0.0403
     32 H5         -1.2106    0.1292    0.5978 H         1 <0>         0.0766
     33 H6          1.1945    1.9872    0.8596 H         1 <0>         0.0559
     34 H7         -0.3739    2.3703    0.1101 H         1 <0>         0.0538
     35 H8         -0.2703    2.0934    1.8654 H         1 <0>         0.0560
     36 H9          0.1535    1.6693   -1.7118 H         1 <0>         0.0658
     37 H10         0.3663    0.2281   -2.7345 H         1 <0>         0.0519
     38 H11        -1.9308    0.8561   -2.5484 H         1 <0>         0.3823
     39 H12        -0.3878   -1.9099   -1.3481 H         1 <0>         0.4179
     40 H13         3.2553   -7.4091    1.1873 H         1 <0>         0.2164
     41 H14         0.2195   -6.3923   -1.0303 H         1 <0>         0.1069
     42 H15         2.5256   -8.3897   -0.9348 H         1 <0>         0.0660
     43 H16         1.0991   -8.5011   -1.9935 H         1 <0>         0.0802
     44 H17         2.2613   -7.1693   -2.2033 H         1 <0>         0.0632
     45 H18        -0.2830   -7.2665    1.2351 H         1 <0>         0.0634
     46 H19        -0.3867   -8.5579    0.0144 H         1 <0>         0.0803
     47 H20         1.0399   -8.4464    1.0731 H         1 <0>         0.0660
     48 H21         4.6539   -2.9553    2.4263 H         1 <0>         0.4297
     49 H22         3.6881   -0.5939   -0.0033 H         1 <0>         0.1411
     50 H23         4.0621    1.8335    0.1457 H         1 <0>         0.1337
     51 H24         4.8742    2.8298    2.2445 H         1 <0>         0.1331
     52 H25         4.9317   -1.0277    4.0656 H         1 <0>         0.1347
@<TRIPOS>BOND
     1    1    2 1
     2    1   29 1
     3    1   30 1
     4    1   31 1
     5    2    3 1
     6    2    4 1
     7    2   32 1
     8    3   33 1
     9    3   34 1
    10    3   35 1
    11    4    5 1
    12    4    6 1
    13    4    8 1
    14    6    7 1
    15    6   36 1
    16    6   37 1
    17    7   38 1
    18    8    9 1
    19    8   39 1
    20    9   14 ar
    21    9   10 ar
    22   10   11 ar
    23   11   12 ar
    24   11   21 1
    25   12   17 1
    26   12   13 ar
    27   13   14 ar
    28   13   15 1
    29   15   16 1
    30   15   18 1
    31   16   17 2
    32   16   40 1
    33   18   19 1
    34   18   20 1
    35   18   41 1
    36   19   42 1
    37   19   43 1
    38   19   44 1
    39   20   45 1
    40   20   46 1
    41   20   47 1
    42   21   22 1
    43   21   48 1
    44   22   27 ar
    45   22   23 ar
    46   23   24 ar
    47   23   49 1
    48   24   25 ar
    49   24   50 1
    50   25   26 ar
    51   25   51 1
    52   26   27 ar
    53   26   28 1
    54   27   52 1
@<TRIPOS>MOLECULE
ZINC14806879
   29    31     0     0     0
SMALL
USER_CHARGES

@<TRIPOS>ATOM
      1 C1         -0.0173    1.4248    0.0099 C.3       1 <0>         0.0271
      2 O1          0.0021   -0.0041    0.0020 O.3       1 <0>        -0.3168
      3 C2         -1.2010   -0.6378    0.0101 C.ar      1 <0>         0.1024
      4 C3         -2.3765    0.1026    0.0196 C.ar      1 <0>        -0.1700
      5 C4         -3.6033   -0.5286    0.0283 C.ar      1 <0>        -0.1033
      6 C5         -3.6754   -1.9173    0.0273 C.ar      1 <0>         0.1187
      7 C6         -2.4893   -2.6625    0.0173 C.ar      1 <0>        -0.0676
      8 C7         -1.2551   -2.0214    0.0032 C.ar      1 <0>        -0.0969
      9 C8         -2.8914   -4.0876    0.0188 C.2       1 <0>        -0.1578
     10 C9         -2.0671   -5.1903    0.0116 C.2       1 <0>         0.0629
     11 C10        -2.6439   -6.5349    0.0144 C.2       1 <0>        -0.0242
     12 C11        -1.9450   -7.7254    0.0136 C.2       1 <0>        -0.0035
     13 N1         -2.8729   -8.7189    0.0171 N.pl3     1 <0>        -0.5670
     14 H1         -2.6907   -9.6716    0.0177 H         1 <0>         0.4219
     15 C12        -4.1014   -8.1382    0.0200 C.2       1 <0>         0.1702
     16 N2         -3.9675   -6.8441    0.0243 N.2       1 <0>        -0.4045
     17 C13        -4.3615   -4.0702    0.0302 C.2       1 <0>         0.5403
     18 O2         -5.0890   -5.0470    0.0353 O.2       1 <0>        -0.4371
     19 N3         -4.7617   -2.7874    0.0347 N.am      1 <0>        -0.6638
     20 H2          1.0053    1.8021    0.0021 H         1 <0>         0.1005
     21 H3         -0.5445    1.7859   -0.8732 H         1 <0>         0.0556
     22 H4         -0.5275    1.7763    0.9067 H         1 <0>         0.0557
     23 H5         -2.3296    1.1815    0.0204 H         1 <0>         0.1351
     24 H6         -4.5103    0.0577    0.0364 H         1 <0>         0.1299
     25 H7         -0.3432   -2.6000   -0.0090 H         1 <0>         0.1360
     26 H8         -0.9947   -5.0627    0.0038 H         1 <0>         0.1494
     27 H9         -0.8715   -7.8442    0.0104 H         1 <0>         0.1860
     28 H10        -5.0423   -8.6684    0.0231 H         1 <0>         0.2076
     29 H11        -5.6893   -2.5039    0.0425 H         1 <0>         0.4133
@<TRIPOS>BOND
     1    1    2 1
     2    1   20 1
     3    1   21 1
     4    1   22 1
     5    2    3 1
     6    3    8 ar
     7    3    4 ar
     8    4    5 ar
     9    4   23 1
    10    5    6 ar
    11    5   24 1
    12    6   19 1
    13    6    7 ar
    14    7    8 ar
    15    7    9 1
    16    8   25 1
    17    9   10 2
    18    9   17 1
    19   10   11 1
    20   10   26 1
    21   11   16 1
    22   11   12 2
    23   12   13 1
    24   12   27 1
    25   13   14 1
    26   13   15 1
    27   15   16 2
    28   15   28 1
    29   17   18 2
    30   17   19 am
    31   19   29 1
@<TRIPOS>MOLECULE
ZINC13597821
   29    32     0     0     0
SMALL
USER_CHARGES

@<TRIPOS>ATOM
      1 C1         -0.0166    1.3747    0.0096 C.ar      1 <0>        -0.1351
      2 C2          1.1715    2.0889    0.0021 C.ar      1 <0>        -0.1558
      3 C3          2.3855    1.4335   -0.0135 C.ar      1 <0>        -0.1218
      4 C4          2.4252    0.0445   -0.0218 C.ar      1 <0>         0.0729
      5 C5          1.2214   -0.6772   -0.0137 C.ar      1 <0>         0.0050
      6 C6          0.0021   -0.0041    0.0020 C.ar      1 <0>        -0.1283
      7 C7          1.5978   -2.1033   -0.0257 C.2       1 <0>        -0.4073
      8 C8          2.9951   -2.1359   -0.0400 C.2       1 <0>         0.4869
      9 N1          3.4697   -0.8656   -0.0376 N.pl3     1 <0>        -0.6262
     10 H1          4.4099   -0.6273   -0.0461 H         1 <0>         0.3986
     11 O1          3.7515   -3.2537   -0.0541 O.3       1 <0>        -0.6939
     12 C9          0.7215   -3.2139   -0.0224 C.2       1 <0>         0.3290
     13 N2          0.2356   -3.8187   -1.0822 N.2       1 <0>        -0.4601
     14 C10        -0.5829   -4.8606   -0.7652 C.ar      1 <0>         0.1157
     15 C11        -1.2960   -5.7560   -1.5635 C.ar      1 <0>        -0.1051
     16 C12        -2.0695   -6.7423   -0.9784 C.ar      1 <0>        -0.0810
     17 C13        -2.1481   -6.8571    0.3980 C.ar      1 <0>        -0.1494
     18 C14        -1.4485   -5.9800    1.2105 C.ar      1 <0>        -0.0317
     19 C15        -0.6689   -4.9852    0.6382 C.ar      1 <0>        -0.2474
     20 C16         0.1882   -3.9130    1.1902 C.2       1 <0>         0.3791
     21 O2          0.4068   -3.6573    2.3562 O.2       1 <0>        -0.3882
     22 H2         -0.9601    1.9000    0.0260 H         1 <0>         0.1069
     23 H3          1.1465    3.1686    0.0081 H         1 <0>         0.1089
     24 H4          3.3050    2.0001   -0.0196 H         1 <0>         0.1064
     25 H5         -0.9242   -0.5593    0.0075 H         1 <0>         0.1029
     26 H6         -1.2443   -5.6785   -2.6395 H         1 <0>         0.1325
     27 H7         -2.6188   -7.4307   -1.6035 H         1 <0>         0.1305
     28 H8         -2.7565   -7.6322    0.8400 H         1 <0>         0.1293
     29 H9         -1.5098   -6.0701    2.2850 H         1 <0>         0.1267
@<TRIPOS>BOND
     1    1    6 ar
     2    1    2 ar
     3    1   22 1
     4    2    3 ar
     5    2   23 1
     6    3    4 ar
     7    3   24 1
     8    4    9 1
     9    4    5 ar
    10    5    6 ar
    11    5    7 1
    12    6   25 1
    13    7    8 2
    14    7   12 1
    15    8    9 1
    16    8   11 1
    17    9   10 1
    18   12   20 1
    19   12   13 2
    20   13   14 1
    21   14   19 ar
    22   14   15 ar
    23   15   16 ar
    24   15   26 1
    25   16   17 ar
    26   16   27 1
    27   17   18 ar
    28   17   28 1
    29   18   19 ar
    30   18   29 1
    31   19   20 1
    32   20   21 2
@<TRIPOS>MOLECULE
ZINC12355112
   41    43     0     0     0
SMALL
USER_CHARGES

@<TRIPOS>ATOM
      1 C1         -0.1028    1.0961   -0.3671 C.ar      1 <0>        -0.0514
      2 C2          0.1939    0.2453    0.6818 C.ar      1 <0>        -0.1484
      3 C3          1.4264   -0.3800    0.7402 C.ar      1 <0>         0.1639
      4 C4          2.3673   -0.1521   -0.2572 C.ar      1 <0>         0.0453
      5 C5          2.0653    0.7038   -1.3099 C.ar      1 <0>         0.1303
      6 C6          0.8305    1.3253   -1.3612 C.ar      1 <0>        -0.1508
      7 F1          2.9766    0.9287   -2.2816 F         1 <0>        -0.1242
      8 N1          3.6170   -0.7832   -0.2014 N.pl3     1 <0>        -0.5829
      9 C7          3.7027   -2.0774    0.1649 C.2       1 <0>         0.5287
     10 S1          2.2783   -2.9758    0.4732 S.2       1 <0>        -0.4610
     11 N2          4.9096   -2.6643    0.2886 N.pl3     1 <0>        -0.3704
     12 C8          5.1565   -3.9777    0.5555 C.2       1 <0>         0.6130
     13 N3          6.4609   -4.1414    0.5939 N.2       1 <0>        -0.5881
     14 C9          7.0702   -2.9726    0.3596 C.2       1 <0>         0.5344
     15 N4          6.1641   -2.0459    0.1621 N.2       1 <0>        -0.3900
     16 N5          8.4494   -2.7737    0.3248 N.pl3     1 <0>        -0.6253
     17 C10         9.3156   -3.8654    0.4276 C.ar      1 <0>         0.2308
     18 C11         8.9430   -5.1006   -0.0877 C.ar      1 <0>        -0.1475
     19 C12         9.8015   -6.1774    0.0157 C.ar      1 <0>         0.0049
     20 C13        11.0306   -6.0273    0.6313 C.ar      1 <0>        -0.6997
     21 C14        11.4044   -4.7993    1.1458 C.ar      1 <0>         0.0107
     22 C15        10.5534   -3.7167    1.0403 C.ar      1 <0>        -0.1718
     23 S2         12.1228   -7.4039    0.7609 S.o2      1 <0>         2.7036
     24 O1         12.9813   -7.1389    1.8619 O.2       1 <0>        -0.9640
     25 O2         11.3155   -8.5710    0.6881 O.2       1 <0>        -0.9611
     26 N6         13.0757   -7.4022   -0.5934 N.pl3     1 <0>        -1.2489
     27 N7          4.2074   -4.9604    0.7511 N.pl3     1 <0>        -0.7789
     28 F2          1.7155   -1.2107    1.7657 F         1 <0>        -0.0889
     29 H1         -1.0676    1.5793   -0.4122 H         1 <0>         0.1524
     30 H2         -0.5376    0.0691    1.4566 H         1 <0>         0.1538
     31 H3          0.5950    1.9905   -2.1789 H         1 <0>         0.1534
     32 H4          4.4206   -0.2887   -0.4264 H         1 <0>         0.4283
     33 H5          8.8079   -1.8774    0.2293 H         1 <0>         0.4322
     34 H6          7.9831   -5.2186   -0.5683 H         1 <0>         0.1467
     35 H7          9.5123   -7.1380   -0.3844 H         1 <0>         0.1464
     36 H8         12.3649   -4.6855    1.6262 H         1 <0>         0.1476
     37 H9         10.8481   -2.7567    1.4378 H         1 <0>         0.1386
     38 H10        13.9781   -7.7554   -0.5519 H         1 <0>         0.4215
     39 H11        12.7314   -7.0480   -1.4282 H         1 <0>         0.4170
     40 H12         3.2665   -4.7264    0.7830 H         1 <0>         0.4323
     41 H13         4.4811   -5.8849    0.8567 H         1 <0>         0.4174
@<TRIPOS>BOND
     1    1    6 ar
     2    1    2 ar
     3    1   29 1
     4    2    3 ar
     5    2   30 1
     6    3    4 ar
     7    3   28 1
     8    4    5 ar
     9    4    8 1
    10    5    6 ar
    11    5    7 1
    12    6   31 1
    13    8    9 1
    14    8   32 1
    15    9   10 2
    16    9   11 1
    17   11   15 1
    18   11   12 1
    19   12   13 2
    20   12   27 1
    21   13   14 1
    22   14   15 2
    23   14   16 1
    24   16   17 1
    25   16   33 1
    26   17   22 ar
    27   17   18 ar
    28   18   19 ar
    29   18   34 1
    30   19   20 ar
    31   19   35 1
    32   20   21 ar
    33   20   23 1
    34   21   22 ar
    35   21   36 1
    36   22   37 1
    37   23   24 2
    38   23   25 2
    39   23   26 1
    40   26   38 1
    41   26   39 1
    42   27   40 1
    43   27   41 1
@<TRIPOS>MOLECULE
ZINC12354940
   36    41     0     0     0
SMALL
USER_CHARGES

@<TRIPOS>ATOM
      1 C1         -0.0166    1.3735    0.0096 C.ar      1 <0>        -0.1479
      2 C2          1.1715    2.0889    0.0021 C.ar      1 <0>        -0.0724
      3 C3          2.3842    1.4344   -0.0130 C.ar      1 <0>        -0.1443
      4 C4          2.4249    0.0433   -0.0208 C.ar      1 <0>         0.1440
      5 C5          1.2217   -0.6796   -0.0132 C.ar      1 <0>        -0.1070
      6 C6          0.0021   -0.0041    0.0020 C.ar      1 <0>        -0.0471
      7 C7          1.5900   -2.1053   -0.0244 C.ar      1 <0>        -0.0113
      8 C8          0.8450   -3.2914   -0.0236 C.ar      1 <0>        -0.1089
      9 C9          1.5048   -4.5329   -0.0368 C.ar      1 <0>        -0.1090
     10 C10         2.9047   -4.5788   -0.0507 C.ar      1 <0>        -0.0113
     11 C11         3.8802   -5.6817   -0.0671 C.ar      1 <0>        -0.1071
     12 C12         3.7578   -7.0705   -0.0742 C.ar      1 <0>        -0.0471
     13 C13         4.8890   -7.8567   -0.0904 C.ar      1 <0>        -0.1479
     14 C14         6.1466   -7.2721   -0.0996 C.ar      1 <0>        -0.0724
     15 C15         6.2826   -5.9007   -0.0927 C.ar      1 <0>        -0.1443
     16 C16         5.1525   -5.0888   -0.0765 C.ar      1 <0>         0.1440
     17 N1          4.9928   -3.7159   -0.0666 N.pl3     1 <0>        -0.6062
     18 H1          5.7195   -3.0734   -0.0704 H         1 <0>         0.4202
     19 C17         3.6507   -3.3893   -0.0512 C.ar      1 <0>         0.1470
     20 C18         2.9933   -2.1524   -0.0381 C.ar      1 <0>         0.1470
     21 N2          3.4735   -0.8571   -0.0356 N.pl3     1 <0>        -0.6063
     22 H2          4.4125   -0.6141   -0.0429 H         1 <0>         0.4202
     23 C19         0.4437   -5.5556   -0.0320 C.2       1 <0>         0.5841
     24 O1          0.6177   -6.7581   -0.0399 O.2       1 <0>        -0.4586
     25 N3         -0.7498   -4.9352   -0.0170 N.am      1 <0>        -0.6811
     26 C20        -0.5964   -3.5989   -0.0112 C.2       1 <0>         0.5840
     27 O2         -1.4957   -2.7819    0.0023 O.2       1 <0>        -0.4587
     28 H3         -0.9603    1.8985    0.0259 H         1 <0>         0.1315
     29 H4          1.1462    3.1686    0.0077 H         1 <0>         0.1328
     30 H5          3.3035    2.0013   -0.0190 H         1 <0>         0.1270
     31 H6         -0.9246   -0.5587    0.0082 H         1 <0>         0.1419
     32 H7          2.7797   -7.5284   -0.0668 H         1 <0>         0.1419
     33 H8          4.7961   -8.9327   -0.0956 H         1 <0>         0.1315
     34 H9          7.0273   -7.8971   -0.1119 H         1 <0>         0.1328
     35 H10         7.2667   -5.4559   -0.0996 H         1 <0>         0.1270
     36 H11        -1.6062   -5.3906   -0.0108 H         1 <0>         0.4318
@<TRIPOS>BOND
     1    1    6 ar
     2    1    2 ar
     3    1   28 1
     4    2    3 ar
     5    2   29 1
     6    3    4 ar
     7    3   30 1
     8    4   21 1
     9    4    5 ar
    10    5    6 ar
    11    5    7 1
    12    6   31 1
    13    7   20 ar
    14    7    8 ar
    15    8   26 1
    16    8    9 ar
    17    9   10 ar
    18    9   23 1
    19   10   19 ar
    20   10   11 1
    21   11   16 ar
    22   11   12 ar
    23   12   13 ar
    24   12   32 1
    25   13   14 ar
    26   13   33 1
    27   14   15 ar
    28   14   34 1
    29   15   16 ar
    30   15   35 1
    31   16   17 1
    32   17   18 1
    33   17   19 1
    34   19   20 ar
    35   20   21 1
    36   21   22 1
    37   23   24 2
    38   23   25 am
    39   25   26 am
    40   25   36 1
    41   26   27 2
@<TRIPOS>MOLECULE
ZINC03873285
   35    37     0     0     0
SMALL
USER_CHARGES

@<TRIPOS>ATOM
      1 C1         -0.0126    1.0758    0.0080 C.2       1 <0>         0.2458
      2 N1         -1.0879    1.8075    0.0278 N.2       1 <0>        -0.4437
      3 H1          2.0169    1.5751   -0.0093 H         1 <0>         0.4321
      4 C2         -0.7417    3.1187    0.0304 C.ar      1 <0>        -0.1173
      5 C3          0.6623    3.1759    0.0104 C.ar      1 <0>         0.3458
      6 N2          1.0941    1.8737    0.0017 N.pl3     1 <0>        -0.5824
      7 N3          1.2618    4.3618    0.0086 N.ar      1 <0>        -0.5978
      8 C4          0.5483    5.4757    0.0254 C.ar      1 <0>         0.6265
      9 N4         -0.7789    5.4662    0.0446 N.ar      1 <0>        -0.6206
     10 C5         -1.4569    4.3263    0.0478 C.ar      1 <0>         0.4766
     11 O1         -2.8114    4.3275    0.0679 O.3       1 <0>        -0.2772
     12 C6         -3.4589    5.6013    0.0847 C.3       1 <0>         0.0692
     13 C7         -4.9757    5.4021    0.1061 C.3       1 <0>        -0.0870
     14 C8         -5.4214    4.7387   -1.1986 C.3       1 <0>        -0.1149
     15 C9         -6.9382    4.5395   -1.1772 C.3       1 <0>        -0.1199
     16 C10        -7.6289    5.8972   -1.0336 C.3       1 <0>        -0.1220
     17 C11        -7.1832    6.5607    0.2711 C.3       1 <0>        -0.1180
     18 C12        -5.6663    6.7598    0.2497 C.3       1 <0>        -0.1110
     19 N5          1.2087    6.6933    0.0233 N.pl3     1 <0>        -0.8136
     20 H2          0.0021   -0.0041    0.0020 H         1 <0>         0.2282
     21 H3         -3.1523    6.1530    0.9734 H         1 <0>         0.0718
     22 H4         -3.1787    6.1630   -0.8064 H         1 <0>         0.0719
     23 H5         -5.2468    4.7657    0.9484 H         1 <0>         0.0826
     24 H6         -5.1503    5.3751   -2.0409 H         1 <0>         0.0612
     25 H7         -4.9294    3.7714   -1.3009 H         1 <0>         0.0704
     26 H8         -7.2558    4.0669   -2.1067 H         1 <0>         0.0627
     27 H9         -7.2093    3.9031   -0.3349 H         1 <0>         0.0628
     28 H10        -7.3578    6.5337   -1.8759 H         1 <0>         0.0615
     29 H11        -8.7095    5.7554   -1.0184 H         1 <0>         0.0617
     30 H12        -7.6752    7.5279    0.3734 H         1 <0>         0.0646
     31 H13        -7.4542    5.9242    1.1134 H         1 <0>         0.0634
     32 H14        -5.3488    7.2324    1.1792 H         1 <0>         0.0656
     33 H15        -5.3953    7.3962   -0.5926 H         1 <0>         0.0661
     34 H16         0.7015    7.5201    0.0355 H         1 <0>         0.4177
     35 H17         2.1782    6.7192    0.0098 H         1 <0>         0.4174
@<TRIPOS>BOND
     1    1   20 1
     2    1    6 1
     3    1    2 2
     4    2    4 1
     5    3    6 1
     6    4    5 ar
     7    4   10 ar
     8    5    6 1
     9    5    7 ar
    10    7    8 ar
    11    8    9 ar
    12    8   19 1
    13    9   10 ar
    14   10   11 1
    15   11   12 1
    16   12   13 1
    17   12   21 1
    18   12   22 1
    19   13   18 1
    20   13   14 1
    21   13   23 1
    22   14   15 1
    23   14   24 1
    24   14   25 1
    25   15   16 1
    26   15   26 1
    27   15   27 1
    28   16   17 1
    29   16   28 1
    30   16   29 1
    31   17   18 1
    32   17   30 1
    33   17   31 1
    34   18   32 1
    35   18   33 1
    36   19   35 1
    37   19   34 1
@<TRIPOS>MOLECULE
ZINC03873285
   36    38     0     0     0
SMALL
USER_CHARGES

@<TRIPOS>ATOM
      1 C1         -0.0126    1.0758    0.0080 C.2       1 <0>         0.3100
      2 N1         -1.0879    1.8075    0.0278 N.2       1 <0>        -0.4318
      3 H1          2.0169    1.5751   -0.0093 H         1 <0>         0.4527
      4 C2         -0.7417    3.1187    0.0304 C.ar      1 <0>        -0.0738
      5 C3          0.6623    3.1759    0.0104 C.ar      1 <0>         0.3823
      6 N2          1.0941    1.8737    0.0017 N.pl3     1 <0>        -0.5585
      7 N3          1.2618    4.3618    0.0086 N.ar      1 <0>        -0.5166
      8 C4          0.5483    5.4757    0.0254 C.ar      1 <0>         0.6503
      9 N4         -0.7789    5.4662    0.0446 N.ar      1 <0>        -0.5806
     10 C5         -1.4569    4.3263    0.0478 C.ar      1 <0>         0.5087
     11 O1         -2.8114    4.3275    0.0679 O.3       1 <0>        -0.2368
     12 C6         -3.4589    5.6013    0.0847 C.3       1 <0>         0.0208
     13 C7         -4.9757    5.4021    0.1061 C.3       1 <0>        -0.0831
     14 C8         -5.4214    4.7387   -1.1986 C.3       1 <0>        -0.1190
     15 C9         -6.9382    4.5395   -1.1772 C.3       1 <0>        -0.1216
     16 C10        -7.6289    5.8972   -1.0336 C.3       1 <0>        -0.1256
     17 C11        -7.1832    6.5607    0.2711 C.3       1 <0>        -0.1201
     18 C12        -5.6663    6.7598    0.2497 C.3       1 <0>        -0.1129
     19 N5          1.2087    6.6933    0.0233 N.pl3     1 <0>        -0.7895
     20 H2          0.0021   -0.0041    0.0020 H         1 <0>         0.2544
     21 H3         -3.1523    6.1530    0.9734 H         1 <0>         0.0915
     22 H4         -3.1787    6.1630   -0.8064 H         1 <0>         0.0910
     23 H5         -5.2468    4.7657    0.9484 H         1 <0>         0.0971
     24 H6         -5.1503    5.3751   -2.0409 H         1 <0>         0.0655
     25 H7         -4.9294    3.7714   -1.3009 H         1 <0>         0.0716
     26 H8         -7.2558    4.0669   -2.1067 H         1 <0>         0.0699
     27 H9         -7.2093    3.9031   -0.3349 H         1 <0>         0.0670
     28 H10        -7.3578    6.5337   -1.8759 H         1 <0>         0.0639
     29 H11        -8.7095    5.7554   -1.0184 H         1 <0>         0.0693
     30 H12        -7.6752    7.5279    0.3734 H         1 <0>         0.0723
     31 H13        -7.4542    5.9242    1.1134 H         1 <0>         0.0678
     32 H14        -5.3488    7.2324    1.1792 H         1 <0>         0.0697
     33 H15        -5.3953    7.3962   -0.5926 H         1 <0>         0.0701
     34 H16         0.7015    7.5201    0.0355 H         1 <0>         0.4305
     35 H17         2.1782    6.7192    0.0098 H         1 <0>         0.4482
     36 H18        -1.2613    6.3076    0.0568 H         1 <0>         0.4451
@<TRIPOS>BOND
     1    1   20 1
     2    1    6 1
     3    1    2 2
     4    2    4 1
     5    3    6 1
     6    4    5 ar
     7    4   10 ar
     8    5    6 1
     9    5    7 ar
    10    7    8 ar
    11    8    9 ar
    12    8   19 1
    13    9   10 ar
    14    9   36 1
    15   10   11 1
    16   11   12 1
    17   12   13 1
    18   12   21 1
    19   12   22 1
    20   13   18 1
    21   13   14 1
    22   13   23 1
    23   14   15 1
    24   14   24 1
    25   14   25 1
    26   15   16 1
    27   15   26 1
    28   15   27 1
    29   16   17 1
    30   16   28 1
    31   16   29 1
    32   17   18 1
    33   17   30 1
    34   17   31 1
    35   18   32 1
    36   18   33 1
    37   19   35 1
    38   19   34 1
@<TRIPOS>MOLECULE
ZINC01641925
   40    42     0     0     0
SMALL
USER_CHARGES

@<TRIPOS>ATOM
      1 C1         -0.0178    1.4608    0.0101 C.3       1 <0>         0.0831
      2 N1          0.0021   -0.0041    0.0020 N.pl3     1 <0>        -0.4808
      3 C2          0.0085   -0.8054   -1.1023 C.2       1 <0>         0.2308
      4 N2          0.0274   -2.0557   -0.7436 N.2       1 <0>        -0.4545
      5 C3          0.0343   -2.1368    0.6098 C.ar      1 <0>        -0.1554
      6 C4          0.0236   -0.8217    1.1034 C.ar      1 <0>         0.3460
      7 N3          0.0327   -0.6231    2.4177 N.ar      1 <0>        -0.6159
      8 C5          0.0544   -1.6488    3.2534 C.ar      1 <0>         0.6298
      9 N4          0.0680   -2.9065    2.8307 N.ar      1 <0>        -0.6237
     10 C6          0.0525   -3.1954    1.5342 C.ar      1 <0>         0.5415
     11 N5          0.0685   -4.5100    1.1029 N.pl3     1 <0>        -0.6890
     12 C7          0.0874   -5.6013    2.0801 C.3       1 <0>         0.1707
     13 C8          0.1022   -6.9232    1.3567 C.ar      1 <0>        -0.1135
     14 C9         -1.0881   -7.5430    1.0249 C.ar      1 <0>        -0.0983
     15 C10        -1.0745   -8.7555    0.3613 C.ar      1 <0>        -0.1220
     16 C11         0.1294   -9.3482    0.0290 C.ar      1 <0>        -0.1103
     17 C12         1.3196   -8.7280    0.3600 C.ar      1 <0>        -0.1222
     18 C13         1.3060   -7.5133    1.0198 C.ar      1 <0>        -0.0984
     19 N6          0.0637   -1.4010    4.6162 N.pl3     1 <0>        -0.6906
     20 C14         0.0877   -2.5182    5.5636 C.3       1 <0>         0.1417
     21 C15         0.0936   -1.9741    6.9936 C.3       1 <0>         0.0611
     22 O1         -1.1346   -1.2892    7.2477 O.3       1 <0>        -0.5709
     23 H1          1.0048    1.8381    0.0023 H         1 <0>         0.0748
     24 H2         -0.5450    1.8219   -0.8730 H         1 <0>         0.0893
     25 H3         -0.5280    1.8123    0.9069 H         1 <0>         0.0882
     26 H4         -0.0013   -0.4536   -2.1234 H         1 <0>         0.2190
     27 H5          0.0672   -4.7091    0.1536 H         1 <0>         0.4197
     28 H6          0.9790   -5.5172    2.7015 H         1 <0>         0.0778
     29 H7         -0.8008   -5.5413    2.7091 H         1 <0>         0.0779
     30 H8         -2.0286   -7.0800    1.2846 H         1 <0>         0.1238
     31 H9         -2.0044   -9.2401    0.1028 H         1 <0>         0.1245
     32 H10         0.1400  -10.2958   -0.4888 H         1 <0>         0.1237
     33 H11         2.2602   -9.1911    0.1006 H         1 <0>         0.1244
     34 H12         2.2359   -7.0270    1.2750 H         1 <0>         0.1237
     35 H13         0.0543   -0.4879    4.9432 H         1 <0>         0.4161
     36 H14        -0.7954   -3.1397    5.4150 H         1 <0>         0.0745
     37 H15         0.9844   -3.1155    5.3984 H         1 <0>         0.0812
     38 H16         0.2009   -2.8004    7.6963 H         1 <0>         0.0659
     39 H17         0.9273   -1.2826    7.1158 H         1 <0>         0.0536
     40 H18        -1.2006   -0.9172    8.1379 H         1 <0>         0.3829
@<TRIPOS>BOND
     1    1    2 1
     2    1   23 1
     3    1   24 1
     4    1   25 1
     5    2    6 1
     6    2    3 1
     7    3    4 2
     8    3   26 1
     9    4    5 1
    10    5   10 ar
    11    5    6 ar
    12    6    7 ar
    13    7    8 ar
    14    8    9 ar
    15    8   19 1
    16    9   10 ar
    17   10   11 1
    18   11   12 1
    19   11   27 1
    20   12   13 1
    21   12   28 1
    22   12   29 1
    23   13   18 ar
    24   13   14 ar
    25   14   15 ar
    26   14   30 1
    27   15   16 ar
    28   15   31 1
    29   16   17 ar
    30   16   32 1
    31   17   18 ar
    32   17   33 1
    33   18   34 1
    34   19   20 1
    35   19   35 1
    36   20   21 1
    37   20   36 1
    38   20   37 1
    39   21   22 1
    40   21   38 1
    41   21   39 1
    42   22   40 1
@<TRIPOS>MOLECULE
ZINC00027361
   25    26     0     0     0
SMALL
USER_CHARGES

@<TRIPOS>ATOM
      1 C1         -0.0178    1.4608    0.0101 C.3       1 <0>         0.1357
      2 N1          0.0021   -0.0041    0.0020 N.am      1 <0>        -0.6248
      3 C2         -1.0449   -0.8567    0.0019 C.2       1 <0>         0.6732
      4 O1         -2.1925   -0.4520    0.0087 O.2       1 <0>        -0.5165
      5 N2         -0.7693   -2.1544   -0.0063 N.am      1 <0>        -0.5753
      6 C3          0.5347   -2.5056   -0.0139 C.2       1 <0>         0.4694
      7 O2          1.0169   -3.6232   -0.0227 O.2       1 <0>        -0.4283
      8 S1          1.3293   -1.0262   -0.0167 S.3       1 <0>         0.2579
      9 C4         -1.8327   -3.1620   -0.0067 C.3       1 <0>         0.1592
     10 C5         -2.2040   -3.4999   -1.4276 C.ar      1 <0>        -0.1254
     11 C6         -3.1939   -2.7823   -2.0726 C.ar      1 <0>        -0.0909
     12 C7         -3.5345   -3.0922   -3.3760 C.ar      1 <0>        -0.1249
     13 C8         -2.8850   -4.1196   -4.0345 C.ar      1 <0>        -0.1064
     14 C9         -1.8945   -4.8367   -3.3897 C.ar      1 <0>        -0.1240
     15 C10        -1.5510   -4.5239   -2.0878 C.ar      1 <0>        -0.0951
     16 H1          1.0048    1.8381    0.0023 H         1 <0>         0.0973
     17 H2         -0.5450    1.8219   -0.8730 H         1 <0>         0.0830
     18 H3         -0.5280    1.8123    0.9069 H         1 <0>         0.0838
     19 H4         -1.4819   -4.0607    0.5007 H         1 <0>         0.1095
     20 H5         -2.7061   -2.7687    0.5134 H         1 <0>         0.1105
     21 H6         -3.7013   -1.9796   -1.5582 H         1 <0>         0.1288
     22 H7         -4.3083   -2.5320   -3.8797 H         1 <0>         0.1253
     23 H8         -3.1516   -4.3622   -5.0525 H         1 <0>         0.1249
     24 H9         -1.3873   -5.6395   -3.9041 H         1 <0>         0.1260
     25 H10        -0.7746   -5.0817   -1.5853 H         1 <0>         0.1272
@<TRIPOS>BOND
     1    1    2 1
     2    1   16 1
     3    1   17 1
     4    1   18 1
     5    2    8 1
     6    2    3 am
     7    3    4 2
     8    3    5 am
     9    5    6 am
    10    5    9 1
    11    6    7 2
    12    6    8 1
    13    9   10 1
    14    9   19 1
    15    9   20 1
    16   10   15 ar
    17   10   11 ar
    18   11   12 ar
    19   11   21 1
    20   12   13 ar
    21   12   22 1
    22   13   14 ar
    23   13   23 1
    24   14   15 ar
    25   14   24 1
    26   15   25 1
@<TRIPOS>MOLECULE
ZINC00582597
   54    56     0     0     0
SMALL
USER_CHARGES

@<TRIPOS>ATOM
      1 C1          0.4191   -0.2472   -0.3017 C.3       1 <0>        -0.1473
      2 C2         -0.5886    0.1616    0.7746 C.3       1 <0>        -0.1019
      3 C3         -0.8365    1.6692    0.6949 C.3       1 <0>        -0.1431
      4 C4         -1.9054   -0.5844    0.5499 C.3       1 <0>         0.1751
      5 H1         -2.3182   -0.3087   -0.4205 H         1 <0>         0.1021
      6 C5         -2.8985   -0.2092    1.6517 C.3       1 <0>         0.0628
      7 O1         -2.3130   -0.4685    2.9292 O.3       1 <0>        -0.5687
      8 N1         -1.6607   -2.0284    0.5841 N.pl3     1 <0>        -0.6803
      9 C6         -2.5178   -2.8920   -0.0780 C.ar      1 <0>         0.6256
     10 N2         -3.5505   -2.3867   -0.7408 N.ar      1 <0>        -0.6068
     11 C7         -4.4003   -3.1734   -1.3912 C.ar      1 <0>         0.5338
     12 C8         -4.1851   -4.5625   -1.3653 C.ar      1 <0>        -0.1476
     13 C9         -3.0791   -5.0517   -0.6509 C.ar      1 <0>         0.3500
     14 N3         -2.2756   -4.1918   -0.0324 N.ar      1 <0>        -0.6068
     15 N4         -3.1107   -6.4160   -0.7917 N.pl3     1 <0>        -0.4702
     16 C10        -4.1951   -6.7226   -1.5608 C.2       1 <0>         0.2413
     17 N5         -4.8237   -5.6340   -1.8960 N.2       1 <0>        -0.4566
     18 C11        -2.1553   -7.3688   -0.2210 C.3       1 <0>         0.1341
     19 C12        -2.8924   -8.3357    0.7078 C.3       1 <0>        -0.1632
     20 C13        -1.4848   -8.1561   -1.3486 C.3       1 <0>        -0.1629
     21 N6         -5.4752   -2.6371   -2.0797 N.pl3     1 <0>        -0.6356
     22 C14        -5.6066   -1.2508   -2.2001 C.ar      1 <0>         0.2188
     23 C15        -4.4794   -0.4581   -2.3663 C.ar      1 <0>        -0.1871
     24 C16        -4.6134    0.9179   -2.4855 C.ar      1 <0>         0.2470
     25 C17        -5.8751    1.4985   -2.4382 C.ar      1 <0>        -0.2072
     26 C18        -6.9961    0.7066   -2.2722 C.ar      1 <0>         0.0350
     27 C19        -6.8659   -0.6656   -2.1593 C.ar      1 <0>        -0.1969
     28 Cl1        -8.5706    1.4353   -2.2124 Cl        1 <0>        -0.0667
     29 N7         -3.4813    1.7186   -2.6523 N.pl3     1 <0>        -0.8706
     30 H2          1.3572    0.2842   -0.1416 H         1 <0>         0.0575
     31 H3          0.5957   -1.3213   -0.2449 H         1 <0>         0.0559
     32 H4          0.0223    0.0043   -1.2852 H         1 <0>         0.0528
     33 H5         -0.1918   -0.0900    1.7581 H         1 <0>         0.0858
     34 H6         -1.2157    1.9233   -0.2949 H         1 <0>         0.0550
     35 H7         -1.5685    1.9575    1.4494 H         1 <0>         0.0587
     36 H8          0.0981    2.2010    0.8735 H         1 <0>         0.0598
     37 H9         -3.1453    0.8496    1.5733 H         1 <0>         0.0542
     38 H10        -3.8059   -0.8029    1.5406 H         1 <0>         0.0495
     39 H11        -2.8880   -0.2534    3.6763 H         1 <0>         0.3777
     40 H12        -0.8985   -2.3797    1.0704 H         1 <0>         0.4154
     41 H13        -4.4883   -7.7214   -1.8488 H         1 <0>         0.2165
     42 H14        -1.3971   -6.8280    0.3453 H         1 <0>         0.1068
     43 H15        -3.6507   -8.8765    0.1415 H         1 <0>         0.0660
     44 H16        -2.1816   -9.0446    1.1324 H         1 <0>         0.0802
     45 H17        -3.3701   -7.7748    1.5111 H         1 <0>         0.0633
     46 H18        -2.2431   -8.6969   -1.9149 H         1 <0>         0.0660
     47 H19        -0.9597   -7.4672   -2.0103 H         1 <0>         0.0632
     48 H20        -0.7740   -8.8650   -0.9240 H         1 <0>         0.0801
     49 H21        -6.1372   -3.2235   -2.4783 H         1 <0>         0.4303
     50 H22        -3.4998   -0.9114   -2.4024 H         1 <0>         0.1351
     51 H23        -5.9800    2.5694   -2.5310 H         1 <0>         0.1308
     52 H24        -7.7437   -1.2824   -2.0345 H         1 <0>         0.1321
     53 H25        -2.6008    1.3129   -2.6849 H         1 <0>         0.3997
     54 H26        -3.5755    2.6804   -2.7356 H         1 <0>         0.4011
@<TRIPOS>BOND
     1    1    2 1
     2    1   30 1
     3    1   31 1
     4    1   32 1
     5    2    3 1
     6    2    4 1
     7    2   33 1
     8    3   34 1
     9    3   35 1
    10    3   36 1
    11    4    5 1
    12    4    6 1
    13    4    8 1
    14    6    7 1
    15    6   37 1
    16    6   38 1
    17    7   39 1
    18    8    9 1
    19    8   40 1
    20    9   14 ar
    21    9   10 ar
    22   10   11 ar
    23   11   12 ar
    24   11   21 1
    25   12   17 1
    26   12   13 ar
    27   13   14 ar
    28   13   15 1
    29   15   16 1
    30   15   18 1
    31   16   17 2
    32   16   41 1
    33   18   19 1
    34   18   20 1
    35   18   42 1
    36   19   43 1
    37   19   44 1
    38   19   45 1
    39   20   46 1
    40   20   47 1
    41   20   48 1
    42   21   22 1
    43   21   49 1
    44   22   27 ar
    45   22   23 ar
    46   23   24 ar
    47   23   50 1
    48   24   25 ar
    49   24   29 1
    50   25   26 ar
    51   25   51 1
    52   26   27 ar
    53   26   28 1
    54   27   52 1
    55   29   53 1
    56   29   54 1
@<TRIPOS>MOLECULE
ZINC13442468
   30    32     0     0     0
SMALL
USER_CHARGES
4-[5-[(3-iodophenyl)methylsulfanyl]-1,3,4-oxadiazol-2-yl]pyridine
@<TRIPOS>ATOM
      1 C1         -1.6725   -8.0669   -1.2239 C.ar      1 <0>        -0.1124
      2 C2         -1.1216   -6.7988   -1.2216 C.ar      1 <0>        -0.0774
      3 C3         -0.8351   -6.1716   -0.0237 C.ar      1 <0>        -0.0842
      4 C4         -1.0944   -6.8143    1.1725 C.ar      1 <0>        -0.0627
      5 C5         -1.6509   -8.0801    1.1706 C.ar      1 <0>        -0.1015
      6 C6         -1.9372   -8.7076   -0.0283 C.ar      1 <0>        -0.0715
      7 I1         -2.0520   -9.0510    2.9832 I         1 <0>        -0.0323
      8 C7         -0.2342   -4.7896   -0.0216 C.3       1 <0>        -0.0770
      9 S1         -1.5585   -3.5560   -0.0027 S.3       1 <0>         0.0856
     10 C8         -0.5997   -2.0777   -0.0034 C.2       1 <0>         0.1376
     11 N1          0.7123   -2.0016   -0.0155 N.2       1 <0>        -0.2823
     12 N2          1.0690   -0.7655   -0.0180 N.2       1 <0>        -0.2489
     13 C9          0.0021   -0.0041    0.0020 C.2       1 <0>         0.2044
     14 O1         -1.0764   -0.8189    0.0079 O.3       1 <0>        -0.1970
     15 C10        -0.0180    1.4727    0.0101 C.ar      1 <0>         0.0218
     16 C11        -1.2291    2.1763    0.0196 C.ar      1 <0>        -0.1399
     17 C12        -1.2009    3.5548    0.0323 C.ar      1 <0>         0.1069
     18 N3         -0.0551    4.2095    0.0248 N.ar      1 <0>        -0.4680
     19 C13         1.1081    3.5863    0.0108 C.ar      1 <0>         0.1074
     20 C14         1.1736    2.2090    0.0027 C.ar      1 <0>        -0.1223
     21 H1         -1.8956   -8.5570   -2.1601 H         1 <0>         0.1383
     22 H2         -0.9148   -6.2983   -2.1560 H         1 <0>         0.1359
     23 H3         -0.8661   -6.3262    2.1084 H         1 <0>         0.1350
     24 H4         -2.3671   -9.6984   -0.0302 H         1 <0>         0.1343
     25 H5          0.3737   -4.6564   -0.9165 H         1 <0>         0.1168
     26 H6          0.3900   -4.6662    0.8633 H         1 <0>         0.1152
     27 H7         -2.1705    1.6471    0.0211 H         1 <0>         0.1456
     28 H8         -2.1293    4.1064    0.0437 H         1 <0>         0.1685
     29 H9          2.0212    4.1629    0.0052 H         1 <0>         0.1707
     30 H10         2.1290    1.7056   -0.0088 H         1 <0>         0.1533
@<TRIPOS>BOND
     1    1    6 ar
     2    1    2 ar
     3    1   21 1
     4    2    3 ar
     5    2   22 1
     6    3    4 ar
     7    3    8 1
     8    4    5 ar
     9    4   23 1
    10    5    6 ar
    11    5    7 1
    12    6   24 1
    13    8    9 1
    14    8   25 1
    15    8   26 1
    16    9   10 1
    17   10   14 1
    18   10   11 2
    19   11   12 1
    20   12   13 2
    21   13   14 1
    22   13   15 1
    23   15   20 ar
    24   15   16 ar
    25   16   17 ar
    26   16   27 1
    27   17   18 ar
    28   17   28 1
    29   18   19 ar
    30   19   20 ar
    31   19   29 1
    32   20   30 1
@<TRIPOS>MOLECULE
ZINC03816409
   50    52     0     0     0
SMALL
USER_CHARGES
N-[5-[(5-tert-butyloxazol-2-yl)methylsulfanyl]thiazol-2-yl]piperidine-4-carboxamide
@<TRIPOS>ATOM
      1 C1         -0.0127    1.0858    0.0080 C.3       1 <0>        -0.1425
      2 C2         -0.7288    1.5792    1.2668 C.3       1 <0>         0.0153
      3 C3          0.0111    1.0724    2.5063 C.3       1 <0>        -0.1429
      4 C4         -0.7496    3.1091    1.2752 C.3       1 <0>        -0.1470
      5 C5         -2.1426    1.0576    1.2775 C.2       1 <0>        -0.0059
      6 C6         -2.5173   -0.2324    1.2742 C.2       1 <0>        -0.0384
      7 N1         -3.8616   -0.2670    1.2868 N.2       1 <0>        -0.4461
      8 C7         -4.3108    0.9556    1.2976 C.2       1 <0>         0.1754
      9 O1         -3.2687    1.7975    1.2981 O.3       1 <0>        -0.1872
     10 C8         -5.7633    1.3568    1.3132 C.3       1 <0>        -0.0274
     11 S1         -6.3302    1.5091    3.0296 S.3       1 <0>         0.0531
     12 C9         -8.0223    1.9770    2.8797 C.2       1 <0>        -0.2079
     13 C10        -8.9445    2.2293    3.8504 C.2       1 <0>         0.0730
     14 N2        -10.1733    2.5704    3.5096 N.2       1 <0>        -0.4781
     15 C11       -10.5307    2.6731    2.2430 C.2       1 <0>         0.3098
     16 S2         -9.0031    2.2599    1.4114 S.3       1 <0>         0.0397
     17 N3        -11.7659    3.0158    1.7000 N.am      1 <0>        -0.6146
     18 C12       -12.8034    3.3002    2.5119 C.2       1 <0>         0.5107
     19 O2        -12.6609    3.2576    3.7157 O.2       1 <0>        -0.4551
     20 C13       -14.1405    3.6713    1.9241 C.3       1 <0>        -0.1149
     21 C14       -13.9915    4.9332    1.0698 C.3       1 <0>        -0.1461
     22 C15       -15.3628    5.3397    0.5255 C.3       1 <0>         0.0009
     23 C16       -16.4761    4.3789    2.4515 C.3       1 <0>        -0.0009
     24 C17       -15.1380    3.9438    3.0534 C.3       1 <0>        -0.1323
     25 H1          0.0021   -0.0041    0.0020 H         1 <0>         0.0648
     26 H2          1.0099    1.4631    0.0003 H         1 <0>         0.0750
     27 H3         -0.5399    1.4469   -0.8751 H         1 <0>         0.0608
     28 H4          1.0337    1.4497    2.4986 H         1 <0>         0.0751
     29 H5         -0.4990    1.4239    3.4031 H         1 <0>         0.0616
     30 H6          0.0259   -0.0175    2.5003 H         1 <0>         0.0649
     31 H7         -1.2768    3.4701    0.3922 H         1 <0>         0.0605
     32 H8         -1.2598    3.4606    2.1720 H         1 <0>         0.0616
     33 H9          0.2730    3.4864    1.2675 H         1 <0>         0.0706
     34 H10        -1.8578   -1.0876    1.2633 H         1 <0>         0.1891
     35 H11        -5.8813    2.3140    0.8053 H         1 <0>         0.1204
     36 H12        -6.3553    0.5983    0.8010 H         1 <0>         0.1329
     37 H13        -8.6718    2.1504    4.8925 H         1 <0>         0.1794
     38 H14       -11.8799    3.0499    0.7373 H         1 <0>         0.4267
     39 H15       -14.5061    2.8521    1.3049 H         1 <0>         0.1234
     40 H16       -13.5885    5.7409    1.6809 H         1 <0>         0.0995
     41 H17       -13.3151    4.7324    0.2390 H         1 <0>         0.1172
     42 H18       -15.7590    4.5372   -0.0967 H         1 <0>         0.1349
     43 H19       -15.2623    6.2461   -0.0715 H         1 <0>         0.1387
     44 H20       -16.8671    3.5809    1.8204 H         1 <0>         0.1334
     45 H21       -17.1842    4.5877    3.2534 H         1 <0>         0.1392
     46 H22       -15.2808    3.0361    3.6398 H         1 <0>         0.1229
     47 H23       -14.7528    4.7354    3.6961 H         1 <0>         0.1008
     48 N4        -16.2857    5.6006    1.6466 N.4       1 <0>        -0.5187
     49 H24       -17.1928    5.9050    1.2741 H         1 <0>         0.4395
     50 H25       -15.8944    6.3401    2.2417 H         1 <0>         0.4347
@<TRIPOS>BOND
     1    1    2 1
     2    1   25 1
     3    1   26 1
     4    1   27 1
     5    2    3 1
     6    2    4 1
     7    2    5 1
     8    3   28 1
     9    3   29 1
    10    3   30 1
    11    4   31 1
    12    4   32 1
    13    4   33 1
    14    5    9 1
    15    5    6 2
    16    6    7 1
    17    6   34 1
    18    7    8 2
    19    8    9 1
    20    8   10 1
    21   10   11 1
    22   10   35 1
    23   10   36 1
    24   11   12 1
    25   12   16 1
    26   12   13 2
    27   13   14 1
    28   13   37 1
    29   14   15 2
    30   15   16 1
    31   15   17 1
    32   17   18 am
    33   17   38 1
    34   18   19 2
    35   18   20 1
    36   20   24 1
    37   20   21 1
    38   20   39 1
    39   21   22 1
    40   21   40 1
    41   21   41 1
    42   22   42 1
    43   22   43 1
    44   22   48 1
    45   23   24 1
    46   23   44 1
    47   23   45 1
    48   23   48 1
    49   24   46 1
    50   24   47 1
    51   48   49 1
    52   48   50 1
@<TRIPOS>MOLECULE
ZINC01639355
   31    34     0     0     0
SMALL
USER_CHARGES

@<TRIPOS>ATOM
      1 C1         -0.0166    1.3732    0.0096 C.ar      1 <0>        -0.1257
      2 C2          1.1748    2.0786    0.0020 C.ar      1 <0>        -0.0832
      3 C3          2.3792    1.4098    0.0056 C.ar      1 <0>        -0.1400
      4 C4          2.4210    0.0136    0.0061 C.ar      1 <0>         0.1789
      5 C5          1.2194   -0.6945   -0.0178 C.ar      1 <0>        -0.0582
      6 C6          0.0021   -0.0041    0.0020 C.ar      1 <0>        -0.0848
      7 C7          1.1765   -2.1700   -0.1110 C.2       1 <0>         0.1249
      8 C8          2.0458   -2.9289   -0.8258 C.2       1 <0>        -0.1473
      9 C9          1.6305   -4.3071   -0.6826 C.ar      1 <0>        -0.0956
     10 C10         2.1330   -5.5059   -1.2017 C.ar      1 <0>        -0.0291
     11 C11         1.4744   -6.6587   -0.8492 C.ar      1 <0>        -0.1144
     12 C12         0.3640   -6.6479   -0.0195 C.ar      1 <0>        -0.0709
     13 C13        -0.1535   -5.4768    0.5077 C.ar      1 <0>        -0.1209
     14 C14         0.4938   -4.2910    0.1676 C.ar      1 <0>         0.1207
     15 N1          0.2503   -2.9898    0.5038 N.pl3     1 <0>        -0.5782
     16 H1         -0.4640   -2.6874    1.0863 H         1 <0>         0.4210
     17 Br1         2.1020   -8.3126   -1.5175 Br        1 <0>        -0.0539
     18 C15         3.2306   -2.3907   -1.5888 C.3       1 <0>        -0.0636
     19 C16         4.1060   -1.6483   -0.6094 C.2       1 <0>         0.5307
     20 O1          5.2428   -2.0303   -0.4280 O.2       1 <0>        -0.5234
     21 N2          3.6660   -0.5863    0.0608 N.am      1 <0>        -0.6636
     22 H2         -0.9584    1.9016    0.0259 H         1 <0>         0.1335
     23 H3          1.1598    3.1584   -0.0064 H         1 <0>         0.1345
     24 H4          3.3016    1.9714    0.0076 H         1 <0>         0.1356
     25 H5         -0.9274   -0.5540    0.0114 H         1 <0>         0.1274
     26 H6          2.9973   -5.5236   -1.8490 H         1 <0>         0.1433
     27 H7         -0.1141   -7.5852    0.2239 H         1 <0>         0.1348
     28 H8         -1.0196   -5.4824    1.1528 H         1 <0>         0.1402
     29 H9          3.7892   -3.2143   -2.0334 H         1 <0>         0.1154
     30 H10         2.8897   -1.7104   -2.3693 H         1 <0>         0.1052
     31 H11         4.3030   -0.1787    0.6682 H         1 <0>         0.4064
@<TRIPOS>BOND
     1    1    6 ar
     2    1    2 ar
     3    1   22 1
     4    2    3 ar
     5    2   23 1
     6    3    4 ar
     7    3   24 1
     8    4   21 1
     9    4    5 ar
    10    5    6 ar
    11    5    7 1
    12    6   25 1
    13    7   15 1
    14    7    8 2
    15    8    9 1
    16    8   18 1
    17    9   14 ar
    18    9   10 ar
    19   10   11 ar
    20   10   26 1
    21   11   12 ar
    22   11   17 1
    23   12   13 ar
    24   12   27 1
    25   13   14 ar
    26   13   28 1
    27   14   15 1
    28   15   16 1
    29   18   19 1
    30   18   29 1
    31   18   30 1
    32   19   20 2
    33   19   21 am
    34   21   31 1
@<TRIPOS>MOLECULE
ZINC02047389
   35    37     0     0     0
SMALL
USER_CHARGES
4-(2-amino-4-methyl-thiazol-5-yl)-N-(3-nitrophenyl)-pyrimidin-2-amine
@<TRIPOS>ATOM
      1 C1         -0.3352    9.7451    0.3855 C.3       1 <0>        -0.0905
      2 C2          1.0683   10.2863    0.4765 C.2       1 <0>         0.1892
      3 C3          2.1516    9.4456    0.4437 C.2       1 <0>        -0.2443
      4 S1          3.4879   10.6229    0.5913 S.3       1 <0>         0.0803
      5 C4          2.5163   12.0599    0.6693 C.2       1 <0>         0.3677
      6 N1          1.2883   11.5754    0.5891 N.2       1 <0>        -0.5897
      7 N2          2.9227   13.3752    0.7905 N.pl3     1 <0>        -0.7863
      8 C5          2.1999    7.9776    0.3258 C.ar      1 <0>         0.3332
      9 C6          3.4297    7.3038    0.3117 C.ar      1 <0>        -0.2707
     10 C7          3.4239    5.9278    0.2000 C.ar      1 <0>         0.2012
     11 N3          2.2663    5.2881    0.1154 N.ar      1 <0>        -0.5701
     12 C8          1.1176    5.9489    0.1256 C.ar      1 <0>         0.5646
     13 N4          1.0742    7.2675    0.2311 N.ar      1 <0>        -0.5547
     14 N5         -0.0691    5.2405    0.0290 N.pl3     1 <0>        -0.6363
     15 C9         -0.0510    3.8425    0.0333 C.ar      1 <0>         0.1760
     16 C10        -0.9835    3.1319   -0.7120 C.ar      1 <0>        -0.1004
     17 C11        -0.9631    1.7513   -0.7052 C.ar      1 <0>        -0.0922
     18 C12        -0.0158    1.0757    0.0425 C.ar      1 <0>        -0.0777
     19 C13         0.9104    1.7799    0.7896 C.ar      1 <0>        -0.0222
     20 C14         0.8989    3.1611    0.7830 C.ar      1 <0>        -0.0570
     21 N6          1.9186    1.0527    1.5932 N.pl3     1 <0>         0.0280
     22 O1          1.9320   -0.1652    1.5961 O.2       1 <0>        -0.1580
     23 O2          2.7348    1.6723    2.2515 O.3       1 <0>        -0.1552
     24 H1         -0.7077    9.5307    1.3872 H         1 <0>         0.0791
     25 H2         -0.9794   10.4840   -0.0912 H         1 <0>         0.0712
     26 H3         -0.3338    8.8291   -0.2054 H         1 <0>         0.0997
     27 H4          2.2629   14.0853    0.8267 H         1 <0>         0.4203
     28 H5          3.8677   13.5883    0.8394 H         1 <0>         0.4243
     29 H6          4.3593    7.8485    0.3862 H         1 <0>         0.1461
     30 H7          4.3533    5.3778    0.1861 H         1 <0>         0.1761
     31 H8         -0.9125    5.7144   -0.0416 H         1 <0>         0.4300
     32 H9         -1.7237    3.6588   -1.2958 H         1 <0>         0.1460
     33 H10        -1.6880    1.1983   -1.2841 H         1 <0>         0.1526
     34 H11        -0.0023   -0.0042    0.0464 H         1 <0>         0.1544
     35 H12         1.6253    3.7105    1.3635 H         1 <0>         0.1650
@<TRIPOS>BOND
     1    1    2 1
     2    1   24 1
     3    1   25 1
     4    1   26 1
     5    2    6 1
     6    2    3 2
     7    3    4 1
     8    3    8 1
     9    4    5 1
    10    5    6 2
    11    5    7 1
    12    7   27 1
    13    7   28 1
    14    8   13 ar
    15    8    9 ar
    16    9   10 ar
    17    9   29 1
    18   10   11 ar
    19   10   30 1
    20   11   12 ar
    21   12   13 ar
    22   12   14 1
    23   14   15 1
    24   14   31 1
    25   15   20 ar
    26   15   16 ar
    27   16   17 ar
    28   16   32 1
    29   17   18 ar
    30   17   33 1
    31   18   19 ar
    32   18   34 1
    33   19   20 ar
    34   19   21 1
    35   20   35 1
    36   21   22 2
    37   21   23 1
@<TRIPOS>MOLECULE
ZINC03814479
   35    36     0     0     0
SMALL
USER_CHARGES

@<TRIPOS>ATOM
      1 C1         -0.1624    1.4988   -0.0987 C.3       1 <0>        -0.1225
      2 C2          1.2633    2.0541   -0.0967 C.3       1 <0>        -0.1177
      3 C3          2.0049    1.5598   -1.3403 C.3       1 <0>        -0.1110
      4 C4          2.0532    0.0306   -1.3312 C.3       1 <0>        -0.0858
      5 C5          0.6275   -0.5247   -1.3332 C.3       1 <0>        -0.1160
      6 C6         -0.1141   -0.0304   -0.0896 C.3       1 <0>        -0.1194
      7 C7          2.7948   -0.4637   -2.5748 C.3       1 <0>         0.0638
      8 O1          2.9420   -1.8836   -2.5087 O.3       1 <0>        -0.2450
      9 C8          3.5799   -2.4823   -3.5373 C.ar      1 <0>         0.4866
     10 C9          3.7748   -3.9405   -3.5626 C.ar      1 <0>        -0.3011
     11 C10         4.4823   -4.4957   -4.7293 C.ar      1 <0>         0.5773
     12 N1          4.8911   -3.6519   -5.6674 N.ar      1 <0>        -0.6557
     13 C11         4.6765   -2.3486   -5.5709 C.ar      1 <0>         0.6842
     14 N2          4.0437   -1.7761   -4.5554 N.ar      1 <0>        -0.6663
     15 N3          5.1323   -1.5420   -6.5855 N.pl3     1 <0>        -0.7899
     16 N4          4.7118   -5.8437   -4.8418 N.pl3     1 <0>        -0.7841
     17 N5          3.3359   -4.7160   -2.5840 N.2       1 <0>        -0.2982
     18 O2          2.8608   -4.2182   -1.5790 O.2       1 <0>         0.0318
     19 H1         -0.6907    1.8510    0.7872 H         1 <0>         0.0617
     20 H2         -0.6841    1.8405   -0.9927 H         1 <0>         0.0602
     21 H3          1.2289    3.1435   -0.1032 H         1 <0>         0.0636
     22 H4          1.7850    1.7124    0.7973 H         1 <0>         0.0647
     23 H5          1.4832    1.9015   -2.2343 H         1 <0>         0.0647
     24 H6          3.0206    1.9554   -1.3389 H         1 <0>         0.0647
     25 H7          2.5749   -0.3111   -0.4372 H         1 <0>         0.0879
     26 H8          0.1058   -0.1830   -2.2271 H         1 <0>         0.0582
     27 H9          0.6619   -1.6141   -1.3267 H         1 <0>         0.0767
     28 H10         0.4076   -0.3721    0.8044 H         1 <0>         0.0655
     29 H11        -1.1298   -0.4260   -0.0910 H         1 <0>         0.0630
     30 H12         2.2263   -0.1985   -3.4662 H         1 <0>         0.0733
     31 H13         3.7793    0.0020   -2.6198 H         1 <0>         0.0741
     32 H14         5.5959   -1.9312   -7.3435 H         1 <0>         0.4222
     33 H15         4.9905   -0.5833   -6.5438 H         1 <0>         0.4222
     34 H16         4.3427   -6.4549   -4.1852 H         1 <0>         0.4275
     35 H17         5.2430   -6.1855   -5.5779 H         1 <0>         0.4185
@<TRIPOS>BOND
     1    1    6 1
     2    1    2 1
     3    1   19 1
     4    1   20 1
     5    2    3 1
     6    2   21 1
     7    2   22 1
     8    3    4 1
     9    3   23 1
    10    3   24 1
    11    4    5 1
    12    4    7 1
    13    4   25 1
    14    5    6 1
    15    5   26 1
    16    5   27 1
    17    6   28 1
    18    6   29 1
    19    7    8 1
    20    7   30 1
    21    7   31 1
    22    8    9 1
    23    9   14 ar
    24    9   10 ar
    25   10   11 ar
    26   10   17 1
    27   11   12 ar
    28   11   16 1
    29   12   13 ar
    30   13   14 ar
    31   13   15 1
    32   15   32 1
    33   15   33 1
    34   16   34 1
    35   16   35 1
    36   17   18 2
@<TRIPOS>MOLECULE
ZINC01586981
   24    26     0     0     0
SMALL
USER_CHARGES
8-phenyl-2,5,7-triazabicyclo[4.3.0]nona-1,3,5,8-tetraene
@<TRIPOS>ATOM
      1 C1         -6.3783    0.5537    0.0676 C.ar      1 <0>        -0.1078
      2 C2         -5.7229    1.7722    0.0671 C.ar      1 <0>        -0.1136
      3 C3         -4.3441    1.8173    0.0539 C.ar      1 <0>        -0.0893
      4 C4         -3.6103    0.6302    0.0406 C.ar      1 <0>        -0.0389
      5 C5         -4.2776   -0.5956    0.0354 C.ar      1 <0>        -0.1092
      6 C6         -5.6567   -0.6268    0.0549 C.ar      1 <0>        -0.1142
      7 C7         -2.1323    0.6710    0.0260 C.2       1 <0>         0.1545
      8 C8         -1.3788    1.7985    0.0306 C.2       1 <0>        -0.1631
      9 C9         -0.0171    1.4075    0.0098 C.ar      1 <0>         0.0562
     10 C10         0.0021   -0.0041    0.0020 C.ar      1 <0>         0.2365
     11 N1         -1.3055   -0.4296    0.0122 N.pl3     1 <0>        -0.5649
     12 H1         -1.5977   -1.3545    0.0097 H         1 <0>         0.4239
     13 N2          1.1638   -0.6424   -0.0118 N.ar      1 <0>        -0.4503
     14 C11         2.2921    0.0434   -0.0183 C.ar      1 <0>         0.0851
     15 C12         2.2753    1.4302   -0.0107 C.ar      1 <0>         0.0432
     16 N3          1.1303    2.0845    0.0025 N.ar      1 <0>        -0.4049
     17 H2         -7.4578    0.5239    0.0782 H         1 <0>         0.1281
     18 H3         -6.2919    2.6901    0.0774 H         1 <0>         0.1318
     19 H4         -3.8337    2.7690    0.0543 H         1 <0>         0.1338
     20 H5         -3.7155   -1.5177    0.0210 H         1 <0>         0.1196
     21 H6         -6.1743   -1.5747    0.0553 H         1 <0>         0.1289
     22 H7         -1.7502    2.8125    0.0416 H         1 <0>         0.1614
     23 H8          3.2365   -0.4802   -0.0299 H         1 <0>         0.1777
     24 H9          3.2061    1.9780   -0.0161 H         1 <0>         0.1756
@<TRIPOS>BOND
     1    1    6 ar
     2    1    2 ar
     3    1   17 1
     4    2    3 ar
     5    2   18 1
     6    3    4 ar
     7    3   19 1
     8    4    5 ar
     9    4    7 1
    10    5    6 ar
    11    5   20 1
    12    6   21 1
    13    7   11 1
    14    7    8 2
    15    8    9 1
    16    8   22 1
    17    9   16 ar
    18    9   10 ar
    19   10   11 1
    20   10   13 ar
    21   11   12 1
    22   13   14 ar
    23   14   15 ar
    24   14   23 1
    25   15   16 ar
    26   15   24 1
@<TRIPOS>MOLECULE
ZINC02540738
   40    42     0     0     0
SMALL
USER_CHARGES
9-butyl-8-(4-methoxyphenyl)-2,5,7-triazabicyclo[4.3.0]nona-1,3,5,8-tetraene
@<TRIPOS>ATOM
      1 C1          0.7182   -0.4975   -1.2568 C.3       1 <0>        -0.1532
      2 C2          0.0021   -0.0041    0.0020 C.3       1 <0>        -0.1236
      3 C3         -0.0187    1.5258    0.0104 C.3       1 <0>        -0.1106
      4 C4         -0.7348    2.0192    1.2692 C.3       1 <0>        -0.0494
      5 C5         -0.7552    3.5260    1.2775 C.2       1 <0>        -0.1285
      6 C6         -1.7631    4.3509    0.7198 C.ar      1 <0>         0.0631
      7 C7         -1.3742    5.6873    0.9568 C.ar      1 <0>         0.2358
      8 N1         -0.1764    5.6499    1.6320 N.pl3     1 <0>        -0.5635
      9 H1          0.3290    6.4233    1.9275 H         1 <0>         0.4243
     10 C8          0.1851    4.3357    1.8254 C.2       1 <0>         0.1567
     11 C9          1.4082    3.8785    2.5181 C.ar      1 <0>        -0.0797
     12 C10         1.3380    2.8439    3.4529 C.ar      1 <0>        -0.0460
     13 C11         2.4814    2.4179    4.0938 C.ar      1 <0>        -0.2057
     14 C12         3.7008    3.0226    3.8176 C.ar      1 <0>         0.1433
     15 C13         3.7741    4.0553    2.8920 C.ar      1 <0>        -0.1490
     16 C14         2.6359    4.4841    2.2436 C.ar      1 <0>        -0.0605
     17 O1          4.8248    2.6030    4.4549 O.3       1 <0>        -0.3141
     18 C15         4.6780    1.5366    5.3947 C.3       1 <0>         0.0242
     19 N2         -2.1469    6.6779    0.5347 N.ar      1 <0>        -0.4505
     20 C16        -3.2720    6.4100   -0.1028 C.ar      1 <0>         0.0831
     21 C17        -3.6556    5.0983   -0.3369 C.ar      1 <0>         0.0403
     22 N3         -2.9011    4.0978    0.0750 N.ar      1 <0>        -0.4019
     23 H2          0.7330   -1.5874   -1.2628 H         1 <0>         0.0533
     24 H3          0.1910   -0.1364   -2.1398 H         1 <0>         0.0533
     25 H4          1.7408   -0.1202   -1.2645 H         1 <0>         0.0523
     26 H5          0.5293   -0.3651    0.8851 H         1 <0>         0.0601
     27 H6         -1.0205   -0.3814    0.0098 H         1 <0>         0.0624
     28 H7          1.0039    1.9031    0.0027 H         1 <0>         0.0598
     29 H8         -0.5459    1.8868   -0.8726 H         1 <0>         0.0622
     30 H9         -1.7574    1.6419    1.2770 H         1 <0>         0.0779
     31 H10        -0.2076    1.6581    2.1523 H         1 <0>         0.0735
     32 H11         0.3894    2.3759    3.6712 H         1 <0>         0.1362
     33 H12         2.4285    1.6153    4.8146 H         1 <0>         0.1361
     34 H13         4.7241    4.5233    2.6801 H         1 <0>         0.1372
     35 H14         2.6935    5.2878    1.5244 H         1 <0>         0.1307
     36 H15         5.6487    1.3000    5.8304 H         1 <0>         0.1034
     37 H16         3.9898    1.8397    6.1837 H         1 <0>         0.0583
     38 H17         4.2835    0.6565    4.8868 H         1 <0>         0.0590
     39 H18        -3.8990    7.2200   -0.4451 H         1 <0>         0.1760
     40 H19        -4.5781    4.8943   -0.8602 H         1 <0>         0.1738
@<TRIPOS>BOND
     1    1    2 1
     2    1   23 1
     3    1   24 1
     4    1   25 1
     5    2    3 1
     6    2   26 1
     7    2   27 1
     8    3    4 1
     9    3   28 1
    10    3   29 1
    11    4    5 1
    12    4   30 1
    13    4   31 1
    14    5   10 2
    15    5    6 1
    16    6   22 ar
    17    6    7 ar
    18    7    8 1
    19    7   19 ar
    20    8    9 1
    21    8   10 1
    22   10   11 1
    23   11   16 ar
    24   11   12 ar
    25   12   13 ar
    26   12   32 1
    27   13   14 ar
    28   13   33 1
    29   14   15 ar
    30   14   17 1
    31   15   16 ar
    32   15   34 1
    33   16   35 1
    34   17   18 1
    35   18   36 1
    36   18   37 1
    37   18   38 1
    38   19   20 ar
    39   20   21 ar
    40   20   39 1
    41   21   22 ar
    42   21   40 1
@<TRIPOS>MOLECULE
ZINC03924157
   42    44     0     0     0
SMALL
USER_CHARGES

@<TRIPOS>ATOM
      1 C1          0.0101    1.6421    0.3204 C.3       1 <0>        -0.1518
      2 C2          0.1186    0.1164    0.3567 C.3       1 <0>        -0.1211
      3 C3         -1.2696   -0.4983    0.1673 C.3       1 <0>        -0.1176
      4 C4         -1.1611   -2.0240    0.2036 C.3       1 <0>         0.0797
      5 O1         -2.4577   -2.5981    0.0267 O.3       1 <0>        -0.3182
      6 C5         -2.5376   -3.9490    0.0337 C.ar      1 <0>         0.3009
      7 C6         -2.4048   -4.6898   -1.1534 C.ar      1 <0>        -0.2628
      8 C7         -2.1841   -4.3376   -2.5058 C.2       1 <0>         0.1084
      9 N1         -2.1427   -5.4289   -3.2138 N.2       1 <0>        -0.2329
     10 N2         -2.3302   -6.5390   -2.3823 N.pl3     1 <0>        -0.4786
     11 H1         -2.3414   -7.4662   -2.6668 H         1 <0>         0.4513
     12 C8         -2.4941   -6.0931   -1.1008 C.ar      1 <0>         0.3506
     13 N3         -2.7018   -6.7129    0.0590 N.ar      1 <0>        -0.5083
     14 C9         -2.8306   -6.0553    1.1864 C.ar      1 <0>         0.2389
     15 C10        -2.7500   -4.6562    1.2280 C.ar      1 <0>        -0.2892
     16 C11        -2.8911   -3.9380    2.5059 C.2       1 <0>         0.4589
     17 O2         -2.8480   -2.7224    2.5285 O.2       1 <0>        -0.4082
     18 C12        -3.0849   -4.6927    3.7588 C.ar      1 <0>        -0.2304
     19 C13        -1.9802   -5.1967    4.4549 C.ar      1 <0>         0.1655
     20 C14        -2.1710   -5.9025    5.6276 C.ar      1 <0>        -0.1646
     21 C15        -3.4490   -6.1113    6.1138 C.ar      1 <0>        -0.0074
     22 C16        -4.5465   -5.6172    5.4322 C.ar      1 <0>        -0.1646
     23 C17        -4.3741   -4.9038    4.2612 C.ar      1 <0>         0.1694
     24 F1         -5.4470   -4.4168    3.6002 F         1 <0>        -0.1191
     25 C18        -3.6469   -6.8822    7.3935 C.3       1 <0>        -0.1226
     26 F2         -0.7311   -4.9942    3.9816 F         1 <0>        -0.1212
     27 H2          0.9991    2.0800    0.4554 H         1 <0>         0.0572
     28 H3         -0.3975    1.9546   -0.6409 H         1 <0>         0.0562
     29 H4         -0.6486    1.9787    1.1211 H         1 <0>         0.0567
     30 H5          0.7773   -0.2201   -0.4439 H         1 <0>         0.0641
     31 H6          0.5263   -0.1961    1.3181 H         1 <0>         0.0646
     32 H7         -1.9283   -0.1617    0.9679 H         1 <0>         0.0796
     33 H8         -1.6773   -0.1858   -0.7941 H         1 <0>         0.0746
     34 H9         -0.5024   -2.3605   -0.5970 H         1 <0>         0.0581
     35 H10        -0.7534   -2.3365    1.1650 H         1 <0>         0.0597
     36 H11        -2.0700   -3.3333   -2.8863 H         1 <0>         0.2037
     37 H12        -2.9979   -6.6030    2.1020 H         1 <0>         0.1745
     38 H13        -1.3198   -6.2925    6.1659 H         1 <0>         0.1517
     39 H14        -5.5409   -5.7852    5.8188 H         1 <0>         0.1519
     40 H15        -3.6335   -6.1936    8.2383 H         1 <0>         0.0851
     41 H16        -4.6059   -7.3994    7.3615 H         1 <0>         0.0787
     42 H17        -2.8445   -7.6113    7.5063 H         1 <0>         0.0787
@<TRIPOS>BOND
     1    1    2 1
     2    1   27 1
     3    1   28 1
     4    1   29 1
     5    2    3 1
     6    2   30 1
     7    2   31 1
     8    3    4 1
     9    3   32 1
    10    3   33 1
    11    4    5 1
    12    4   34 1
    13    4   35 1
    14    5    6 1
    15    6   15 ar
    16    6    7 ar
    17    7   12 ar
    18    7    8 1
    19    8    9 2
    20    8   36 1
    21    9   10 1
    22   10   11 1
    23   10   12 1
    24   12   13 ar
    25   13   14 ar
    26   14   15 ar
    27   14   37 1
    28   15   16 1
    29   16   17 2
    30   16   18 1
    31   18   23 ar
    32   18   19 ar
    33   19   20 ar
    34   19   26 1
    35   20   21 ar
    36   20   38 1
    37   21   22 ar
    38   21   25 1
    39   22   23 ar
    40   22   39 1
    41   23   24 1
    42   25   40 1
    43   25   41 1
    44   25   42 1
@<TRIPOS>MOLECULE
ZINC03924157
   43    45     0     0     0
SMALL
USER_CHARGES
(4-butoxy-1H-pyrazolo[4,3-e]pyridin-5-yl)-(2,6-difluoro-4-methyl-phenyl)methanone
@<TRIPOS>ATOM
      1 C1          0.1011    1.4806    2.6683 C.3       1 <0>        -0.1549
      2 C2         -0.6446    2.0412    1.4556 C.3       1 <0>        -0.1207
      3 C3         -0.1038    1.3925    0.1798 C.3       1 <0>        -0.1215
      4 C4         -0.8495    1.9532   -1.0328 C.3       1 <0>         0.0785
      5 O1         -0.3443    1.3474   -2.2245 O.3       1 <0>        -0.3140
      6 C5         -0.9012    1.7362   -3.3949 C.ar      1 <0>         0.4111
      7 C6         -2.0154    1.0643   -3.9269 C.ar      1 <0>        -0.2694
      8 C7         -2.7950   -0.0329   -3.4911 C.2       1 <0>         0.2084
      9 N1         -3.7283   -0.2502   -4.3716 N.pl3     1 <0>        -0.3496
     10 N2         -3.6067    0.6639   -5.4245 N.2       1 <0>        -0.2899
     11 H1         -4.4269   -0.9627   -4.3059 H         1 <0>         0.4840
     12 C8         -2.5540    1.4926   -5.1544 C.ar      1 <0>         0.2939
     13 C9         -0.9841    3.1805   -5.3339 C.ar      1 <0>         0.3099
     14 C10        -0.3868    2.8261   -4.1159 C.ar      1 <0>        -0.2802
     15 C11         0.7738    3.5764   -3.6073 C.2       1 <0>         0.4651
     16 O2          1.3236    3.2243   -2.5808 O.2       1 <0>        -0.3775
     17 C12         1.2700    4.7552   -4.3428 C.ar      1 <0>        -0.2569
     18 C13         2.3359    4.6272   -5.2408 C.ar      1 <0>         0.1730
     19 C14         2.7905    5.7357   -5.9298 C.ar      1 <0>        -0.1617
     20 C15         2.2026    6.9710   -5.7256 C.ar      1 <0>         0.0085
     21 C16         1.1524    7.1078   -4.8358 C.ar      1 <0>        -0.1620
     22 C17         0.6813    6.0090   -4.1425 C.ar      1 <0>         0.1663
     23 F1         -0.3449    6.1448   -3.2742 F         1 <0>        -0.1203
     24 C18         2.7091    8.1750   -6.4772 C.3       1 <0>        -0.1304
     25 F2          2.9152    3.4226   -5.4376 F         1 <0>        -0.1166
     26 H2          1.1649    1.6980    2.5730 H         1 <0>         0.0595
     27 H3         -0.2842    1.9427    3.5772 H         1 <0>         0.0624
     28 H4         -0.0462    0.4018    2.7186 H         1 <0>         0.0581
     29 H5         -0.4973    3.1201    1.4053 H         1 <0>         0.0679
     30 H6         -1.7085    1.8239    1.5509 H         1 <0>         0.0661
     31 H7         -0.2512    0.3138    0.2301 H         1 <0>         0.0805
     32 H8          0.9600    1.6100    0.0846 H         1 <0>         0.0867
     33 H9         -1.9133    1.7359   -0.9376 H         1 <0>         0.0715
     34 H10        -0.7021    3.0319   -1.0832 H         1 <0>         0.0743
     35 H11        -2.6394   -0.5972   -2.5835 H         1 <0>         0.2276
     36 H12        -0.5844    4.0107   -5.8971 H         1 <0>         0.2104
     37 H13         3.6099    5.6379   -6.6264 H         1 <0>         0.1579
     38 H14         0.6991    8.0760   -4.6827 H         1 <0>         0.1575
     39 H15         3.4982    8.6577   -5.9008 H         1 <0>         0.0921
     40 H16         3.1051    7.8603   -7.4428 H         1 <0>         0.0832
     41 H17         1.8903    8.8776   -6.6319 H         1 <0>         0.0830
     42 N3         -2.0528    2.5499   -5.8728 N.ar      1 <0>        -0.4936
     43 H18        -2.4634    2.8433   -6.7670 H         1 <0>         0.4819
@<TRIPOS>BOND
     1    1    2 1
     2    1   26 1
     3    1   27 1
     4    1   28 1
     5    2    3 1
     6    2   29 1
     7    2   30 1
     8    3    4 1
     9    3   31 1
    10    3   32 1
    11    4    5 1
    12    4   33 1
    13    4   34 1
    14    5    6 1
    15    6   14 ar
    16    6    7 ar
    17    7   12 ar
    18    7    8 2
    19    8   35 1
    20    8    9 1
    21    9   11 1
    22    9   10 1
    23   10   12 2
    24   12   42 ar
    25   13   14 ar
    26   13   36 1
    27   13   42 ar
    28   14   15 1
    29   15   16 2
    30   15   17 1
    31   17   22 ar
    32   17   18 ar
    33   18   19 ar
    34   18   25 1
    35   19   20 ar
    36   19   37 1
    37   20   21 ar
    38   20   24 1
    39   21   22 ar
    40   21   38 1
    41   22   23 1
    42   24   39 1
    43   24   40 1
    44   24   41 1
    45   42   43 1
@<TRIPOS>MOLECULE
ZINC03924157
   43    45     0     0     0
SMALL
USER_CHARGES
(4-butoxy-1H-pyrazolo[4,3-e]pyridin-5-yl)-(2,6-difluoro-4-methyl-phenyl)methanone
@<TRIPOS>ATOM
      1 C1          0.1188    1.4601    2.6622 C.3       1 <0>        -0.1549
      2 C2         -0.6300    2.0236    1.4528 C.3       1 <0>        -0.1207
      3 C3         -0.0916    1.3790    0.1739 C.3       1 <0>        -0.1217
      4 C4         -0.8405    1.9426   -1.0354 C.3       1 <0>         0.0770
      5 O1         -0.3376    1.3406   -2.2299 O.3       1 <0>        -0.3084
      6 C5         -0.8974    1.7324   -3.3980 C.ar      1 <0>         0.3925
      7 C6         -2.0123    1.0612   -3.9294 C.ar      1 <0>        -0.2235
      8 C7         -2.7901   -0.0379   -3.4950 C.2       1 <0>         0.1449
      9 N1         -3.7283   -0.2502   -4.3716 N.2       1 <0>        -0.1963
     10 N2         -3.6253    0.6831   -5.4094 N.pl3     1 <0>        -0.4569
     11 H1         -4.2245    0.7391   -6.2081 H         1 <0>         0.4740
     12 C8         -2.5659    1.5049   -5.1447 C.ar      1 <0>         0.3467
     13 C9         -0.9921    3.1888   -5.3271 C.ar      1 <0>         0.2797
     14 C10        -0.3797    2.8189   -4.1213 C.ar      1 <0>        -0.2521
     15 C11         0.7906    3.5593   -3.6205 C.2       1 <0>         0.4618
     16 O2          1.3529    3.1940   -2.6055 O.2       1 <0>        -0.3686
     17 C12         1.2813    4.7443   -4.3498 C.ar      1 <0>        -0.2584
     18 C13         2.3344    4.6222   -5.2636 C.ar      1 <0>         0.1737
     19 C14         2.7838    5.7365   -5.9466 C.ar      1 <0>        -0.1616
     20 C15         2.2035    6.9716   -5.7209 C.ar      1 <0>         0.0097
     21 C16         1.1660    7.1025   -4.8154 C.ar      1 <0>        -0.1620
     22 C17         0.7001    5.9980   -4.1278 C.ar      1 <0>         0.1666
     23 F1         -0.3136    6.1280   -3.2442 F         1 <0>        -0.1201
     24 C18         2.7043    8.1819   -6.4662 C.3       1 <0>        -0.1309
     25 F2          2.9063    3.4177   -5.4814 F         1 <0>        -0.1162
     26 H2          1.1823    1.6785    2.5651 H         1 <0>         0.0590
     27 H3         -0.2647    1.9193    3.5733 H         1 <0>         0.0623
     28 H4         -0.0276    0.3810    2.7097 H         1 <0>         0.0588
     29 H5         -0.4836    3.1027    1.4053 H         1 <0>         0.0672
     30 H6         -1.6935    1.8052    1.5499 H         1 <0>         0.0670
     31 H7         -0.2381    0.3000    0.2215 H         1 <0>         0.0824
     32 H8          0.9718    1.5975    0.0769 H         1 <0>         0.0861
     33 H9         -1.9039    1.7242   -0.9384 H         1 <0>         0.0746
     34 H10        -0.6940    3.0216   -1.0830 H         1 <0>         0.0730
     35 H11        -2.6297   -0.6071   -2.5913 H         1 <0>         0.2311
     36 H12        -0.5969    4.0237   -5.8867 H         1 <0>         0.2138
     37 H13         3.5933    5.6433   -6.6553 H         1 <0>         0.1585
     38 H14         0.7185    8.0707   -4.6456 H         1 <0>         0.1579
     39 H15         3.5030    8.6554   -5.8954 H         1 <0>         0.0928
     40 H16         3.0859    7.8764   -7.4405 H         1 <0>         0.0835
     41 H17         1.8862    8.8892   -6.6020 H         1 <0>         0.0832
     42 N3         -2.0681    2.5657   -5.8603 N.ar      1 <0>        -0.5061
     43 H18        -2.4875    2.8681   -6.7473 H         1 <0>         0.4806
@<TRIPOS>BOND
     1    1    2 1
     2    1   26 1
     3    1   27 1
     4    1   28 1
     5    2    3 1
     6    2   29 1
     7    2   30 1
     8    3    4 1
     9    3   31 1
    10    3   32 1
    11    4    5 1
    12    4   33 1
    13    4   34 1
    14    5    6 1
    15    6   14 ar
    16    6    7 ar
    17    7   12 ar
    18    7    8 1
    19    8    9 2
    20    8   35 1
    21    9   10 1
    22   10   11 1
    23   10   12 1
    24   12   42 ar
    25   13   14 ar
    26   13   36 1
    27   13   42 ar
    28   14   15 1
    29   15   16 2
    30   15   17 1
    31   17   22 ar
    32   17   18 ar
    33   18   19 ar
    34   18   25 1
    35   19   20 ar
    36   19   37 1
    37   20   21 ar
    38   20   24 1
    39   21   22 ar
    40   21   38 1
    41   22   23 1
    42   24   39 1
    43   24   40 1
    44   24   41 1
    45   42   43 1
@<TRIPOS>MOLECULE
ZINC00039111
   31    33     0     0     0
SMALL
USER_CHARGES

@<TRIPOS>ATOM
      1 C1          0.9742   -0.2756   -0.9644 C.ar      1 <0>        -0.0745
      2 C2          2.1570    0.4328   -0.9701 C.ar      1 <0>        -0.1346
      3 C3          2.3856    1.4156   -0.0177 C.ar      1 <0>         0.1033
      4 C4          1.4202    1.6919    0.9495 C.ar      1 <0>         0.0786
      5 C5          0.2328    0.9864    0.9617 C.ar      1 <0>        -0.0758
      6 C6          0.0021   -0.0041    0.0020 C.ar      1 <0>        -0.0456
      7 C7         -1.2635   -0.7604    0.0100 C.2       1 <0>         0.1403
      8 C8         -2.4368   -0.0754    0.1235 C.2       1 <0>        -0.0467
      9 C9         -3.6626   -0.7880    0.1323 C.2       1 <0>         0.4008
     10 O1         -4.7322   -0.2087    0.2318 O.2       1 <0>        -0.4629
     11 C10        -3.5944   -2.2557    0.0159 C.ar      1 <0>        -0.2366
     12 C11        -4.7512   -3.0365    0.0154 C.ar      1 <0>        -0.0073
     13 C12        -4.6525   -4.3943   -0.0945 C.ar      1 <0>        -0.1753
     14 C13        -3.4042   -5.0031   -0.2055 C.ar      1 <0>         0.1824
     15 C14        -2.2474   -4.2422   -0.2064 C.ar      1 <0>        -0.1738
     16 C15        -2.3310   -2.8613   -0.0960 C.ar      1 <0>         0.1711
     17 O2         -1.2180   -2.0989   -0.1002 O.3       1 <0>        -0.1986
     18 O3         -3.3214   -6.3539   -0.3130 O.3       1 <0>        -0.4899
     19 O4         -2.4315    1.2815    0.2279 O.3       1 <0>        -0.4510
     20 O5          1.6479    2.6559    1.8814 O.3       1 <0>        -0.4836
     21 O6          3.5534    2.1101   -0.0273 O.3       1 <0>        -0.4861
     22 H1          0.7972   -1.0372   -1.7094 H         1 <0>         0.1379
     23 H2          2.9076    0.2220   -1.7175 H         1 <0>         0.1421
     24 H3         -0.5155    1.1990    1.7108 H         1 <0>         0.1431
     25 H4         -5.7208   -2.5688    0.1018 H         1 <0>         0.1490
     26 H5         -5.5471   -4.9994   -0.0951 H         1 <0>         0.1454
     27 H6         -1.2834   -4.7216   -0.2925 H         1 <0>         0.1536
     28 H7         -3.3428   -6.6780   -1.2239 H         1 <0>         0.4038
     29 H8         -3.3122    1.6736    0.3036 H         1 <0>         0.4078
     30 H9          1.3507    3.5371    1.6164 H         1 <0>         0.3905
     31 H10         3.5286    2.9137   -0.5648 H         1 <0>         0.3925
@<TRIPOS>BOND
     1    1    6 ar
     2    1    2 ar
     3    1   22 1
     4    2    3 ar
     5    2   23 1
     6    3    4 ar
     7    3   21 1
     8    4    5 ar
     9    4   20 1
    10    5    6 ar
    11    5   24 1
    12    6    7 1
    13    7   17 1
    14    7    8 2
    15    8    9 1
    16    8   19 1
    17    9   10 2
    18    9   11 1
    19   11   16 ar
    20   11   12 ar
    21   12   13 ar
    22   12   25 1
    23   13   14 ar
    24   13   26 1
    25   14   15 ar
    26   14   18 1
    27   15   16 ar
    28   15   27 1
    29   16   17 1
    30   18   28 1
    31   19   29 1
    32   20   30 1
    33   21   31 1
@<TRIPOS>MOLECULE
ZINC03873287
   50    53     0     0     0
SMALL
USER_CHARGES

@<TRIPOS>ATOM
      1 C1          1.0640   -0.4441   -0.7878 C.ar      1 <0>        -0.1410
      2 C2          2.2473    0.2676   -0.8051 C.ar      1 <0>        -0.0006
      3 C3          2.3751    1.4182   -0.0486 C.ar      1 <0>        -0.6984
      4 C4          1.3192    1.8600    0.7275 C.ar      1 <0>         0.0094
      5 C5          0.1332    1.1527    0.7497 C.ar      1 <0>        -0.1704
      6 C6          0.0014   -0.0032   -0.0094 C.ar      1 <0>         0.2324
      7 N1         -1.1980   -0.7210    0.0101 N.pl3     1 <0>        -0.6339
      8 C7         -1.1808   -2.1027   -0.1021 C.ar      1 <0>         0.6156
      9 N2         -2.3307   -2.7504   -0.1982 N.ar      1 <0>        -0.5803
     10 C8         -2.3525   -4.0741   -0.3076 C.ar      1 <0>         0.3394
     11 C9         -1.1370   -4.7803   -0.3202 C.ar      1 <0>        -0.1015
     12 C10         0.0574   -4.0511   -0.2158 C.ar      1 <0>         0.4739
     13 N3         -0.0115   -2.7302   -0.1151 N.ar      1 <0>        -0.6058
     14 O1          1.2559   -4.6825   -0.2224 O.3       1 <0>        -0.2730
     15 C11         2.4214   -3.8631   -0.1117 C.3       1 <0>         0.0667
     16 C12         3.6703   -4.7467   -0.1370 C.3       1 <0>        -0.0863
     17 C13         3.6862   -5.6428    1.1030 C.3       1 <0>        -0.1150
     18 C14         4.9350   -6.5264    1.0776 C.3       1 <0>        -0.1192
     19 C15         6.1845   -5.6434    1.0704 C.3       1 <0>        -0.1224
     20 C16         6.1685   -4.7473   -0.1696 C.3       1 <0>        -0.1175
     21 C17         4.9197   -3.8637   -0.1443 C.3       1 <0>        -0.1128
     22 N4         -1.4413   -6.0963   -0.4395 N.2       1 <0>        -0.4434
     23 C18        -2.7329   -6.2385   -0.4993 C.2       1 <0>         0.2546
     24 N5         -3.3404   -5.0194   -0.4220 N.pl3     1 <0>        -0.5790
     25 H1         -4.2955   -4.8516   -0.4439 H         1 <0>         0.4341
     26 S1          3.8869    2.3230   -0.0731 S.o2      1 <0>         2.7018
     27 O2          3.9389    3.0598    1.1409 O.2       1 <0>        -0.9640
     28 O3          4.9035    1.4050   -0.4512 O.2       1 <0>        -0.9607
     29 N6          3.7731    3.4335   -1.2963 N.pl3     1 <0>        -1.2490
     30 H2          0.9633   -1.3401   -1.3823 H         1 <0>         0.1431
     31 H3          3.0740   -0.0749   -1.4098 H         1 <0>         0.1446
     32 H4          1.4223    2.7589    1.3171 H         1 <0>         0.1468
     33 H5         -0.6908    1.4978    1.3565 H         1 <0>         0.1381
     34 H6         -2.0423   -0.2524    0.1021 H         1 <0>         0.4303
     35 H7          2.4544   -3.1635   -0.9469 H         1 <0>         0.0726
     36 H8          2.3879   -3.3083    0.8259 H         1 <0>         0.0738
     37 H9          3.6584   -5.3669   -1.0334 H         1 <0>         0.0830
     38 H10         3.6980   -5.0227    1.9993 H         1 <0>         0.0614
     39 H11         2.7961   -6.2719    1.1081 H         1 <0>         0.0692
     40 H12         4.9464   -7.1648    1.9610 H         1 <0>         0.0623
     41 H13         4.9232   -7.1466    0.1813 H         1 <0>         0.0626
     42 H14         6.1963   -5.0233    1.9667 H         1 <0>         0.0620
     43 H15         7.0741   -6.2729    1.0524 H         1 <0>         0.0618
     44 H16         7.0587   -4.1182   -0.1747 H         1 <0>         0.0663
     45 H17         6.1567   -5.3675   -1.0659 H         1 <0>         0.0630
     46 H18         4.9084   -3.2253   -1.0277 H         1 <0>         0.0678
     47 H19         4.9315   -3.2436    0.7521 H         1 <0>         0.0678
     48 H20        -3.2485   -7.1825   -0.5967 H         1 <0>         0.2311
     49 H21         4.2460    4.2778   -1.2303 H         1 <0>         0.4215
     50 H22         3.2336    3.2396   -2.0787 H         1 <0>         0.4170
@<TRIPOS>BOND
     1    1    6 ar
     2    1    2 ar
     3    1   30 1
     4    2    3 ar
     5    2   31 1
     6    3    4 ar
     7    3   26 1
     8    4    5 ar
     9    4   32 1
    10    5    6 ar
    11    5   33 1
    12    6    7 1
    13    7    8 1
    14    7   34 1
    15    8   13 ar
    16    8    9 ar
    17    9   10 ar
    18   10   24 1
    19   10   11 ar
    20   11   12 ar
    21   11   22 1
    22   12   13 ar
    23   12   14 1
    24   14   15 1
    25   15   16 1
    26   15   35 1
    27   15   36 1
    28   16   21 1
    29   16   17 1
    30   16   37 1
    31   17   18 1
    32   17   38 1
    33   17   39 1
    34   18   19 1
    35   18   40 1
    36   18   41 1
    37   19   20 1
    38   19   42 1
    39   19   43 1
    40   20   21 1
    41   20   44 1
    42   20   45 1
    43   21   46 1
    44   21   47 1
    45   22   23 2
    46   23   24 1
    47   23   48 1
    48   24   25 1
    49   26   27 2
    50   26   28 2
    51   26   29 1
    52   29   49 1
    53   29   50 1
@<TRIPOS>MOLECULE
ZINC13538221
   37    38     0     0     0
SMALL
USER_CHARGES
3-isopropyl-N-(3-methylbut-2-enyl)-1H-pyrazolo[5,4-e]pyrimidin-7-amine
@<TRIPOS>ATOM
      1 C1          1.7203    5.0435   -0.5717 C.3       1 <0>        -0.1440
      2 C2          0.6043    4.8998   -1.6084 C.3       1 <0>        -0.0148
      3 C3          1.2113    4.8884   -3.0128 C.3       1 <0>        -0.1440
      4 C4         -0.1382    3.6100   -1.3717 C.2       1 <0>         0.1099
      5 C5         -1.5138    3.4951   -1.0775 C.ar      1 <0>         0.0913
      6 C6         -1.7883    2.1227   -0.9397 C.ar      1 <0>        -0.0291
      7 C7         -3.1029    1.7322   -0.6485 C.ar      1 <0>         0.4602
      8 N1         -4.0304    2.6742   -0.5190 N.ar      1 <0>        -0.5558
      9 C8         -3.7317    3.9544   -0.6595 C.ar      1 <0>         0.3132
     10 N2         -2.5151    4.3712   -0.9244 N.ar      1 <0>        -0.5038
     11 N3         -3.4269    0.3950   -0.4988 N.pl3     1 <0>        -0.7050
     12 C9         -4.8059    0.0051   -0.1946 C.3       1 <0>         0.1599
     13 C10        -4.8907   -1.4954   -0.0832 C.2       1 <0>        -0.2037
     14 C11        -5.3880   -2.0450    0.9970 C.2       1 <0>        -0.0937
     15 C12        -5.9876   -1.1794    2.0752 C.3       1 <0>        -0.1288
     16 C13        -5.3604   -3.5427    1.1615 C.3       1 <0>        -0.1237
     17 N4         -0.6066    1.4614   -1.1383 N.pl3     1 <0>        -0.4836
     18 H1         -0.4734    0.4711   -1.0998 H         1 <0>         0.4498
     19 N5          0.3837    2.4160   -1.4051 N.2       1 <0>        -0.2144
     20 H2          2.4107    4.2049   -0.6624 H         1 <0>         0.0612
     21 H3          2.2574    5.9764   -0.7430 H         1 <0>         0.0668
     22 H4          1.2879    5.0516    0.4288 H         1 <0>         0.0558
     23 H5         -0.0860    5.7384   -1.5178 H         1 <0>         0.1007
     24 H6          0.4163    4.7860   -3.7514 H         1 <0>         0.0558
     25 H7          1.7484    5.8213   -3.1841 H         1 <0>         0.0669
     26 H8          1.9017    4.0498   -3.1035 H         1 <0>         0.0612
     27 H9         -4.5176    4.6862   -0.5453 H         1 <0>         0.2011
     28 H10        -2.7410   -0.2840   -0.5954 H         1 <0>         0.4067
     29 H11        -5.1116    0.4573    0.7489 H         1 <0>         0.0791
     30 H12        -5.4649    0.3480   -0.9923 H         1 <0>         0.0761
     31 H13        -4.5416   -2.1177   -0.8939 H         1 <0>         0.1152
     32 H14        -6.7602   -0.5437    1.6429 H         1 <0>         0.0729
     33 H15        -6.4270   -1.8120    2.8465 H         1 <0>         0.0654
     34 H16        -5.2091   -0.5566    2.5159 H         1 <0>         0.0705
     35 H17        -4.4356   -3.8367    1.6580 H         1 <0>         0.0725
     36 H18        -6.2123   -3.8578    1.7641 H         1 <0>         0.0668
     37 H19        -5.4134   -4.0169    0.1815 H         1 <0>         0.0655
@<TRIPOS>BOND
     1    1    2 1
     2    1   20 1
     3    1   21 1
     4    1   22 1
     5    2    3 1
     6    2    4 1
     7    2   23 1
     8    3   24 1
     9    3   25 1
    10    3   26 1
    11    4   19 2
    12    4    5 1
    13    5   10 ar
    14    5    6 ar
    15    6    7 ar
    16    6   17 1
    17    7    8 ar
    18    7   11 1
    19    8    9 ar
    20    9   10 ar
    21    9   27 1
    22   11   12 1
    23   11   28 1
    24   12   13 1
    25   12   29 1
    26   12   30 1
    27   13   14 2
    28   13   31 1
    29   14   15 1
    30   14   16 1
    31   15   32 1
    32   15   33 1
    33   15   34 1
    34   16   35 1
    35   16   36 1
    36   16   37 1
    37   17   18 1
    38   17   19 1
@<TRIPOS>MOLECULE
ZINC02526465
   35    37     0     0     0
SMALL
USER_CHARGES

@<TRIPOS>ATOM
      1 C1         -0.6297    1.0732    0.2401 C.ar      1 <0>        -0.0643
      2 C2          0.4428    1.9449    0.3147 C.ar      1 <0>        -0.1043
      3 C3          1.7387    1.4606    0.2936 C.ar      1 <0>        -0.0525
      4 C4          1.9699    0.1039    0.1974 C.ar      1 <0>        -0.0314
      5 C5          0.8927   -0.7809    0.1218 C.ar      1 <0>         0.0333
      6 C6         -0.4128   -0.2854    0.1441 C.ar      1 <0>        -0.0890
      7 C7          1.1329   -2.2362    0.0180 C.2       1 <0>        -0.1314
      8 C8          1.0020   -3.0114   -1.1048 C.2       1 <0>         0.1526
      9 C9          1.3530   -4.3938   -0.6991 C.2       1 <0>         0.5523
     10 O1          1.3554   -5.3678   -1.4239 O.2       1 <0>        -0.4342
     11 N1          1.6686   -4.3851    0.6078 N.am      1 <0>        -0.6765
     12 C10         1.5668   -3.1388    1.1007 C.2       1 <0>         0.5856
     13 O2          1.7920   -2.8106    2.2487 O.2       1 <0>        -0.4491
     14 N2          0.6200   -2.5904   -2.3597 N.pl3     1 <0>        -0.6474
     15 C11        -0.4977   -3.1573   -2.9764 C.ar      1 <0>         0.1937
     16 C12        -1.3137   -4.0319   -2.2686 C.ar      1 <0>        -0.1450
     17 C13        -2.4185   -4.5915   -2.8786 C.ar      1 <0>        -0.0866
     18 C14        -2.7149   -4.2814   -4.1979 C.ar      1 <0>         0.0834
     19 C15        -1.9009   -3.4079   -4.9065 C.ar      1 <0>        -0.0220
     20 C16        -0.7978   -2.8428   -4.2962 C.ar      1 <0>        -0.1463
     21 Cl1        -2.2726   -3.0212   -6.5575 Cl        1 <0>        -0.0462
     22 O3         -3.8032   -4.8337   -4.7977 O.3       1 <0>        -0.4834
     23 N3          3.3571   -0.4124    0.1740 N.pl3     1 <0>         0.0359
     24 O4          4.2889    0.3551    0.2392 O.2       1 <0>        -0.1413
     25 O5          3.5581   -1.6016    0.0897 O.3       1 <0>        -0.1635
     26 H1         -1.6388    1.4575    0.2615 H         1 <0>         0.1511
     27 H2          0.2674    3.0079    0.3894 H         1 <0>         0.1535
     28 H3          2.5711    2.1462    0.3522 H         1 <0>         0.1602
     29 H4         -1.2505   -0.9644    0.0859 H         1 <0>         0.1508
     30 H5          1.9348   -5.1647    1.1199 H         1 <0>         0.4361
     31 H6          1.1273   -1.9002   -2.8149 H         1 <0>         0.4229
     32 H7         -1.0832   -4.2740   -1.2417 H         1 <0>         0.1255
     33 H8         -3.0522   -5.2714   -2.3285 H         1 <0>         0.1446
     34 H9         -0.1669   -2.1598   -4.8457 H         1 <0>         0.1422
     35 H10        -4.6125   -4.3134   -4.7002 H         1 <0>         0.3911
@<TRIPOS>BOND
     1    1    6 ar
     2    1    2 ar
     3    1   26 1
     4    2    3 ar
     5    2   27 1
     6    3    4 ar
     7    3   28 1
     8    4    5 ar
     9    4   23 1
    10    5    6 ar
    11    5    7 1
    12    6   29 1
    13    7   12 1
    14    7    8 2
    15    8    9 1
    16    8   14 1
    17    9   10 2
    18    9   11 am
    19   11   12 am
    20   11   30 1
    21   12   13 2
    22   14   15 1
    23   14   31 1
    24   15   20 ar
    25   15   16 ar
    26   16   17 ar
    27   16   32 1
    28   17   18 ar
    29   17   33 1
    30   18   19 ar
    31   18   22 1
    32   19   20 ar
    33   19   21 1
    34   20   34 1
    35   22   35 1
    36   23   24 2
    37   23   25 1
@<TRIPOS>MOLECULE
ZINC13588927
   30    33     0     0     0
SMALL
USER_CHARGES
bromoBLAHone
@<TRIPOS>ATOM
      1 C1          3.2992    9.9759   -0.2901 C.ar      1 <0>        -0.1376
      2 C2          3.9476    9.0095    0.4580 C.ar      1 <0>        -0.0973
      3 C3          3.3536    7.7515    0.6037 C.ar      1 <0>         0.1334
      4 C4          2.1422    7.5111   -0.0455 C.ar      1 <0>         0.1531
      5 N1          1.5506    8.4815   -0.7447 N.ar      1 <0>        -0.4587
      6 C5          2.0830    9.6758   -0.8770 C.ar      1 <0>         0.1000
      7 C6          1.4734    6.1933    0.0043 C.2       1 <0>         0.1319
      8 C7          2.1135    4.9960    0.0114 C.2       1 <0>        -0.1371
      9 C8          1.0984    3.9664    0.0121 C.ar      1 <0>        -0.0983
     10 C9          1.1688    2.5683    0.0047 C.ar      1 <0>        -0.0266
     11 C10        -0.0236    1.8867    0.0124 C.ar      1 <0>        -0.1153
     12 C11        -1.2454    2.5417    0.0219 C.ar      1 <0>        -0.0686
     13 C12        -1.3439    3.9225    0.0332 C.ar      1 <0>        -0.1199
     14 C13        -0.1504    4.6417    0.0246 C.ar      1 <0>         0.1244
     15 N2          0.1079    5.9822    0.0257 N.pl3     1 <0>        -0.5641
     16 H1         -0.5651    6.6806    0.0399 H         1 <0>         0.4255
     17 Br1         0.0021   -0.0041    0.0020 Br        1 <0>        -0.0534
     18 C14         3.6123    4.8240    0.0353 C.3       1 <0>        -0.0657
     19 C15         4.1374    5.5314    1.2598 C.2       1 <0>         0.5313
     20 O1          4.7207    4.8890    2.1073 O.2       1 <0>        -0.5173
     21 N3          3.9784    6.8414    1.4359 N.am      1 <0>        -0.6598
     22 H2          3.7384   10.9547   -0.4151 H         1 <0>         0.1486
     23 H3          4.8988    9.2232    0.9227 H         1 <0>         0.1492
     24 H4          1.5655   10.4309   -1.4500 H         1 <0>         0.1687
     25 H5          2.1162    2.0499   -0.0069 H         1 <0>         0.1440
     26 H6         -2.1517    1.9544    0.0248 H         1 <0>         0.1354
     27 H7         -2.3025    4.4198    0.0447 H         1 <0>         0.1412
     28 H8          3.8616    3.7641    0.0858 H         1 <0>         0.1190
     29 H9          4.0489    5.2645   -0.8611 H         1 <0>         0.1057
     30 H10         4.3497    7.2049    2.2550 H         1 <0>         0.4081
@<TRIPOS>BOND
     1    1    6 ar
     2    1    2 ar
     3    1   22 1
     4    2    3 ar
     5    2   23 1
     6    3   21 1
     7    3    4 ar
     8    4    5 ar
     9    4    7 1
    10    5    6 ar
    11    6   24 1
    12    7   15 1
    13    7    8 2
    14    8    9 1
    15    8   18 1
    16    9   14 ar
    17    9   10 ar
    18   10   11 ar
    19   10   25 1
    20   11   12 ar
    21   11   17 1
    22   12   13 ar
    23   12   26 1
    24   13   14 ar
    25   13   27 1
    26   14   15 1
    27   15   16 1
    28   18   19 1
    29   18   28 1
    30   18   29 1
    31   19   20 2
    32   19   21 am
    33   21   30 1
@<TRIPOS>MOLECULE
ZINC13588925
   32    35     0     0     0
SMALL
USER_CHARGES

@<TRIPOS>ATOM
      1 C1         -0.0143    1.3784   -0.0472 C.ar      1 <0>        -0.1491
      2 C2          1.1684    2.0824    0.1059 C.ar      1 <0>        -0.0587
      3 C3          2.3775    1.4201    0.1617 C.ar      1 <0>        -0.1427
      4 C4          2.4195    0.0322    0.0643 C.ar      1 <0>         0.1622
      5 C5          1.2216   -0.6755   -0.0899 C.ar      1 <0>        -0.1623
      6 C6          0.0077    0.0018   -0.1451 C.ar      1 <0>        -0.0256
      7 C7          1.5784   -2.1122   -0.1640 C.2       1 <0>         0.1812
      8 N1          0.7675   -3.1257   -0.3073 N.2       1 <0>        -0.2637
      9 O1         -0.6277   -2.9070   -0.4103 O.3       1 <0>        -0.3779
     10 C8          3.0518   -2.1494   -0.0404 C.2       1 <0>         0.3076
     11 C9          3.8487   -3.2858   -0.0553 C.2       1 <0>        -0.2122
     12 C10         3.4078   -4.6941    0.0365 C.ar      1 <0>        -0.0752
     13 C11         2.1595   -5.2974    0.1580 C.ar      1 <0>        -0.0511
     14 C12         2.0679   -6.6733    0.2220 C.ar      1 <0>        -0.1246
     15 C13         3.2146   -7.4494    0.1658 C.ar      1 <0>        -0.0530
     16 C14         4.4569   -6.8608    0.0453 C.ar      1 <0>        -0.1331
     17 C15         4.5698   -5.4764   -0.0211 C.ar      1 <0>         0.1576
     18 N2          5.6748   -4.6425   -0.1406 N.am      1 <0>        -0.6474
     19 C16         5.3104   -3.3493   -0.1720 C.2       1 <0>         0.5708
     20 O2          6.0621   -2.3963   -0.2763 O.2       1 <0>        -0.5180
     21 I1          0.1927   -7.5894    0.4050 I         1 <0>        -0.0393
     22 N3          3.4859   -0.8573    0.0909 N.pl3     1 <0>        -0.6150
     23 H1         -0.9554    1.9069   -0.0855 H         1 <0>         0.1364
     24 H2          1.1442    3.1594    0.1819 H         1 <0>         0.1383
     25 H3          3.2934    1.9799    0.2810 H         1 <0>         0.1349
     26 H4         -0.9144   -0.5477   -0.2642 H         1 <0>         0.1394
     27 H5         -1.1461   -3.7167   -0.5138 H         1 <0>         0.4138
     28 H6          1.2664   -4.6917    0.2025 H         1 <0>         0.1727
     29 H7          3.1352   -8.5253    0.2171 H         1 <0>         0.1366
     30 H8          5.3432   -7.4765    0.0029 H         1 <0>         0.1366
     31 H9          6.5916   -4.9540   -0.1983 H         1 <0>         0.4214
     32 H10         4.4153   -0.5976    0.1894 H         1 <0>         0.4396
@<TRIPOS>BOND
     1    1    6 ar
     2    1    2 ar
     3    1   23 1
     4    2    3 ar
     5    2   24 1
     6    3    4 ar
     7    3   25 1
     8    4   22 1
     9    4    5 ar
    10    5    6 ar
    11    5    7 1
    12    6   26 1
    13    7    8 2
    14    7   10 1
    15    8    9 1
    16    9   27 1
    17   10   11 2
    18   10   22 1
    19   11   19 1
    20   11   12 1
    21   12   17 ar
    22   12   13 ar
    23   13   14 ar
    24   13   28 1
    25   14   15 ar
    26   14   21 1
    27   15   16 ar
    28   15   29 1
    29   16   17 ar
    30   16   30 1
    31   17   18 1
    32   18   19 am
    33   18   31 1
    34   19   20 2
    35   22   32 1
@<TRIPOS>MOLECULE
ZINC13588925
   32    35     0     0     0
SMALL
USER_CHARGES

@<TRIPOS>ATOM
      1 C1         -0.0166    1.3757    0.0096 C.ar      1 <0>        -0.1157
      2 C2          1.1722    2.0867    0.0021 C.ar      1 <0>        -0.1041
      3 C3          2.3841    1.4282   -0.0135 C.ar      1 <0>        -0.1115
      4 C4          2.4231    0.0368   -0.0214 C.ar      1 <0>         0.0632
      5 C5          1.2189   -0.6781   -0.0133 C.ar      1 <0>        -0.0616
      6 C6          0.0021   -0.0041    0.0020 C.ar      1 <0>        -0.0747
      7 C7          1.5783   -2.1151   -0.0241 C.2       1 <0>        -0.1706
      8 C8          3.0469   -2.1434   -0.0386 C.2       1 <0>         0.3429
      9 N1          3.4869   -0.8540   -0.0363 N.pl3     1 <0>        -0.5358
     10 H1          4.4210   -0.5930   -0.0441 H         1 <0>         0.4271
     11 C9          3.8545   -3.2957   -0.0519 C.2       1 <0>        -0.2024
     12 C10         4.3575   -4.0137   -1.2405 C.ar      1 <0>        -0.0518
     13 C11         4.2198   -3.8184   -2.6117 C.ar      1 <0>        -0.0403
     14 C12         4.8301   -4.6893   -3.4905 C.ar      1 <0>        -0.1066
     15 C13         5.5775   -5.7545   -3.0113 C.ar      1 <0>        -0.0672
     16 C14         5.7204   -5.9581   -1.6547 C.ar      1 <0>        -0.1072
     17 C15         5.1131   -5.0907   -0.7540 C.ar      1 <0>         0.1146
     18 N2          5.0816   -5.0447    0.6302 N.pl3     1 <0>        -0.5770
     19 H2          5.5269   -5.6786    1.2139 H         1 <0>         0.4257
     20 C16         4.3477   -3.9882    1.0561 C.2       1 <0>         0.3392
     21 O1          4.1258   -3.6593    2.3462 O.3       1 <0>        -0.4580
     22 I1          4.6265   -4.4019   -5.5557 I         1 <0>        -0.0291
     23 N3          0.7595   -3.1433   -0.0209 N.2       1 <0>        -0.2829
     24 O2         -0.4450   -2.9626   -0.0083 O.2       1 <0>         0.0229
     25 H3         -0.9595    1.9021    0.0260 H         1 <0>         0.1339
     26 H4          1.1499    3.1664    0.0081 H         1 <0>         0.1331
     27 H5          3.3045    1.9933   -0.0200 H         1 <0>         0.1259
     28 H6         -0.9246   -0.5587    0.0075 H         1 <0>         0.1457
     29 H7          3.6376   -2.9893   -2.9858 H         1 <0>         0.1303
     30 H8          6.0517   -6.4312   -3.7067 H         1 <0>         0.1406
     31 H9          6.3041   -6.7913   -1.2923 H         1 <0>         0.1381
     32 H10         3.3379   -4.0708    2.7270 H         1 <0>         0.4134
@<TRIPOS>BOND
     1    1    6 ar
     2    1    2 ar
     3    1   25 1
     4    2    3 ar
     5    2   26 1
     6    3    4 ar
     7    3   27 1
     8    4    9 1
     9    4    5 ar
    10    5    6 ar
    11    5    7 1
    12    6   28 1
    13    7    8 2
    14    7   23 1
    15    8    9 1
    16    8   11 1
    17    9   10 1
    18   11   20 2
    19   11   12 1
    20   12   17 ar
    21   12   13 ar
    22   13   14 ar
    23   13   29 1
    24   14   15 ar
    25   14   22 1
    26   15   16 ar
    27   15   30 1
    28   16   17 ar
    29   16   31 1
    30   17   18 1
    31   18   19 1
    32   18   20 1
    33   20   21 1
    34   21   32 1
    35   23   24 2
@<TRIPOS>MOLECULE
ZINC17175232
   28    30     0     0     0
SMALL
USER_CHARGES

@<TRIPOS>ATOM
      1 C1         -0.0163    1.3518    0.0095 C.2       1 <0>        -0.1320
      2 C2          1.3148    1.7902   -0.0009 C.2       1 <0>        -0.0473
      3 C3          2.1177    0.6382   -0.0541 C.2       1 <0>        -0.0284
      4 N1          1.2938   -0.4402   -0.0184 N.pl3     1 <0>        -0.4947
      5 H1          1.5772   -1.3679   -0.0093 H         1 <0>         0.4228
      6 C4          0.0021   -0.0041    0.0020 C.2       1 <0>         0.0135
      7 Br1        -1.5265   -1.1172    0.0181 Br        1 <0>         0.0029
      8 C5          3.5766    0.7389   -0.1870 C.2       1 <0>         0.6051
      9 O1          4.1929    0.0169   -0.9490 O.2       1 <0>        -0.5408
     10 N2          4.2121    1.6686    0.5723 N.am      1 <0>        -0.7065
     11 C6          3.5429    2.2863    1.7070 C.3       1 <0>         0.1163
     12 C7          2.6757    3.4872    1.3174 C.3       1 <0>        -0.0871
     13 C8          1.8765    3.1423    0.0746 C.2       1 <0>        -0.1143
     14 C9          1.6898    4.0463   -0.9242 C.2       1 <0>         0.1008
     15 C10         2.1957    5.4237   -0.9853 C.2       1 <0>         0.4669
     16 O2          2.9467    6.0446   -0.0478 O.3       1 <0>        -0.6390
     17 N3          1.7827    5.9409   -2.1226 N.2       1 <0>        -0.6194
     18 C11         1.0592    5.0459   -2.8124 C.2       1 <0>         0.5785
     19 N4          0.9806    3.8605   -2.1141 N.pl3     1 <0>        -0.7302
     20 N5          0.5113    5.2654   -3.9838 N.2       1 <0>        -0.7896
     21 H2         -0.8955    1.9789    0.0252 H         1 <0>         0.1528
     22 H3          5.1227    1.9234    0.3559 H         1 <0>         0.4078
     23 H4          2.9112    1.5403    2.1892 H         1 <0>         0.0663
     24 H5          4.2974    2.6164    2.4210 H         1 <0>         0.0851
     25 H6          1.9946    3.7249    2.1345 H         1 <0>         0.0799
     26 H7          3.3144    4.3465    1.1128 H         1 <0>         0.1130
     27 H8          0.5205    3.0537   -2.3935 H         1 <0>         0.4017
     28 H9          0.0011    4.5649   -4.4195 H         1 <0>         0.3159
@<TRIPOS>BOND
     1    1    6 2
     2    1    2 1
     3    1   21 1
     4    2   13 1
     5    2    3 2
     6    3    4 1
     7    3    8 1
     8    4    5 1
     9    4    6 1
    10    6    7 1
    11    8    9 2
    12    8   10 am
    13   10   11 1
    14   10   22 1
    15   11   12 1
    16   11   23 1
    17   11   24 1
    18   12   13 1
    19   12   25 1
    20   12   26 1
    21   13   14 2
    22   14   19 1
    23   14   15 1
    24   15   16 1
    25   15   17 2
    26   17   18 1
    27   18   19 1
    28   18   20 2
    29   19   27 1
    30   20   28 1
@<TRIPOS>MOLECULE
ZINC17175232
   28    30     0     0     0
SMALL
USER_CHARGES

@<TRIPOS>ATOM
      1 C1         -0.0163    1.3518    0.0095 C.2       1 <0>        -0.1303
      2 C2          1.3148    1.7902   -0.0009 C.2       1 <0>        -0.0482
      3 C3          2.1177    0.6382   -0.0541 C.2       1 <0>        -0.0280
      4 N1          1.2938   -0.4402   -0.0184 N.pl3     1 <0>        -0.4947
      5 H1          1.5772   -1.3679   -0.0093 H         1 <0>         0.4228
      6 C4          0.0021   -0.0041    0.0020 C.2       1 <0>         0.0141
      7 Br1        -1.5265   -1.1172    0.0181 Br        1 <0>         0.0028
      8 C5          3.5766    0.7389   -0.1870 C.2       1 <0>         0.6054
      9 O1          4.1929    0.0169   -0.9490 O.2       1 <0>        -0.5403
     10 N2          4.2121    1.6686    0.5723 N.am      1 <0>        -0.7071
     11 C6          3.5429    2.2863    1.7070 C.3       1 <0>         0.1165
     12 C7          2.6757    3.4872    1.3174 C.3       1 <0>        -0.0863
     13 C8          1.8765    3.1423    0.0746 C.2       1 <0>        -0.1135
     14 C9          1.6898    4.0463   -0.9242 C.2       1 <0>         0.1071
     15 C10         2.1957    5.4237   -0.9853 C.2       1 <0>         0.4664
     16 O2          2.9467    6.0446   -0.0478 O.3       1 <0>        -0.6433
     17 N3          1.7827    5.9409   -2.1226 N.2       1 <0>        -0.6748
     18 C11         1.0592    5.0459   -2.8124 C.2       1 <0>         0.5688
     19 N4          0.9806    3.8605   -2.1141 N.pl3     1 <0>        -0.6803
     20 N5          0.5113    5.2654   -3.9838 N.2       1 <0>        -0.8118
     21 H2         -0.8955    1.9789    0.0252 H         1 <0>         0.1537
     22 H3          5.1227    1.9234    0.3559 H         1 <0>         0.4075
     23 H4          2.9112    1.5403    2.1892 H         1 <0>         0.0668
     24 H5          4.2974    2.6164    2.4210 H         1 <0>         0.0848
     25 H6          1.9946    3.7249    2.1345 H         1 <0>         0.0802
     26 H7          3.3144    4.3465    1.1128 H         1 <0>         0.1125
     27 H8          0.6165    6.1282   -4.4144 H         1 <0>         0.3376
     28 H9          0.5205    3.0537   -2.3935 H         1 <0>         0.4116
@<TRIPOS>BOND
     1    1    6 2
     2    1    2 1
     3    1   21 1
     4    2   13 1
     5    2    3 2
     6    3    4 1
     7    3    8 1
     8    4    5 1
     9    4    6 1
    10    6    7 1
    11    8    9 2
    12    8   10 am
    13   10   11 1
    14   10   22 1
    15   11   12 1
    16   11   23 1
    17   11   24 1
    18   12   13 1
    19   12   25 1
    20   12   26 1
    21   13   14 2
    22   14   19 1
    23   14   15 1
    24   15   16 1
    25   15   17 2
    26   17   18 1
    27   18   19 1
    28   18   20 2
    29   19   28 1
    30   20   27 1
@<TRIPOS>MOLECULE
ZINC17175232
   28    30     0     0     0
SMALL
USER_CHARGES

@<TRIPOS>ATOM
      1 C1         -0.0163    1.3522    0.0095 C.2       1 <0>        -0.1304
      2 C2          1.3145    1.7899   -0.0009 C.2       1 <0>        -0.0459
      3 C3          2.1168    0.6384   -0.0541 C.2       1 <0>        -0.0300
      4 N1          1.2937   -0.4395   -0.0184 N.pl3     1 <0>        -0.4944
      5 H1          1.5775   -1.3670   -0.0089 H         1 <0>         0.4225
      6 C4          0.0021   -0.0041    0.0020 C.2       1 <0>         0.0140
      7 Br1        -1.5262   -1.1176    0.0181 Br        1 <0>         0.0029
      8 C5          3.5767    0.7391   -0.1874 C.2       1 <0>         0.6062
      9 O1          4.1928    0.0172   -0.9493 O.2       1 <0>        -0.5393
     10 N2          4.2125    1.6688    0.5718 N.am      1 <0>        -0.7083
     11 C6          3.5436    2.2865    1.7066 C.3       1 <0>         0.1168
     12 C7          2.6766    3.4877    1.3173 C.3       1 <0>        -0.0808
     13 C8          1.8770    3.1431    0.0747 C.2       1 <0>        -0.1250
     14 C9          1.6904    4.0451   -0.9215 C.2       1 <0>         0.0817
     15 C10         2.1965    5.4312   -0.9893 C.2       1 <0>         0.5130
     16 O2          2.8748    6.0047   -0.1528 O.2       1 <0>        -0.5579
     17 N3          1.7619    5.9328   -2.1536 N.2       1 <0>        -0.7162
     18 C11         1.0563    5.0350   -2.8068 C.2       1 <0>         0.5692
     19 N4          0.9819    3.8661   -2.1131 N.pl3     1 <0>        -0.6705
     20 N5          0.4771    5.2468   -4.0277 N.2       1 <0>        -0.8527
     21 H2         -0.8954    1.9794    0.0253 H         1 <0>         0.1535
     22 H3          5.1230    1.9236    0.3550 H         1 <0>         0.4071
     23 H4          2.9118    1.5406    2.1889 H         1 <0>         0.0681
     24 H5          4.2983    2.6165    2.4205 H         1 <0>         0.0845
     25 H6          1.9957    3.7255    2.1345 H         1 <0>         0.0803
     26 H7          3.3154    4.3469    1.1126 H         1 <0>         0.1016
     27 H8          0.5214    3.0596   -2.3928 H         1 <0>         0.4083
     28 H9          0.5746    6.1055   -4.4684 H         1 <0>         0.3216
@<TRIPOS>BOND
     1    1    6 2
     2    1    2 1
     3    1   21 1
     4    2   13 1
     5    2    3 2
     6    3    4 1
     7    3    8 1
     8    4    5 1
     9    4    6 1
    10    6    7 1
    11    8    9 2
    12    8   10 am
    13   10   11 1
    14   10   22 1
    15   11   12 1
    16   11   23 1
    17   11   24 1
    18   12   13 1
    19   12   25 1
    20   12   26 1
    21   13   14 2
    22   14   19 1
    23   14   15 1
    24   15   16 2
    25   15   17 1
    26   17   18 2
    27   18   19 1
    28   18   20 1
    29   19   27 1
    30   20   28 1
@<TRIPOS>MOLECULE
ZINC17175232
   29    31     0     0     0
SMALL
USER_CHARGES

@<TRIPOS>ATOM
      1 C1         -0.0163    1.3522    0.0095 C.2       1 <0>        -0.1233
      2 C2          1.3145    1.7899   -0.0009 C.2       1 <0>        -0.1048
      3 C3          2.1168    0.6384   -0.0541 C.2       1 <0>        -0.0013
      4 N1          1.2937   -0.4395   -0.0184 N.pl3     1 <0>        -0.4850
      5 H1          1.5775   -1.3670   -0.0089 H         1 <0>         0.4308
      6 C4          0.0021   -0.0041    0.0020 C.2       1 <0>         0.0189
      7 Br1        -1.5262   -1.1176    0.0181 Br        1 <0>         0.0227
      8 C5          3.5767    0.7391   -0.1874 C.2       1 <0>         0.5973
      9 O1          4.1928    0.0172   -0.9493 O.2       1 <0>        -0.5214
     10 N2          4.2125    1.6688    0.5718 N.am      1 <0>        -0.7121
     11 C6          3.5436    2.2865    1.7066 C.3       1 <0>         0.1126
     12 C7          2.6766    3.4877    1.3173 C.3       1 <0>        -0.1046
     13 C8          1.8770    3.1431    0.0747 C.2       1 <0>         0.0171
     14 C9          1.6904    4.0451   -0.9215 C.2       1 <0>        -0.0013
     15 C10         2.1965    5.4312   -0.9893 C.2       1 <0>         0.5402
     16 O2          2.8748    6.0047   -0.1528 O.2       1 <0>        -0.4687
     17 N3          1.7619    5.9328   -2.1536 N.2       1 <0>        -0.6424
     18 C11         1.0563    5.0350   -2.8068 C.2       1 <0>         0.6571
     19 N4          0.9819    3.8661   -2.1131 N.pl3     1 <0>        -0.6656
     20 N5          0.4771    5.2468   -4.0277 N.pl3     1 <0>        -0.8040
     21 H2         -0.8954    1.9794    0.0253 H         1 <0>         0.1589
     22 H3          5.1230    1.9236    0.3550 H         1 <0>         0.4127
     23 H4          2.9118    1.5406    2.1889 H         1 <0>         0.0771
     24 H5          4.2983    2.6165    2.4205 H         1 <0>         0.0983
     25 H6          1.9957    3.7255    2.1345 H         1 <0>         0.1057
     26 H7          3.3154    4.3469    1.1126 H         1 <0>         0.1089
     27 H8          0.5214    3.0596   -2.3928 H         1 <0>         0.4258
     28 H9          0.5746    6.1055   -4.4684 H         1 <0>         0.4334
     29 H10        -0.0311    4.5384   -4.4529 H         1 <0>         0.4171
@<TRIPOS>BOND
     1    1    6 2
     2    1    2 1
     3    1   21 1
     4    2   13 1
     5    2    3 2
     6    3    4 1
     7    3    8 1
     8    4    5 1
     9    4    6 1
    10    6    7 1
    11    8    9 2
    12    8   10 am
    13   10   11 1
    14   10   22 1
    15   11   12 1
    16   11   23 1
    17   11   24 1
    18   12   13 1
    19   12   25 1
    20   12   26 1
    21   13   14 2
    22   14   19 1
    23   14   15 1
    24   15   16 2
    25   15   17 1
    26   17   18 2
    27   18   19 1
    28   18   20 1
    29   19   27 1
    30   20   28 1
    31   20   29 1
@<TRIPOS>MOLECULE
ZINC17175232
   29    31     0     0     0
SMALL
USER_CHARGES

@<TRIPOS>ATOM
      1 C1         -0.0163    1.3522    0.0095 C.2       1 <0>        -0.0939
      2 C2          1.3145    1.7899   -0.0009 C.2       1 <0>        -0.0817
      3 C3          2.1168    0.6384   -0.0541 C.2       1 <0>        -0.0085
      4 N1          1.2937   -0.4395   -0.0184 N.pl3     1 <0>        -0.4867
      5 H1          1.5775   -1.3670   -0.0089 H         1 <0>         0.4287
      6 C4          0.0021   -0.0041    0.0020 C.2       1 <0>         0.0190
      7 Br1        -1.5262   -1.1176    0.0181 Br        1 <0>         0.0181
      8 C5          3.5767    0.7391   -0.1874 C.2       1 <0>         0.6011
      9 O1          4.1928    0.0172   -0.9493 O.2       1 <0>        -0.5178
     10 N2          4.2125    1.6688    0.5718 N.am      1 <0>        -0.7188
     11 C6          3.5436    2.2865    1.7066 C.3       1 <0>         0.1140
     12 C7          2.6766    3.4877    1.3173 C.3       1 <0>        -0.1023
     13 C8          1.8770    3.1431    0.0747 C.2       1 <0>         0.0104
     14 C9          1.6904    4.0451   -0.9215 C.2       1 <0>         0.0011
     15 C10         0.9363    3.8581   -2.1778 C.2       1 <0>         0.5331
     16 O2          0.3478    2.8508   -2.5352 O.2       1 <0>        -0.4515
     17 N3          1.0276    5.0160   -2.8462 N.2       1 <0>        -0.6417
     18 C11         1.7387    5.8869   -2.1633 C.2       1 <0>         0.6550
     19 N4          2.1642    5.3588   -0.9829 N.pl3     1 <0>        -0.6695
     20 N5          2.0107    7.1602   -2.5824 N.pl3     1 <0>        -0.8051
     21 H2         -0.8954    1.9794    0.0253 H         1 <0>         0.1559
     22 H3          5.1230    1.9236    0.3550 H         1 <0>         0.4096
     23 H4          2.9118    1.5406    2.1889 H         1 <0>         0.0822
     24 H5          4.2983    2.6165    2.4205 H         1 <0>         0.0947
     25 H6          1.9957    3.7255    2.1345 H         1 <0>         0.1060
     26 H7          3.3154    4.3469    1.1126 H         1 <0>         0.0753
     27 H8          2.6983    5.8097   -0.3104 H         1 <0>         0.4239
     28 H9          1.6708    7.4730   -3.4354 H         1 <0>         0.4333
     29 H10         2.5433    7.7504   -2.0267 H         1 <0>         0.4164
@<TRIPOS>BOND
     1    1    6 2
     2    1    2 1
     3    1   21 1
     4    2   13 1
     5    2    3 2
     6    3    4 1
     7    3    8 1
     8    4    5 1
     9    4    6 1
    10    6    7 1
    11    8    9 2
    12    8   10 am
    13   10   11 1
    14   10   22 1
    15   11   12 1
    16   11   23 1
    17   11   24 1
    18   12   13 1
    19   12   25 1
    20   12   26 1
    21   13   14 2
    22   14   19 1
    23   14   15 1
    24   15   16 2
    25   15   17 1
    26   17   18 2
    27   18   19 1
    28   18   20 1
    29   19   27 1
    30   20   28 1
    31   20   29 1
@<TRIPOS>MOLECULE
ZINC17175232
   28    30     0     0     0
SMALL
USER_CHARGES

@<TRIPOS>ATOM
      1 C1         -0.0163    1.3522    0.0095 C.2       1 <0>        -0.0983
      2 C2          1.3145    1.7899   -0.0009 C.2       1 <0>        -0.0189
      3 C3          2.1168    0.6384   -0.0541 C.2       1 <0>        -0.0368
      4 N1          1.2937   -0.4395   -0.0184 N.pl3     1 <0>        -0.4973
      5 H1          1.5775   -1.3670   -0.0089 H         1 <0>         0.4202
      6 C4          0.0021   -0.0041    0.0020 C.2       1 <0>         0.0129
      7 Br1        -1.5262   -1.1176    0.0181 Br        1 <0>        -0.0030
      8 C5          3.5767    0.7391   -0.1874 C.2       1 <0>         0.6096
      9 O1          4.1928    0.0172   -0.9493 O.2       1 <0>        -0.5369
     10 N2          4.2125    1.6688    0.5718 N.am      1 <0>        -0.7148
     11 C6          3.5436    2.2865    1.7066 C.3       1 <0>         0.1186
     12 C7          2.6766    3.4877    1.3173 C.3       1 <0>        -0.0808
     13 C8          1.8770    3.1431    0.0747 C.2       1 <0>        -0.1306
     14 C9          1.6904    4.0451   -0.9215 C.2       1 <0>         0.0830
     15 C10         0.9363    3.8581   -2.1778 C.2       1 <0>         0.5087
     16 O2          0.3478    2.8508   -2.5352 O.2       1 <0>        -0.5423
     17 N3          1.0276    5.0160   -2.8462 N.2       1 <0>        -0.7196
     18 C11         1.7387    5.8869   -2.1633 C.2       1 <0>         0.5696
     19 N4          2.1642    5.3588   -0.9829 N.pl3     1 <0>        -0.6730
     20 N5          2.0107    7.1602   -2.5824 N.2       1 <0>        -0.8577
     21 H2         -0.8954    1.9794    0.0253 H         1 <0>         0.1497
     22 H3          5.1230    1.9236    0.3550 H         1 <0>         0.4047
     23 H4          2.9118    1.5406    2.1889 H         1 <0>         0.0739
     24 H5          4.2983    2.6165    2.4205 H         1 <0>         0.0821
     25 H6          1.9957    3.7255    2.1345 H         1 <0>         0.0832
     26 H7          3.3154    4.3469    1.1126 H         1 <0>         0.0659
     27 H8          2.6983    5.8097   -0.3104 H         1 <0>         0.4064
     28 H9          1.6708    7.4730   -3.4354 H         1 <0>         0.3214
@<TRIPOS>BOND
     1    1    6 2
     2    1    2 1
     3    1   21 1
     4    2   13 1
     5    2    3 2
     6    3    4 1
     7    3    8 1
     8    4    5 1
     9    4    6 1
    10    6    7 1
    11    8    9 2
    12    8   10 am
    13   10   11 1
    14   10   22 1
    15   11   12 1
    16   11   23 1
    17   11   24 1
    18   12   13 1
    19   12   25 1
    20   12   26 1
    21   13   14 2
    22   14   19 1
    23   14   15 1
    24   15   16 2
    25   15   17 1
    26   17   18 2
    27   18   19 1
    28   18   20 1
    29   19   27 1
    30   20   28 1
@<TRIPOS>MOLECULE
ZINC28821265
   37    40     0     0     0
SMALL
USER_CHARGES
(5Z)-5-(6-quinolylmethylene)-2-(2-thienylmethylamino)thiazol-4-one
@<TRIPOS>ATOM
      1 C1         -7.6948    9.3694    9.1190 C.ar      1 <0>        -0.1751
      2 C2         -7.6724    9.5307    7.7626 C.ar      1 <0>        -0.0500
      3 C3         -7.1782    8.4719    6.9753 C.ar      1 <0>        -0.1096
      4 C4         -7.1252    8.5695    5.5786 C.ar      1 <0>        -0.0515
      5 C5         -6.6301    7.5023    4.8393 C.ar      1 <0>        -0.0851
      6 C6         -6.1905    6.3306    5.4878 C.ar      1 <0>        -0.0874
      7 C7         -6.2320    6.2255    6.8389 C.ar      1 <0>        -0.0840
      8 C8         -6.7279    7.2898    7.6167 C.ar      1 <0>         0.1394
      9 N1         -6.7782    7.1981    8.9486 N.ar      1 <0>        -0.4764
     10 C9         -7.2372    8.1819    9.6846 C.ar      1 <0>         0.1412
     11 C10        -6.5702    7.5933    3.3742 C.2       1 <0>         0.0465
     12 C11        -5.7923    6.7319    2.6725 C.2       1 <0>        -0.2255
     13 C12        -5.6840    6.5271    1.2076 C.2       1 <0>         0.5507
     14 O1         -6.3476    7.1765    0.4156 O.2       1 <0>        -0.4633
     15 N2         -4.8292    5.6109    0.8095 N.2       1 <0>        -0.6655
     16 C13        -4.1072    4.8963    1.6581 C.2       1 <0>         0.4822
     17 S1         -4.6090    5.5232    3.2534 S.3       1 <0>        -0.0471
     18 N3         -3.1919    3.9168    1.3798 N.pl3     1 <0>        -0.6459
     19 C14        -2.9188    3.5430   -0.0102 C.3       1 <0>         0.2093
     20 C15        -1.8813    2.4504   -0.0420 C.2       1 <0>        -0.1908
     21 C16        -2.0561    1.1064   -0.0210 C.2       1 <0>        -0.1181
     22 C17        -0.9447    0.2853   -0.0549 C.2       1 <0>        -0.1675
     23 C18         0.2867    0.8482   -0.1195 C.2       1 <0>        -0.1543
     24 S2         -0.1035    2.5903   -0.1258 S.3       1 <0>         0.0613
     25 H1         -8.0664   10.1618    9.7518 H         1 <0>         0.1421
     26 H2         -8.0229   10.4447    7.3065 H         1 <0>         0.1433
     27 H3         -7.4661    9.4655    5.0814 H         1 <0>         0.1423
     28 H4         -5.8122    5.5068    4.9007 H         1 <0>         0.1406
     29 H5         -5.8872    5.3219    7.3197 H         1 <0>         0.1423
     30 H6         -7.2613    8.0678   10.7583 H         1 <0>         0.1632
     31 H7         -7.1562    8.3600    2.8463 H         1 <0>         0.1671
     32 H8         -2.6616    3.4105    2.1998 H         1 <0>         0.4556
     33 H9         -3.8451    3.1830   -0.4818 H         1 <0>         0.1055
     34 H10        -2.5448    4.4199   -0.5590 H         1 <0>         0.0980
     35 H11        -3.0488    0.6835    0.0256 H         1 <0>         0.1379
     36 H12        -1.0560   -0.7888   -0.0348 H         1 <0>         0.1388
     37 H13         1.2531    0.3675   -0.1576 H         1 <0>         0.1898
@<TRIPOS>BOND
     1    1   10 ar
     2    1    2 ar
     3    1   25 1
     4    2    3 ar
     5    2   26 1
     6    3    8 ar
     7    3    4 ar
     8    4    5 ar
     9    4   27 1
    10    5    6 ar
    11    5   11 1
    12    6    7 ar
    13    6   28 1
    14    7    8 ar
    15    7   29 1
    16    8    9 ar
    17    9   10 ar
    18   10   30 1
    19   11   12 2
    20   11   31 1
    21   12   17 1
    22   12   13 1
    23   13   14 2
    24   13   15 1
    25   15   16 2
    26   16   17 1
    27   16   18 1
    28   18   19 1
    29   18   32 1
    30   19   20 1
    31   19   33 1
    32   19   34 1
    33   20   24 1
    34   20   21 2
    35   21   22 1
    36   21   35 1
    37   22   23 2
    38   22   36 1
    39   23   24 1
    40   23   37 1
@<TRIPOS>MOLECULE
ZINC18128386
   32    35     0     0     0
SMALL
USER_CHARGES

@<TRIPOS>ATOM
      1 C1         -0.0144    1.3783   -0.0475 C.ar      1 <0>        -0.1490
      2 C2          1.1682    2.0823    0.1064 C.ar      1 <0>        -0.0585
      3 C3          2.3772    1.4201    0.1626 C.ar      1 <0>        -0.1423
      4 C4          2.4194    0.0322    0.0651 C.ar      1 <0>         0.1621
      5 C5          1.2216   -0.6755   -0.0898 C.ar      1 <0>        -0.1630
      6 C6          0.0078    0.0017   -0.1459 C.ar      1 <0>        -0.0258
      7 C7          1.5784   -2.1123   -0.1637 C.2       1 <0>         0.1819
      8 N1          0.7676   -3.1257   -0.3075 N.2       1 <0>        -0.2626
      9 O1         -0.6275   -2.9070   -0.4115 O.3       1 <0>        -0.3801
     10 C8          3.0517   -2.1495   -0.0391 C.2       1 <0>         0.3100
     11 C9          3.8485   -3.2860   -0.0531 C.2       1 <0>        -0.2149
     12 C10         3.4076   -4.6942    0.0396 C.ar      1 <0>        -0.0612
     13 C11         2.1590   -5.2973    0.1613 C.ar      1 <0>        -0.0785
     14 C12         2.0668   -6.6724    0.2256 C.ar      1 <0>        -0.1110
     15 C13         3.2134   -7.4494    0.1697 C.ar      1 <0>        -0.0614
     16 C14         4.4568   -6.8607    0.0495 C.ar      1 <0>        -0.1104
     17 C15         4.5697   -5.4766   -0.0178 C.ar      1 <0>         0.1440
     18 N2          5.6744   -4.6429   -0.1379 N.am      1 <0>        -0.6463
     19 C16         5.3102   -3.3497   -0.1695 C.2       1 <0>         0.5708
     20 O2          6.0621   -2.3968   -0.2739 O.2       1 <0>        -0.5192
     21 Br1         3.0736   -9.3331    0.2595 Br        1 <0>        -0.0419
     22 N3          3.4858   -0.8573    0.0925 N.pl3     1 <0>        -0.6148
     23 H1         -0.9555    1.9067   -0.0861 H         1 <0>         0.1365
     24 H2          1.1438    3.1593    0.1827 H         1 <0>         0.1384
     25 H3          3.2931    1.9799    0.2821 H         1 <0>         0.1351
     26 H4         -0.9142   -0.5478   -0.2655 H         1 <0>         0.1392
     27 H5         -1.1459   -3.7167   -0.5153 H         1 <0>         0.4144
     28 H6          1.2662   -4.6913    0.2055 H         1 <0>         0.1720
     29 H7          1.0998   -7.1441    0.3200 H         1 <0>         0.1383
     30 H8          5.3430   -7.4765    0.0076 H         1 <0>         0.1374
     31 H9          6.5912   -4.9545   -0.1959 H         1 <0>         0.4211
     32 H10         4.4151   -0.5976    0.1913 H         1 <0>         0.4398
@<TRIPOS>BOND
     1    1    6 ar
     2    1    2 ar
     3    1   23 1
     4    2    3 ar
     5    2   24 1
     6    3    4 ar
     7    3   25 1
     8    4   22 1
     9    4    5 ar
    10    5    6 ar
    11    5    7 1
    12    6   26 1
    13    7    8 2
    14    7   10 1
    15    8    9 1
    16    9   27 1
    17   10   11 2
    18   10   22 1
    19   11   19 1
    20   11   12 1
    21   12   17 ar
    22   12   13 ar
    23   13   14 ar
    24   13   28 1
    25   14   15 ar
    26   14   29 1
    27   15   16 ar
    28   15   21 1
    29   16   17 ar
    30   16   30 1
    31   17   18 1
    32   18   19 am
    33   18   31 1
    34   19   20 2
    35   22   32 1
@<TRIPOS>MOLECULE
ZINC29053046
   50    53     0     0     0
SMALL
USER_CHARGES
6-[2-[[4-(2,4-dichlorophenyl)-5-(4-methyl-1H-imidazol-2-yl)pyrimidin-2-yl]amino]ethylamino]pyridine-3-carbonitrile
@<TRIPOS>ATOM
      1 C1          0.4903    0.0921   -1.7778 C.3       1 <0>        -0.0703
      2 C2          0.3764    1.5719   -1.5167 C.2       1 <0>         0.0037
      3 C3         -0.7179    2.3289   -1.7335 C.2       1 <0>        -0.0515
      4 N1         -0.4003    3.6092   -1.3631 N.pl3     1 <0>        -0.5768
      5 H1         -1.1514    4.4084   -1.4472 H         1 <0>         0.4462
      6 C4          0.8960    3.5909   -0.9363 C.2       1 <0>         0.2685
      7 N2          1.3462    2.3589   -1.0357 N.2       1 <0>        -0.4615
      8 C5          1.6619    4.7547   -0.4470 C.ar      1 <0>        -0.1669
      9 C6          1.1322    6.0462   -0.5218 C.ar      1 <0>         0.2106
     10 N3          1.8462    7.0609   -0.0681 N.ar      1 <0>        -0.5610
     11 C7          3.0554    6.8740    0.4438 C.ar      1 <0>         0.5782
     12 N4          3.6027    5.6720    0.5315 N.ar      1 <0>        -0.5418
     13 C8          2.9504    4.5946    0.1035 C.ar      1 <0>         0.2990
     14 C9          3.5657    3.2517    0.2037 C.ar      1 <0>        -0.0203
     15 C10         2.9714    2.2662    0.9923 C.ar      1 <0>        -0.0182
     16 C11         3.5487    1.0170    1.0822 C.ar      1 <0>        -0.1067
     17 C12         4.7168    0.7391    0.3914 C.ar      1 <0>        -0.0069
     18 C13         5.3120    1.7122   -0.3924 C.ar      1 <0>        -0.1113
     19 C14         4.7396    2.9650   -0.4951 C.ar      1 <0>         0.0134
     20 Cl1         5.4823    4.1824   -1.4850 Cl        1 <0>        -0.0519
     21 Cl2         5.4373   -0.8359    0.5098 Cl        1 <0>        -0.0583
     22 N5          3.7663    7.9689    0.9005 N.pl3     1 <0>        -0.7029
     23 C15         3.1819    9.3095    0.8142 C.3       1 <0>         0.1307
     24 C16         4.1669   10.3328    1.3833 C.3       1 <0>         0.1140
     25 N6          3.5825   11.6734    1.2970 N.pl3     1 <0>        -0.7220
     26 C17         4.2948   12.7706    1.7547 C.ar      1 <0>         0.4343
     27 C18         5.5639   12.5867    2.3003 C.ar      1 <0>        -0.2423
     28 C19         6.2674   13.6732    2.7458 C.ar      1 <0>         0.0173
     29 C20         5.6743   14.9414    2.6463 C.ar      1 <0>        -0.1514
     30 C21         4.3970   15.0506    2.0942 C.ar      1 <0>         0.2122
     31 N7          3.7572   13.9795    1.6721 N.ar      1 <0>        -0.5427
     32 C22         6.3697   16.1065    3.1042 C.1       1 <0>         0.2621
     33 N8          6.9214   17.0307    3.4674 N.1       1 <0>        -0.4223
     34 H2         -0.4650   -0.2854   -2.1713 H         1 <0>         0.0681
     35 H3          0.7316   -0.4283   -0.8392 H         1 <0>         0.0687
     36 H4          1.2875   -0.0901   -2.5135 H         1 <0>         0.0683
     37 H5         -1.6664    1.9897   -2.1229 H         1 <0>         0.1775
     38 H6          0.1505    6.2117   -0.9407 H         1 <0>         0.1657
     39 H7          2.0605    2.4811    1.5313 H         1 <0>         0.1317
     40 H8          3.0893    0.2538    1.6928 H         1 <0>         0.1397
     41 H9          6.2228    1.4901   -0.9286 H         1 <0>         0.1443
     42 H10         4.7705    7.8332    1.3285 H         1 <0>         0.4433
     43 H11         2.9702    9.5501   -0.2381 H         1 <0>         0.0768
     44 H12         2.2467    9.3398    1.3925 H         1 <0>         0.0770
     45 H13         4.3786   10.0921    2.4356 H         1 <0>         0.0754
     46 H14         5.1021   10.3025    0.8050 H         1 <0>         0.0752
     47 H15         2.5783   11.8091    0.8689 H         1 <0>         0.4354
     48 H16         5.9904   11.5967    2.3666 H         1 <0>         0.1400
     49 H17         7.2543   13.5567    3.1686 H         1 <0>         0.1424
     50 H18         3.9298   16.0209    2.0122 H         1 <0>         0.1672
@<TRIPOS>BOND
     1    1    2 1
     2    1   34 1
     3    1   35 1
     4    1   36 1
     5    2    7 1
     6    2    3 2
     7    3    4 1
     8    3   37 1
     9    4    5 1
    10    4    6 1
    11    6    7 2
    12    6    8 1
    13    8   13 ar
    14    8    9 ar
    15    9   10 ar
    16    9   38 1
    17   10   11 ar
    18   11   12 ar
    19   11   22 1
    20   12   13 ar
    21   13   14 1
    22   14   19 ar
    23   14   15 ar
    24   15   16 ar
    25   15   39 1
    26   16   17 ar
    27   16   40 1
    28   17   18 ar
    29   17   21 1
    30   18   19 ar
    31   18   41 1
    32   19   20 1
    33   22   23 1
    34   22   42 1
    35   23   24 1
    36   23   43 1
    37   23   44 1
    38   24   25 1
    39   24   45 1
    40   24   46 1
    41   25   26 1
    42   25   47 1
    43   26   31 ar
    44   26   27 ar
    45   27   28 ar
    46   27   48 1
    47   28   29 ar
    48   28   49 1
    49   29   30 ar
    50   29   32 1
    51   30   31 ar
    52   30   50 1
    53   32   33 3
@<TRIPOS>MOLECULE
ZINC29053046
   51    54     0     0     0
SMALL
USER_CHARGES
6-[2-[[4-(2,4-dichlorophenyl)-5-(5-methyl-1H-imidazol-2-yl)pyrimidin-2-yl]amino]ethylamino]pyridine-3-carbonitrile
@<TRIPOS>ATOM
      1 C1          0.5684   15.5145    4.6744 C.3       1 <0>        -0.1041
      2 C2          1.3295   14.7779    3.6024 C.2       1 <0>         0.0603
      3 C3          2.6015   15.0087    3.2201 C.2       1 <0>        -0.0163
      4 N1          2.9118   14.1487    2.2427 N.pl3     1 <0>        -0.5018
      5 C4          1.8734   13.3801    1.9951 C.cat     1 <0>         0.4180
      6 N2          0.8574   13.7512    2.8275 N.pl3     1 <0>        -0.5355
      7 H1         -0.1739   13.3919    2.9594 H         1 <0>         0.4983
      8 C5          1.8148   12.3045    0.9851 C.ar      1 <0>        -0.2557
      9 C6          0.6330   11.5915    0.7628 C.ar      1 <0>         0.2630
     10 N3          0.6207   10.6366   -0.1500 N.ar      1 <0>        -0.5502
     11 C7          1.7068   10.3467   -0.8539 C.ar      1 <0>         0.6057
     12 N4          2.8506   10.9889   -0.6768 N.ar      1 <0>        -0.5344
     13 C8          2.9493   11.9684    0.2179 C.ar      1 <0>         0.3245
     14 C9          4.2285   12.6889    0.4085 C.ar      1 <0>        -0.0960
     15 C10         4.5032   13.8370   -0.3350 C.ar      1 <0>        -0.0741
     16 C11         5.6961   14.5046   -0.1531 C.ar      1 <0>        -0.1034
     17 C12         6.6216   14.0378    0.7658 C.ar      1 <0>        -0.0060
     18 C13         6.3556   12.8994    1.5068 C.ar      1 <0>        -0.1004
     19 C14         5.1621   12.2255    1.3371 C.ar      1 <0>        -0.0102
     20 Cl1         4.8262   10.8019    2.2722 Cl        1 <0>        -0.0196
     21 Cl2         8.1212   14.8836    0.9884 Cl        1 <0>        -0.0156
     22 N5          1.6439    9.3382   -1.7983 N.pl3     1 <0>        -0.6771
     23 C15         0.3910    8.6088   -2.0086 C.3       1 <0>         0.1187
     24 C16         0.5913    7.5550   -3.0996 C.3       1 <0>         0.1146
     25 N6         -0.6617    6.8255   -3.3099 N.pl3     1 <0>        -0.7264
     26 C17        -0.7248    5.8150   -4.2562 C.ar      1 <0>         0.4308
     27 C18         0.4096    5.5008   -5.0023 C.ar      1 <0>        -0.2419
     28 C19         0.3438    4.5025   -5.9365 C.ar      1 <0>         0.0170
     29 C20        -0.8741    3.8267   -6.1096 C.ar      1 <0>        -0.1418
     30 C21        -1.9715    4.1979   -5.3309 C.ar      1 <0>         0.2117
     31 N7         -1.8634    5.1613   -4.4392 N.ar      1 <0>        -0.5400
     32 C22        -0.9909    2.7757   -7.0752 C.1       1 <0>         0.2563
     33 N8         -1.0836    1.9420   -7.8412 N.1       1 <0>        -0.4128
     34 H2          1.2149   16.2854    5.1192 H         1 <0>         0.1082
     35 H3          0.2540   14.8051    5.4541 H         1 <0>         0.0975
     36 H4         -0.3192   15.9907    4.2324 H         1 <0>         0.0976
     37 H5          3.2584   15.7603    3.6323 H         1 <0>         0.2190
     38 H6         -0.2580   11.8185    1.3293 H         1 <0>         0.1795
     39 H7          3.7826   14.2026   -1.0516 H         1 <0>         0.1593
     40 H8          5.9094   15.3932   -0.7287 H         1 <0>         0.1642
     41 H9          7.0807   12.5402    2.2221 H         1 <0>         0.1660
     42 H10         2.5346    9.0838   -2.3915 H         1 <0>         0.4546
     43 H11         0.0927    8.1149   -1.0721 H         1 <0>         0.0875
     44 H12        -0.3955    9.3126   -2.3186 H         1 <0>         0.0878
     45 H13         0.8896    8.0489   -4.0361 H         1 <0>         0.0767
     46 H14         1.3778    6.8512   -2.7896 H         1 <0>         0.0766
     47 H15        -1.5524    7.0798   -2.7167 H         1 <0>         0.4352
     48 H16         1.3321    6.0398   -4.8447 H         1 <0>         0.1384
     49 H17         1.2093    4.2410   -6.5273 H         1 <0>         0.1440
     50 H18        -2.9154    3.6886   -5.4577 H         1 <0>         0.1697
     51 H19         3.9131   14.1710    1.7879 H         1 <0>         0.4829
@<TRIPOS>BOND
     1    1    2 1
     2    1   34 1
     3    1   35 1
     4    1   36 1
     5    2    6 1
     6    2    3 2
     7    3    4 1
     8    3   37 1
     9    4    5 2
    10    4   51 1
    11    5    6 1
    12    5    8 1
    13    6    7 1
    14    8   13 ar
    15    8    9 ar
    16    9   10 ar
    17    9   38 1
    18   10   11 ar
    19   11   12 ar
    20   11   22 1
    21   12   13 ar
    22   13   14 1
    23   14   19 ar
    24   14   15 ar
    25   15   16 ar
    26   15   39 1
    27   16   17 ar
    28   16   40 1
    29   17   18 ar
    30   17   21 1
    31   18   19 ar
    32   18   41 1
    33   19   20 1
    34   22   23 1
    35   22   42 1
    36   23   24 1
    37   23   43 1
    38   23   44 1
    39   24   25 1
    40   24   45 1
    41   24   46 1
    42   25   26 1
    43   25   47 1
    44   26   31 ar
    45   26   27 ar
    46   27   28 ar
    47   27   48 1
    48   28   29 ar
    49   28   49 1
    50   29   30 ar
    51   29   32 1
    52   30   31 ar
    53   30   50 1
    54   32   33 3
@<TRIPOS>MOLECULE
ZINC29053046
   50    53     0     0     0
SMALL
USER_CHARGES

@<TRIPOS>ATOM
      1 C1         -3.3573    0.5686    0.3705 C.3       1 <0>        -0.0808
      2 C2         -2.6097   -0.7371    0.2847 C.2       1 <0>        -0.0096
      3 C3         -2.4380   -1.4913   -0.8194 C.2       1 <0>        -0.0180
      4 N1         -1.7196   -2.5705   -0.4866 N.2       1 <0>        -0.4547
      5 C4         -1.4315   -2.5213    0.7959 C.2       1 <0>         0.2535
      6 N2         -1.9709   -1.3791    1.3129 N.pl3     1 <0>        -0.5639
      7 H1         -1.9143   -1.0796    2.2338 H         1 <0>         0.4173
      8 C5         -0.6535   -3.5271    1.5467 C.ar      1 <0>        -0.1588
      9 C6         -0.5147   -3.4381    2.9349 C.ar      1 <0>         0.2083
     10 N3          0.1889   -4.3579    3.5706 N.ar      1 <0>        -0.5550
     11 C7          0.7618   -5.3582    2.9144 C.ar      1 <0>         0.5748
     12 N4          0.6600   -5.4860    1.6009 N.ar      1 <0>        -0.5422
     13 C8         -0.0350   -4.6072    0.8838 C.ar      1 <0>         0.2988
     14 C9         -0.1522   -4.7573   -0.5845 C.ar      1 <0>        -0.0043
     15 C10         0.7381   -4.0943   -1.4295 C.ar      1 <0>        -0.0543
     16 C11         0.6244   -4.2375   -2.7964 C.ar      1 <0>        -0.1002
     17 C12        -0.3714   -5.0378   -3.3317 C.ar      1 <0>        -0.0123
     18 C13        -1.2584   -5.6981   -2.4992 C.ar      1 <0>        -0.0999
     19 C14        -1.1505   -5.5673   -1.1286 C.ar      1 <0>         0.0178
     20 Cl1        -2.2583   -6.4024   -0.0849 Cl        1 <0>        -0.0553
     21 Cl2        -0.5078   -5.2129   -5.0534 Cl        1 <0>        -0.0579
     22 N5          1.4884   -6.2964    3.6247 N.pl3     1 <0>        -0.6908
     23 C15         1.6160   -6.1764    5.0792 C.3       1 <0>         0.1268
     24 C16         2.4630   -7.3328    5.6140 C.3       1 <0>         0.1110
     25 N6          2.5906   -7.2128    7.0685 N.pl3     1 <0>        -0.7108
     26 C17         3.3187   -8.1530    7.7802 C.ar      1 <0>         0.4299
     27 C18         3.9301   -9.2055    7.1017 C.ar      1 <0>        -0.2383
     28 C19         4.6486  -10.1325    7.8077 C.ar      1 <0>         0.0169
     29 C20         4.7434   -9.9870    9.2005 C.ar      1 <0>        -0.1472
     30 C21         4.1051   -8.9079    9.8139 C.ar      1 <0>         0.2112
     31 N7          3.4281   -8.0353    9.0961 N.ar      1 <0>        -0.5406
     32 C22         5.4837  -10.9322    9.9808 C.1       1 <0>         0.2614
     33 N8          6.0711  -11.6821   10.5999 N.1       1 <0>        -0.4203
     34 H2         -2.6725    1.3931    0.1720 H         1 <0>         0.0756
     35 H3         -4.1596    0.5770   -0.3672 H         1 <0>         0.0857
     36 H4         -3.7804    0.6801    1.3688 H         1 <0>         0.0657
     37 H5         -2.8161   -1.2635   -1.8050 H         1 <0>         0.1718
     38 H6         -0.9762   -2.6282    3.4803 H         1 <0>         0.1669
     39 H7          1.5149   -3.4696   -1.0138 H         1 <0>         0.1349
     40 H8          1.3132   -3.7242   -3.4510 H         1 <0>         0.1411
     41 H9         -2.0331   -6.3206   -2.9221 H         1 <0>         0.1447
     42 H10         1.9135   -7.0340    3.1598 H         1 <0>         0.4193
     43 H11         2.0972   -5.2297    5.3247 H         1 <0>         0.0798
     44 H12         0.6263   -6.2098    5.5347 H         1 <0>         0.0797
     45 H13         1.9818   -8.2795    5.3684 H         1 <0>         0.0780
     46 H14         3.4527   -7.2994    5.1585 H         1 <0>         0.0780
     47 H15         2.1654   -6.4752    7.5334 H         1 <0>         0.4123
     48 H16         3.8377   -9.2893    6.0290 H         1 <0>         0.1418
     49 H17         5.1312  -10.9573    7.3045 H         1 <0>         0.1438
     50 H18         4.1702   -8.7851   10.8849 H         1 <0>         0.1684
@<TRIPOS>BOND
     1    1    2 1
     2    1   34 1
     3    1   35 1
     4    1   36 1
     5    2    6 1
     6    2    3 2
     7    3    4 1
     8    3   37 1
     9    4    5 2
    10    5    6 1
    11    5    8 1
    12    6    7 1
    13    8   13 ar
    14    8    9 ar
    15    9   10 ar
    16    9   38 1
    17   10   11 ar
    18   11   12 ar
    19   11   22 1
    20   12   13 ar
    21   13   14 1
    22   14   19 ar
    23   14   15 ar
    24   15   16 ar
    25   15   39 1
    26   16   17 ar
    27   16   40 1
    28   17   18 ar
    29   17   21 1
    30   18   19 ar
    31   18   41 1
    32   19   20 1
    33   22   23 1
    34   22   42 1
    35   23   24 1
    36   23   43 1
    37   23   44 1
    38   24   25 1
    39   24   45 1
    40   24   46 1
    41   25   26 1
    42   25   47 1
    43   26   31 ar
    44   26   27 ar
    45   27   28 ar
    46   27   48 1
    47   28   29 ar
    48   28   49 1
    49   29   30 ar
    50   29   32 1
    51   30   31 ar
    52   30   50 1
    53   32   33 3
@<TRIPOS>MOLECULE
ZINC06754594
   50    52     0     0     0
SMALL
USER_CHARGES
2-[[2-(3-hydroxypropylamino)-9-isopropyl-purin-6-yl]aminomethyl]phenol
@<TRIPOS>ATOM
      1 C1         -1.1993    3.0950    1.2740 C.3       1 <0>        -0.1634
      2 C2         -1.2091    2.2185    0.0201 C.3       1 <0>         0.1337
      3 C3         -1.2116    3.1086   -1.2244 C.3       1 <0>        -0.1630
      4 N1         -0.0165    1.3677    0.0096 N.pl3     1 <0>        -0.4715
      5 C4          1.2795    1.7943   -0.0005 C.2       1 <0>         0.2422
      6 N2          2.0834    0.7716   -0.0137 N.2       1 <0>        -0.4460
      7 C5          1.3573   -0.3733   -0.0129 C.ar      1 <0>        -0.1162
      8 C6          0.0021   -0.0041    0.0020 C.ar      1 <0>         0.3384
      9 N3         -0.9280   -0.9537    0.0062 N.ar      1 <0>        -0.5979
     10 C7         -0.5853   -2.2317   -0.0036 C.ar      1 <0>         0.6145
     11 N4          0.6819   -2.6250   -0.0178 N.ar      1 <0>        -0.6072
     12 C8          1.6747   -1.7425   -0.0229 C.ar      1 <0>         0.4815
     13 N5          2.9931   -2.1622   -0.0382 N.pl3     1 <0>        -0.5860
     14 C9          3.3062   -3.5933   -0.0490 C.3       1 <0>         0.1183
     15 C10         4.8015   -3.7803   -0.0648 C.ar      1 <0>        -0.1247
     16 C11         5.4494   -4.0715   -1.2498 C.ar      1 <0>        -0.0932
     17 C12         6.8216   -4.2384   -1.2658 C.ar      1 <0>        -0.1308
     18 C13         7.5480   -4.1248   -0.0946 C.ar      1 <0>        -0.0960
     19 C14         6.9044   -3.8390    1.0936 C.ar      1 <0>        -0.1494
     20 C15         5.5278   -3.6658    1.1114 C.ar      1 <0>         0.1362
     21 O1          4.8922   -3.3849    2.2793 O.3       1 <0>        -0.4875
     22 N6         -1.5836   -3.1919    0.0007 N.pl3     1 <0>        -0.6969
     23 C16        -1.2321   -4.6141   -0.0099 C.3       1 <0>         0.1450
     24 C17        -2.5100   -5.4554   -0.0024 C.3       1 <0>        -0.1359
     25 C18        -2.1429   -6.9406   -0.0135 C.3       1 <0>         0.0812
     26 O2         -3.3365   -7.7264   -0.0065 O.3       1 <0>        -0.5748
     27 H1         -2.0866    3.7280    1.2819 H         1 <0>         0.0802
     28 H2         -1.1975    2.4609    2.1606 H         1 <0>         0.0634
     29 H3         -0.3067    3.7206    1.2730 H         1 <0>         0.0665
     30 H4         -2.1017    1.5929    0.0211 H         1 <0>         0.1061
     31 H5         -1.2186    2.4841   -2.1177 H         1 <0>         0.0630
     32 H6         -2.0989    3.7416   -1.2166 H         1 <0>         0.0802
     33 H7         -0.3190    3.7342   -1.2254 H         1 <0>         0.0665
     34 H8          1.5918    2.8281    0.0015 H         1 <0>         0.2172
     35 H9          3.4456   -1.8097   -0.8573 H         1 <0>         0.3678
     36 H10         2.8907   -4.0628    0.8427 H         1 <0>         0.0895
     37 H11         2.8731   -4.0533   -0.9372 H         1 <0>         0.0605
     38 H12         4.8838   -4.1648   -2.1652 H         1 <0>         0.1261
     39 H13         7.3267   -4.4620   -2.1939 H         1 <0>         0.1266
     40 H14         8.6194   -4.2601   -0.1089 H         1 <0>         0.1275
     41 H15         7.4721   -3.7507    2.0082 H         1 <0>         0.1297
     42 H16         4.6017   -4.1677    2.7672 H         1 <0>         0.3877
     43 H17        -2.5155   -2.9227    0.0107 H         1 <0>         0.4148
     44 H18        -0.6544   -4.8389   -0.9064 H         1 <0>         0.0682
     45 H19        -0.6379   -4.8481    0.8734 H         1 <0>         0.0687
     46 H20        -3.0878   -5.2306    0.8941 H         1 <0>         0.0779
     47 H21        -3.1043   -5.2214   -0.8857 H         1 <0>         0.0777
     48 H22        -1.5652   -7.1654   -0.9100 H         1 <0>         0.0498
     49 H23        -1.5487   -7.1746    0.8698 H         1 <0>         0.0500
     50 H24        -3.1793   -8.6805   -0.0129 H         1 <0>         0.3840
@<TRIPOS>BOND
     1    1    2 1
     2    1   27 1
     3    1   28 1
     4    1   29 1
     5    2    3 1
     6    2    4 1
     7    2   30 1
     8    3   31 1
     9    3   32 1
    10    3   33 1
    11    4    8 1
    12    4    5 1
    13    5    6 2
    14    5   34 1
    15    6    7 1
    16    7   12 ar
    17    7    8 ar
    18    8    9 ar
    19    9   10 ar
    20   10   11 ar
    21   10   22 1
    22   11   12 ar
    23   12   13 1
    24   13   14 1
    25   13   35 1
    26   14   15 1
    27   14   36 1
    28   14   37 1
    29   15   20 ar
    30   15   16 ar
    31   16   17 ar
    32   16   38 1
    33   17   18 ar
    34   17   39 1
    35   18   19 ar
    36   18   40 1
    37   19   20 ar
    38   19   41 1
    39   20   21 1
    40   21   42 1
    41   22   23 1
    42   22   43 1
    43   23   24 1
    44   23   44 1
    45   23   45 1
    46   24   25 1
    47   24   46 1
    48   24   47 1
    49   25   26 1
    50   25   48 1
    51   25   49 1
    52   26   50 1
@<TRIPOS>MOLECULE
ZINC01626613
   31    34     0     0     0
SMALL
USER_CHARGES
BLAHone
@<TRIPOS>ATOM
      1 C1          6.4967   -0.9421   -0.8454 C.ar      1 <0>        -0.1467
      2 C2          5.9357   -1.9084   -0.0262 C.ar      1 <0>        -0.0933
      3 C3          4.6611   -1.7834    0.4998 C.ar      1 <0>        -0.1325
      4 C4          3.9522   -0.6302    0.1700 C.ar      1 <0>         0.1086
      5 C5          4.5327    0.3577   -0.6680 C.ar      1 <0>        -0.0995
      6 C6          5.8231    0.2043   -1.1875 C.ar      1 <0>        -0.0629
      7 C7          3.5439    1.4059   -0.7996 C.2       1 <0>        -0.1530
      8 C8          2.4518    1.0187   -0.0942 C.2       1 <0>         0.1194
      9 N1          2.7010   -0.1993    0.5073 N.pl3     1 <0>        -0.5819
     10 H1          2.0818   -0.6759    1.0820 H         1 <0>         0.4182
     11 C9          1.1918    1.7883    0.0003 C.ar      1 <0>        -0.0549
     12 C10        -0.0126    1.0758    0.0080 C.ar      1 <0>        -0.0862
     13 C11        -1.2168    1.7447    0.0173 C.ar      1 <0>        -0.1257
     14 C12        -1.2361    3.1290    0.0278 C.ar      1 <0>        -0.0855
     15 C13        -0.0569    3.8412    0.0344 C.ar      1 <0>        -0.1399
     16 C14         1.1754    3.1828    0.0363 C.ar      1 <0>         0.1769
     17 N2          2.3138    3.9654    0.0978 N.am      1 <0>        -0.6637
     18 C15         3.4550    3.8280   -0.5739 C.2       1 <0>         0.5313
     19 O1          4.3479    4.6280   -0.3902 O.2       1 <0>        -0.5257
     20 C16         3.6669    2.7041   -1.5578 C.3       1 <0>        -0.0619
     21 H2          7.4953   -1.0956   -1.2270 H         1 <0>         0.1217
     22 H3          6.5128   -2.7903    0.2100 H         1 <0>         0.1238
     23 H4          4.2357   -2.5451    1.1365 H         1 <0>         0.1299
     24 H5          6.2679    0.9522   -1.8272 H         1 <0>         0.1326
     25 H6          0.0021   -0.0041    0.0020 H         1 <0>         0.1269
     26 H7         -2.1438    1.1905    0.0202 H         1 <0>         0.1328
     27 H8         -2.1804    3.6532    0.0267 H         1 <0>         0.1339
     28 H9         -0.0853    4.9209    0.0378 H         1 <0>         0.1350
     29 H10         2.2759    4.7145    0.7129 H         1 <0>         0.4055
     30 H11         2.9087    2.7491   -2.3397 H         1 <0>         0.1027
     31 H12         4.6598    2.7824   -2.0006 H         1 <0>         0.1141
@<TRIPOS>BOND
     1    1    6 ar
     2    1    2 ar
     3    1   21 1
     4    2    3 ar
     5    2   22 1
     6    3    4 ar
     7    3   23 1
     8    4    9 1
     9    4    5 ar
    10    5    6 ar
    11    5    7 1
    12    6   24 1
    13    7   20 1
    14    7    8 2
    15    8    9 1
    16    8   11 1
    17    9   10 1
    18   11   16 ar
    19   11   12 ar
    20   12   13 ar
    21   12   25 1
    22   13   14 ar
    23   13   26 1
    24   14   15 ar
    25   14   27 1
    26   15   16 ar
    27   15   28 1
    28   16   17 1
    29   17   18 am
    30   17   29 1
    31   18   19 2
    32   18   20 1
    33   20   30 1
    34   20   31 1
@<TRIPOS>MOLECULE
ZINC00023894
   33    36     0     0     0
SMALL
USER_CHARGES
nitroBLAHone
@<TRIPOS>ATOM
      1 C1         -1.2168    1.7447    0.0173 C.ar      1 <0>        -0.1248
      2 C2         -1.2362    3.1290    0.0291 C.ar      1 <0>        -0.0796
      3 C3         -0.0570    3.8412    0.0349 C.ar      1 <0>        -0.1394
      4 C4          1.1753    3.1829    0.0363 C.ar      1 <0>         0.1820
      5 C5          1.1918    1.7883    0.0003 C.ar      1 <0>        -0.0640
      6 C6         -0.0126    1.0758    0.0080 C.ar      1 <0>        -0.0830
      7 C7          2.4518    1.0187   -0.0940 C.2       1 <0>         0.1319
      8 C8          3.5437    1.4059   -0.7982 C.2       1 <0>        -0.1369
      9 C9          4.5324    0.3579   -0.6653 C.ar      1 <0>        -0.1059
     10 C10         5.8232    0.2044   -1.1840 C.ar      1 <0>         0.0160
     11 C11         6.4967   -0.9417   -0.8407 C.ar      1 <0>        -0.0663
     12 C12         5.9354   -1.9076   -0.0213 C.ar      1 <0>        -0.0488
     13 C13         4.6603   -1.7825    0.5038 C.ar      1 <0>        -0.1164
     14 C14         3.9515   -0.6298    0.1728 C.ar      1 <0>         0.1476
     15 N1          2.6996   -0.1992    0.5082 N.pl3     1 <0>        -0.5707
     16 H1          2.0793   -0.6764    1.0813 H         1 <0>         0.4266
     17 N2          7.8658   -1.1521   -1.3626 N.pl3     1 <0>         0.0308
     18 O1          8.4805   -2.1621   -1.0701 O.2       1 <0>        -0.1636
     19 O2          8.3776   -0.3152   -2.0845 O.3       1 <0>        -0.1642
     20 C15         3.6673    2.7036   -1.5570 C.3       1 <0>        -0.0670
     21 C16         3.4550    3.8281   -0.5735 C.2       1 <0>         0.5304
     22 O3          4.3481    4.6279   -0.3895 O.2       1 <0>        -0.5186
     23 N3          2.3137    3.9655    0.0979 N.am      1 <0>        -0.6643
     24 H2         -2.1437    1.1904    0.0200 H         1 <0>         0.1349
     25 H3         -2.1805    3.6531    0.0288 H         1 <0>         0.1361
     26 H4         -0.0854    4.9208    0.0381 H         1 <0>         0.1372
     27 H5          0.0021   -0.0041    0.0020 H         1 <0>         0.1282
     28 H6          6.2683    0.9519   -1.8238 H         1 <0>         0.1643
     29 H7          6.5127   -2.7888    0.2165 H         1 <0>         0.1559
     30 H8          4.2346   -2.5439    1.1405 H         1 <0>         0.1550
     31 H9          2.9096    2.7484   -2.3393 H         1 <0>         0.1101
     32 H10         4.6609    2.7808   -1.9984 H         1 <0>         0.1188
     33 H11         2.2756    4.7147    0.7128 H         1 <0>         0.4079
@<TRIPOS>BOND
     1    1    6 ar
     2    1    2 ar
     3    1   24 1
     4    2    3 ar
     5    2   25 1
     6    3    4 ar
     7    3   26 1
     8    4   23 1
     9    4    5 ar
    10    5    6 ar
    11    5    7 1
    12    6   27 1
    13    7   15 1
    14    7    8 2
    15    8    9 1
    16    8   20 1
    17    9   14 ar
    18    9   10 ar
    19   10   11 ar
    20   10   28 1
    21   11   12 ar
    22   11   17 1
    23   12   13 ar
    24   12   29 1
    25   13   14 ar
    26   13   30 1
    27   14   15 1
    28   15   16 1
    29   17   18 2
    30   17   19 1
    31   20   21 1
    32   20   31 1
    33   20   32 1
    34   21   22 2
    35   21   23 am
    36   23   33 1
@<TRIPOS>MOLECULE
ZINC03991710
   36    41     0     0     0
SMALL
USER_CHARGES

@<TRIPOS>ATOM
      1 C1          1.1698    2.0901    0.0021 C.ar      1 <0>        -0.1470
      2 C2          2.3802    1.4132   -0.0139 C.ar      1 <0>        -0.0714
      3 C3          2.4136    0.0354   -0.0214 C.ar      1 <0>        -0.1437
      4 C4          1.2263   -0.6905   -0.0133 C.ar      1 <0>         0.1445
      5 C5          0.0021   -0.0041    0.0020 C.ar      1 <0>        -0.1076
      6 C6         -0.0168    1.3900    0.0097 C.ar      1 <0>        -0.0468
      7 C7         -1.0533   -1.0311    0.0066 C.ar      1 <0>        -0.0092
      8 C8         -2.4524   -0.9704    0.0209 C.ar      1 <0>        -0.1059
      9 C9         -3.2046   -2.1581    0.0224 C.ar      1 <0>        -0.1073
     10 C10        -2.5513   -3.3971    0.0095 C.ar      1 <0>        -0.0140
     11 C11        -3.0283   -4.7902    0.0080 C.ar      1 <0>        -0.0924
     12 C12        -4.2968   -5.3691    0.0176 C.ar      1 <0>        -0.0389
     13 C13        -4.4227   -6.7408    0.0127 C.ar      1 <0>        -0.1213
     14 C14        -3.2927   -7.5464   -0.0024 C.ar      1 <0>        -0.0474
     15 C15        -2.0322   -6.9869   -0.0121 C.ar      1 <0>        -0.1137
     16 C16        -1.8842   -5.6033   -0.0073 C.ar      1 <0>         0.1498
     17 N1         -0.7696   -4.7856   -0.0148 N.pl3     1 <0>        -0.6026
     18 H1          0.1480   -5.0999   -0.0251 H         1 <0>         0.4226
     19 C17        -1.1485   -3.4570   -0.0049 C.ar      1 <0>         0.1511
     20 C18        -0.3991   -2.2735   -0.0064 C.ar      1 <0>         0.1482
     21 N2          0.9639   -2.0477   -0.0181 N.pl3     1 <0>        -0.6053
     22 H2          1.6405   -2.7427   -0.0288 H         1 <0>         0.4208
     23 Br1        -3.4830   -9.4278   -0.0103 Br        1 <0>        -0.0356
     24 C19        -4.6182   -1.7422    0.0387 C.2       1 <0>         0.5843
     25 O1         -5.5770   -2.4887    0.0449 O.2       1 <0>        -0.4579
     26 N3         -4.6696   -0.3981    0.0461 N.am      1 <0>        -0.6804
     27 C20        -3.4326    0.1301    0.0364 C.2       1 <0>         0.5838
     28 O2         -3.1677    1.3160    0.0392 O.2       1 <0>        -0.4567
     29 H3          1.1573    3.1701    0.0076 H         1 <0>         0.1321
     30 H4          3.3050    1.9709   -0.0199 H         1 <0>         0.1333
     31 H5          3.3619   -0.4813   -0.0332 H         1 <0>         0.1275
     32 H6         -0.9583    1.9192    0.0170 H         1 <0>         0.1424
     33 H7         -5.1776   -4.7442    0.0294 H         1 <0>         0.1518
     34 H8         -5.4044   -7.1910    0.0201 H         1 <0>         0.1423
     35 H9         -1.1594   -7.6229   -0.0238 H         1 <0>         0.1380
     36 H10        -5.4891    0.1208    0.0573 H         1 <0>         0.4326
@<TRIPOS>BOND
     1    1    6 ar
     2    1    2 ar
     3    1   29 1
     4    2    3 ar
     5    2   30 1
     6    3    4 ar
     7    3   31 1
     8    4   21 1
     9    4    5 ar
    10    5    6 ar
    11    5    7 1
    12    6   32 1
    13    7   20 ar
    14    7    8 ar
    15    8   27 1
    16    8    9 ar
    17    9   10 ar
    18    9   24 1
    19   10   19 ar
    20   10   11 1
    21   11   16 ar
    22   11   12 ar
    23   12   13 ar
    24   12   33 1
    25   13   14 ar
    26   13   34 1
    27   14   15 ar
    28   14   23 1
    29   15   16 ar
    30   15   35 1
    31   16   17 1
    32   17   18 1
    33   17   19 1
    34   19   20 ar
    35   20   21 1
    36   21   22 1
    37   24   25 2
    38   24   26 am
    39   26   27 am
    40   26   36 1
    41   27   28 2
@<TRIPOS>MOLECULE
ZINC00585151
   56    60     0     0     0
SMALL
USER_CHARGES

@<TRIPOS>ATOM
      1 C1         -0.0178    1.4648    0.0101 C.3       1 <0>        -0.0534
      2 N1          0.0021   -0.0041    0.0020 N.4       1 <0>        -0.3866
      3 C2          0.6897   -0.4778   -1.2066 C.3       1 <0>        -0.0478
      4 C3          0.7126   -0.4907    1.1921 C.3       1 <0>        -0.0080
      5 C4         -0.0711   -0.1034    2.4478 C.3       1 <0>        -0.1730
      6 C5          0.6689   -0.6103    3.6874 C.3       1 <0>         0.1182
      7 N2         -0.0815   -0.2395    4.8897 N.pl3     1 <0>        -0.4815
      8 C6          0.1469    0.8758    5.6359 C.2       1 <0>         0.0901
      9 C7         -0.7280    0.9160    6.6813 C.2       1 <0>        -0.1149
     10 C8         -1.5728   -0.2860    6.5675 C.ar      1 <0>        -0.0758
     11 C9         -1.1242   -0.9677    5.4239 C.ar      1 <0>         0.0951
     12 C10        -1.7430   -2.1563    5.0519 C.ar      1 <0>        -0.1325
     13 C11        -2.7877   -2.6520    5.8018 C.ar      1 <0>        -0.0916
     14 C12        -3.2317   -1.9762    6.9290 C.ar      1 <0>        -0.1341
     15 C13        -2.6274   -0.8005    7.3180 C.ar      1 <0>        -0.0675
     16 C14        -0.8118    1.9563    7.7201 C.2       1 <0>        -0.0396
     17 C15        -1.3439    3.2331    7.5833 C.2       1 <0>        -0.0216
     18 C16        -1.1928    3.8832    8.9015 C.2       1 <0>         0.5528
     19 O1         -1.5431    5.0129    9.1789 O.2       1 <0>        -0.4407
     20 N3         -0.6040    3.0163    9.7426 N.am      1 <0>        -0.6896
     21 C17        -0.3529    1.8519    9.1208 C.2       1 <0>         0.5557
     22 O2          0.1678    0.8770    9.6251 O.2       1 <0>        -0.4448
     23 C18        -1.9376    3.8193    6.3699 C.2       1 <0>        -0.1386
     24 C19        -3.1673    3.5437    5.8485 C.2       1 <0>         0.1034
     25 N4         -3.3630    4.2810    4.7213 N.pl3     1 <0>        -0.5859
     26 H1         -4.1640    4.2562    4.1748 H         1 <0>         0.4208
     27 C20        -2.2594    5.0687    4.4669 C.ar      1 <0>         0.0921
     28 C21        -1.3222    4.8236    5.4844 C.ar      1 <0>        -0.0761
     29 C22        -0.1012    5.4938    5.4850 C.ar      1 <0>        -0.0737
     30 C23         0.1803    6.3997    4.4856 C.ar      1 <0>        -0.1372
     31 C24        -0.7458    6.6457    3.4825 C.ar      1 <0>        -0.0980
     32 C25        -1.9544    5.9835    3.4647 C.ar      1 <0>        -0.1284
     33 H2          1.0047    1.8421    0.0024 H         1 <0>         0.1243
     34 H3         -0.5450    1.8259   -0.8730 H         1 <0>         0.1260
     35 H4         -0.5280    1.8163    0.9069 H         1 <0>         0.1232
     36 H5          1.7123   -0.1005   -1.2143 H         1 <0>         0.1234
     37 H6          0.7044   -1.5677   -1.2126 H         1 <0>         0.1246
     38 H7          0.1625   -0.1167   -2.0897 H         1 <0>         0.1259
     39 H8          0.8051   -1.5756    1.1418 H         1 <0>         0.1349
     40 H9          1.7055   -0.0428    1.2310 H         1 <0>         0.1343
     41 H10        -0.1636    0.9815    2.4982 H         1 <0>         0.0962
     42 H11        -1.0640   -0.5514    2.4090 H         1 <0>         0.0946
     43 H12         0.7614   -1.6952    3.6370 H         1 <0>         0.0986
     44 H13         1.6619   -0.1623    3.7262 H         1 <0>         0.1025
     45 H14         0.9061    1.6162    5.4314 H         1 <0>         0.1747
     46 H15        -1.4054   -2.6903    4.1759 H         1 <0>         0.1162
     47 H16        -3.2655   -3.5752    5.5090 H         1 <0>         0.1291
     48 H17        -4.0517   -2.3760    7.5071 H         1 <0>         0.1290
     49 H18        -2.9758   -0.2758    8.1954 H         1 <0>         0.1233
     50 H19        -0.3934    3.2036   10.6708 H         1 <0>         0.4318
     51 H20        -3.8779    2.8460    6.2665 H         1 <0>         0.1769
     52 H21         0.6213    5.3046    6.2652 H         1 <0>         0.1203
     53 H22         1.1262    6.9209    4.4834 H         1 <0>         0.1262
     54 H23        -0.5147    7.3581    2.7044 H         1 <0>         0.1278
     55 H24        -2.6689    6.1837    2.6799 H         1 <0>         0.1213
     56 H25        -0.9445   -0.3533    0.0092 H         1 <0>         0.4275
@<TRIPOS>BOND
     1    1    2 1
     2    1   33 1
     3    1   34 1
     4    1   35 1
     5    2    3 1
     6    2    4 1
     7    2   56 1
     8    3   36 1
     9    3   37 1
    10    3   38 1
    11    4    5 1
    12    4   39 1
    13    4   40 1
    14    5    6 1
    15    5   41 1
    16    5   42 1
    17    6    7 1
    18    6   43 1
    19    6   44 1
    20    7   11 1
    21    7    8 1
    22    8    9 2
    23    8   45 1
    24    9   10 1
    25    9   16 1
    26   10   15 ar
    27   10   11 ar
    28   11   12 ar
    29   12   13 ar
    30   12   46 1
    31   13   14 ar
    32   13   47 1
    33   14   15 ar
    34   14   48 1
    35   15   49 1
    36   16   21 1
    37   16   17 2
    38   17   18 1
    39   17   23 1
    40   18   19 2
    41   18   20 am
    42   20   21 am
    43   20   50 1
    44   21   22 2
    45   23   28 1
    46   23   24 2
    47   24   25 1
    48   24   51 1
    49   25   26 1
    50   25   27 1
    51   27   32 ar
    52   27   28 ar
    53   28   29 ar
    54   29   30 ar
    55   29   52 1
    56   30   31 ar
    57   30   53 1
    58   31   32 ar
    59   31   54 1
    60   32   55 1
@<TRIPOS>MOLECULE
ZINC02540737
   37    39     0     0     0
SMALL
USER_CHARGES

@<TRIPOS>ATOM
      1 C1          1.8081   -4.6616   -0.1863 C.3       1 <0>        -0.1532
      2 C2          0.9947   -3.3694   -0.0888 C.3       1 <0>        -0.1238
      3 C3         -0.4979   -3.7054   -0.0851 C.3       1 <0>        -0.1108
      4 C4         -1.3114   -2.4133    0.0123 C.3       1 <0>        -0.0498
      5 C5         -2.7792   -2.7336   -0.1052 C.2       1 <0>        -0.1230
      6 C6         -3.6798   -2.9315    0.9703 C.ar      1 <0>         0.0614
      7 C7         -4.9420   -3.2065    0.4005 C.ar      1 <0>         0.2369
      8 N1         -4.7889   -3.1715   -0.9660 N.pl3     1 <0>        -0.5623
      9 H1         -5.4920   -3.3243   -1.6165 H         1 <0>         0.4248
     10 C8         -3.4763   -2.8785   -1.2598 C.2       1 <0>         0.1482
     11 C9         -2.9137   -2.7464   -2.6203 C.ar      1 <0>        -0.0487
     12 C10        -2.1113   -1.6503   -2.9425 C.ar      1 <0>        -0.0701
     13 C11        -1.5883   -1.5309   -4.2122 C.ar      1 <0>        -0.1417
     14 C12        -1.8588   -2.4990   -5.1705 C.ar      1 <0>         0.1212
     15 C13        -2.6570   -3.5907   -4.8541 C.ar      1 <0>        -0.1426
     16 C14        -3.1787   -3.7204   -3.5849 C.ar      1 <0>        -0.0837
     17 O1         -1.3418   -2.3776   -6.4209 O.3       1 <0>        -0.4984
     18 N2         -5.9810   -3.4342    1.1913 N.ar      1 <0>        -0.4505
     19 C15        -5.8299   -3.4027    2.5029 C.ar      1 <0>         0.0851
     20 C16        -4.5912   -3.1329    3.0645 C.ar      1 <0>         0.0409
     21 N3         -3.5445   -2.9034    2.2954 N.ar      1 <0>        -0.4011
     22 H2          2.8715   -4.4222   -0.1889 H         1 <0>         0.0536
     23 H3          1.5814   -5.2990    0.6683 H         1 <0>         0.0533
     24 H4          1.5511   -5.1841   -1.1077 H         1 <0>         0.0520
     25 H5          1.2518   -2.8468    0.8325 H         1 <0>         0.0628
     26 H6          1.2215   -2.7320   -0.9435 H         1 <0>         0.0607
     27 H7         -0.7550   -4.2280   -1.0065 H         1 <0>         0.0595
     28 H8         -0.7247   -4.3429    0.7695 H         1 <0>         0.0621
     29 H9         -1.1197   -1.9348    0.9728 H         1 <0>         0.0793
     30 H10        -1.0209   -1.7394   -0.7936 H         1 <0>         0.0738
     31 H11        -1.9010   -0.8967   -2.1981 H         1 <0>         0.1370
     32 H12        -0.9674   -0.6833   -4.4622 H         1 <0>         0.1370
     33 H13        -2.8654   -4.3412   -5.6021 H         1 <0>         0.1349
     34 H14        -3.7953   -4.5721   -3.3382 H         1 <0>         0.1284
     35 H15        -0.4754   -2.7929   -6.5303 H         1 <0>         0.3956
     36 H16        -6.6791   -3.5885    3.1439 H         1 <0>         0.1767
     37 H17        -4.4828   -3.1100    4.1388 H         1 <0>         0.1746
@<TRIPOS>BOND
     1    1    2 1
     2    1   22 1
     3    1   23 1
     4    1   24 1
     5    2    3 1
     6    2   25 1
     7    2   26 1
     8    3    4 1
     9    3   27 1
    10    3   28 1
    11    4    5 1
    12    4   29 1
    13    4   30 1
    14    5   10 2
    15    5    6 1
    16    6   21 ar
    17    6    7 ar
    18    7    8 1
    19    7   18 ar
    20    8    9 1
    21    8   10 1
    22   10   11 1
    23   11   16 ar
    24   11   12 ar
    25   12   13 ar
    26   12   31 1
    27   13   14 ar
    28   13   32 1
    29   14   15 ar
    30   14   17 1
    31   15   16 ar
    32   15   33 1
    33   16   34 1
    34   17   35 1
    35   18   19 ar
    36   19   20 ar
    37   19   36 1
    38   20   21 ar
    39   20   37 1
@<TRIPOS>MOLECULE
ZINC02002752
   49    51     0     0     0
SMALL
USER_CHARGES

@<TRIPOS>ATOM
      1 C1         -0.0187    1.5258    0.0104 C.3       1 <0>        -0.1629
      2 C2          0.0021   -0.0041    0.0020 C.3       1 <0>         0.1342
      3 C3          0.7421   -0.5109    1.2415 C.3       1 <0>        -0.1627
      4 N1         -1.3723   -0.5112    0.0124 N.pl3     1 <0>        -0.4701
      5 C4         -2.3128   -0.2749    0.9723 C.2       1 <0>         0.2333
      6 N2         -3.4234   -0.8781    0.6638 N.2       1 <0>        -0.4545
      7 C5         -3.2674   -1.5381   -0.5102 C.ar      1 <0>        -0.1543
      8 C6         -1.9517   -1.3058   -0.9441 C.ar      1 <0>         0.3478
      9 N3         -1.5421   -1.8450   -2.0880 N.ar      1 <0>        -0.6157
     10 C7         -2.3616   -2.5894   -2.8127 C.ar      1 <0>         0.6296
     11 N4         -3.6124   -2.8321   -2.4423 N.ar      1 <0>        -0.6231
     12 C8         -4.1011   -2.3388   -1.3098 C.ar      1 <0>         0.5408
     13 N5         -5.4072   -2.5960   -0.9325 N.pl3     1 <0>        -0.6890
     14 C9         -6.2626   -3.4328   -1.7777 C.3       1 <0>         0.1711
     15 C10        -7.6256   -3.5562   -1.1470 C.ar      1 <0>        -0.1136
     16 C11        -7.8855   -4.5824   -0.2580 C.ar      1 <0>        -0.0984
     17 C12        -9.1359   -4.6955    0.3206 C.ar      1 <0>        -0.1221
     18 C13       -10.1261   -3.7822    0.0106 C.ar      1 <0>        -0.1101
     19 C14        -9.8660   -2.7555   -0.8776 C.ar      1 <0>        -0.1221
     20 C15        -8.6143   -2.6398   -1.4530 C.ar      1 <0>        -0.0984
     21 N6         -1.8979   -3.1336   -3.9991 N.pl3     1 <0>        -0.6969
     22 C16        -2.7840   -3.9617   -4.8209 C.3       1 <0>         0.1452
     23 C17        -2.0311   -4.4336   -6.0664 C.3       1 <0>        -0.1359
     24 C18        -2.9566   -5.2984   -6.9246 C.3       1 <0>         0.0809
     25 O1         -2.2534   -5.7392   -8.0879 O.3       1 <0>        -0.5752
     26 H1          1.0039    1.9031    0.0027 H         1 <0>         0.0795
     27 H2         -0.5459    1.8868   -0.8726 H         1 <0>         0.0630
     28 H3         -0.5289    1.8773    0.9072 H         1 <0>         0.0656
     29 H4          0.5123   -0.3556   -0.8948 H         1 <0>         0.1062
     30 H5          0.2319   -0.1594    2.1383 H         1 <0>         0.0656
     31 H6          0.7568   -1.6008    1.2356 H         1 <0>         0.0630
     32 H7          1.7647   -0.1336    1.2338 H         1 <0>         0.0795
     33 H8         -2.1580    0.3239    1.8577 H         1 <0>         0.2145
     34 H9         -5.7566   -2.2223   -0.1084 H         1 <0>         0.4197
     35 H10        -6.3581   -2.9762   -2.7629 H         1 <0>         0.0777
     36 H11        -5.8176   -4.4228   -1.8777 H         1 <0>         0.0774
     37 H12        -7.1119   -5.2959   -0.0158 H         1 <0>         0.1236
     38 H13        -9.3391   -5.4977    1.0146 H         1 <0>         0.1245
     39 H14       -11.1032   -3.8710    0.4621 H         1 <0>         0.1237
     40 H15       -10.6397   -2.0421   -1.1201 H         1 <0>         0.1245
     41 H16        -8.4099   -1.8355   -2.1441 H         1 <0>         0.1236
     42 H17        -0.9864   -2.9665   -4.2858 H         1 <0>         0.4145
     43 H18        -3.1109   -4.8270   -4.2442 H         1 <0>         0.0688
     44 H19        -3.6529   -3.3762   -5.1216 H         1 <0>         0.0688
     45 H20        -1.7043   -3.5683   -6.6430 H         1 <0>         0.0773
     46 H21        -1.1623   -5.0191   -5.7657 H         1 <0>         0.0773
     47 H22        -3.2835   -6.1637   -6.3480 H         1 <0>         0.0500
     48 H23        -3.8255   -4.7129   -7.2254 H         1 <0>         0.0500
     49 H24        -2.7804   -6.2937   -8.6795 H         1 <0>         0.3837
@<TRIPOS>BOND
     1    1    2 1
     2    1   26 1
     3    1   27 1
     4    1   28 1
     5    2    3 1
     6    2    4 1
     7    2   29 1
     8    3   30 1
     9    3   31 1
    10    3   32 1
    11    4    8 1
    12    4    5 1
    13    5    6 2
    14    5   33 1
    15    6    7 1
    16    7   12 ar
    17    7    8 ar
    18    8    9 ar
    19    9   10 ar
    20   10   11 ar
    21   10   21 1
    22   11   12 ar
    23   12   13 1
    24   13   14 1
    25   13   34 1
    26   14   15 1
    27   14   35 1
    28   14   36 1
    29   15   20 ar
    30   15   16 ar
    31   16   17 ar
    32   16   37 1
    33   17   18 ar
    34   17   38 1
    35   18   19 ar
    36   18   39 1
    37   19   20 ar
    38   19   40 1
    39   20   41 1
    40   21   22 1
    41   21   42 1
    42   22   23 1
    43   22   43 1
    44   22   44 1
    45   23   24 1
    46   23   45 1
    47   23   46 1
    48   24   25 1
    49   24   47 1
    50   24   48 1
    51   25   49 1
@<TRIPOS>MOLECULE
ZINC13538226
   37    39     0     0     0
SMALL
USER_CHARGES
N-benzyl-9-isopropyl-purin-6-amine
@<TRIPOS>ATOM
      1 C1         -0.0127    1.0858    0.0080 C.3       1 <0>        -0.1638
      2 C2         -0.7288    1.5792    1.2668 C.3       1 <0>         0.1311
      3 C3         -0.7496    3.1091    1.2752 C.3       1 <0>        -0.1644
      4 N1         -0.0203    1.0939    2.4537 N.pl3     1 <0>        -0.4673
      5 C4          1.2753    1.3593    2.7843 C.2       1 <0>         0.2606
      6 N2          1.5783    0.7689    3.9038 N.2       1 <0>        -0.4564
      7 C5          0.4996    0.0890    4.3615 C.ar      1 <0>        -0.0687
      8 C6         -0.5407    0.2939    3.4393 C.ar      1 <0>         0.2902
      9 N3         -1.7197   -0.2791    3.6579 N.ar      1 <0>        -0.5392
     10 C7         -1.9173   -1.0205    4.7277 C.ar      1 <0>         0.3451
     11 N4         -0.9724   -1.2373    5.6242 N.ar      1 <0>        -0.5717
     12 C8          0.2401   -0.7102    5.4876 C.ar      1 <0>         0.4419
     13 N5          1.2241   -0.9434    6.4323 N.pl3     1 <0>        -0.5956
     14 C9          0.9349   -1.7794    7.6001 C.3       1 <0>         0.1081
     15 C10         2.1642   -1.8745    8.4666 C.ar      1 <0>        -0.0934
     16 C11         3.0780   -2.8912    8.2608 C.ar      1 <0>        -0.1100
     17 C12         4.2082   -2.9753    9.0522 C.ar      1 <0>        -0.1206
     18 C13         4.4193   -2.0491   10.0565 C.ar      1 <0>        -0.1138
     19 C14         3.5026   -1.0358   10.2660 C.ar      1 <0>        -0.1212
     20 C15         2.3752   -0.9484    9.4709 C.ar      1 <0>        -0.0923
     21 H1          0.0021   -0.0041    0.0020 H         1 <0>         0.0641
     22 H2          1.0099    1.4631    0.0003 H         1 <0>         0.0668
     23 H3         -0.5399    1.4469   -0.8751 H         1 <0>         0.0827
     24 H4         -1.7514    1.2020    1.2746 H         1 <0>         0.1090
     25 H5         -1.2768    3.4701    0.3922 H         1 <0>         0.0827
     26 H6         -1.2598    3.4606    2.1720 H         1 <0>         0.0643
     27 H7          0.2730    3.4864    1.2675 H         1 <0>         0.0669
     28 H8          1.9507    1.9695    2.2030 H         1 <0>         0.2216
     29 H9         -2.8887   -1.4679    4.8778 H         1 <0>         0.2052
     30 H10         2.0027   -1.3962    5.9978 H         1 <0>         0.3681
     31 H11         0.1205   -1.3352    8.1723 H         1 <0>         0.0921
     32 H12         0.6451   -2.7770    7.2700 H         1 <0>         0.0638
     33 H13         2.9109   -3.6173    7.4791 H         1 <0>         0.1209
     34 H14         4.9246   -3.7667    8.8883 H         1 <0>         0.1234
     35 H15         5.3004   -2.1170   10.6773 H         1 <0>         0.1227
     36 H16         3.6675   -0.3122   11.0507 H         1 <0>         0.1237
     37 H17         1.6591   -0.1567    9.6346 H         1 <0>         0.1235
@<TRIPOS>BOND
     1    1    2 1
     2    1   21 1
     3    1   22 1
     4    1   23 1
     5    2    3 1
     6    2    4 1
     7    2   24 1
     8    3   25 1
     9    3   26 1
    10    3   27 1
    11    4    8 1
    12    4    5 1
    13    5    6 2
    14    5   28 1
    15    6    7 1
    16    7   12 ar
    17    7    8 ar
    18    8    9 ar
    19    9   10 ar
    20   10   11 ar
    21   10   29 1
    22   11   12 ar
    23   12   13 1
    24   13   14 1
    25   13   30 1
    26   14   15 1
    27   14   31 1
    28   14   32 1
    29   15   20 ar
    30   15   16 ar
    31   16   17 ar
    32   16   33 1
    33   17   18 ar
    34   17   34 1
    35   18   19 ar
    36   18   35 1
    37   19   20 ar
    38   19   36 1
    39   20   37 1
@<TRIPOS>MOLECULE
ZINC13538196
   37    39     0     0     0
SMALL
USER_CHARGES
N-benzyl-3-isopropyl-1H-pyrazolo[5,4-e]pyrimidin-7-amine
@<TRIPOS>ATOM
      1 C1          7.7605   -4.4031   -6.2035 C.3       1 <0>        -0.1440
      2 C2          8.2681   -3.2561   -5.3275 C.3       1 <0>        -0.0148
      3 C3          8.9817   -2.2234   -6.2023 C.3       1 <0>        -0.1440
      4 C4          7.1028   -2.6036   -4.6293 C.2       1 <0>         0.1100
      5 C5          6.9304   -2.5077   -3.2318 C.ar      1 <0>         0.0915
      6 C6          5.7146   -1.8345   -3.0159 C.ar      1 <0>        -0.0280
      7 C7          5.3082   -1.6004   -1.6948 C.ar      1 <0>         0.4601
      8 N1          6.0829   -2.0338   -0.7067 N.ar      1 <0>        -0.5550
      9 C8          7.2167   -2.6680   -0.9521 C.ar      1 <0>         0.3132
     10 N2          7.6434   -2.9066   -2.1706 N.ar      1 <0>        -0.5030
     11 N3          4.1233   -0.9376   -1.4260 N.pl3     1 <0>        -0.7055
     12 C9          3.7112   -0.7071   -0.0392 C.3       1 <0>         0.1740
     13 C10         2.3960    0.0285   -0.0217 C.ar      1 <0>        -0.1163
     14 C11         1.2084   -0.6789   -0.0136 C.ar      1 <0>        -0.0994
     15 C12         0.0021   -0.0041    0.0020 C.ar      1 <0>        -0.1218
     16 C13        -0.0167    1.3781    0.0096 C.ar      1 <0>        -0.1090
     17 C14         1.1709    2.0855    0.0021 C.ar      1 <0>        -0.1218
     18 C15         2.3773    1.4107   -0.0141 C.ar      1 <0>        -0.0995
     19 N4          5.2014   -1.5401   -4.2501 N.pl3     1 <0>        -0.4836
     20 H1          4.3448   -1.0566   -4.4306 H         1 <0>         0.4499
     21 N5          6.0872   -2.0352   -5.2163 N.2       1 <0>        -0.2140
     22 H2          7.0644   -4.0127   -6.9459 H         1 <0>         0.0613
     23 H3          8.6033   -4.8750   -6.7085 H         1 <0>         0.0669
     24 H4          7.2521   -5.1388   -5.5803 H         1 <0>         0.0558
     25 H5          8.9642   -3.6464   -4.5851 H         1 <0>         0.1007
     26 H6          9.3433   -1.4062   -5.5782 H         1 <0>         0.0558
     27 H7          9.8245   -2.6953   -6.7073 H         1 <0>         0.0669
     28 H8          8.2856   -1.8330   -6.9447 H         1 <0>         0.0612
     29 H9          7.8150   -3.0031   -0.1178 H         1 <0>         0.2014
     30 H10         3.5657   -0.6257   -2.1559 H         1 <0>         0.4073
     31 H11         4.4679   -0.1107    0.4703 H         1 <0>         0.0800
     32 H12         3.5990   -1.6641    0.4703 H         1 <0>         0.0800
     33 H13         1.2231   -1.7587   -0.0199 H         1 <0>         0.1242
     34 H14        -0.9258   -0.5567    0.0079 H         1 <0>         0.1254
     35 H15        -0.9592    1.9054    0.0170 H         1 <0>         0.1248
     36 H16         1.1563    3.1654    0.0077 H         1 <0>         0.1254
     37 H17         3.3051    1.9634   -0.0207 H         1 <0>         0.1242
@<TRIPOS>BOND
     1    1    2 1
     2    1   22 1
     3    1   23 1
     4    1   24 1
     5    2    3 1
     6    2    4 1
     7    2   25 1
     8    3   26 1
     9    3   27 1
    10    3   28 1
    11    4   21 2
    12    4    5 1
    13    5   10 ar
    14    5    6 ar
    15    6    7 ar
    16    6   19 1
    17    7    8 ar
    18    7   11 1
    19    8    9 ar
    20    9   10 ar
    21    9   29 1
    22   11   12 1
    23   11   30 1
    24   12   13 1
    25   12   31 1
    26   12   32 1
    27   13   18 ar
    28   13   14 ar
    29   14   15 ar
    30   14   33 1
    31   15   16 ar
    32   15   34 1
    33   16   17 ar
    34   16   35 1
    35   17   18 ar
    36   17   36 1
    37   18   37 1
    38   19   20 1
    39   19   21 1
