@<TRIPOS>MOLECULE
ZINC03938686
   63    67     0     0     0
SMALL
USER_CHARGES
9-acetyl-7-cyclopentyl-10-methyl-4-[(5-piperazin-1-yl-2-pyridyl)amino]-3,5,7-triazabicyclo[4.4.0]deca-2,4,9,11-tetraen-8-one
@<TRIPOS>ATOM
      1 C1         -2.3844   -0.3411    0.0474 C.3       1 <0>        -0.1409
      2 C2         -2.5671    1.1541    0.0026 C.2       1 <0>         0.1157
      3 C3         -1.4510    2.0113   -0.0422 C.ar      1 <0>        -0.2826
      4 C4         -0.1412    1.4997   -0.0469 C.ar      1 <0>         0.2613
      5 N1          0.8670    2.3479   -0.0954 N.ar      1 <0>        -0.5182
      6 C5          0.6607    3.6609   -0.1337 C.ar      1 <0>         0.6031
      7 N2         -0.5531    4.1905   -0.1255 N.ar      1 <0>        -0.5932
      8 C6         -1.6292    3.4134   -0.0780 C.ar      1 <0>         0.4749
      9 N3         -2.8875    3.9578   -0.0698 N.am      1 <0>        -0.4977
     10 C7         -3.9812    3.1727   -0.0386 C.2       1 <0>         0.5604
     11 O1         -5.0896    3.6763   -0.0364 O.2       1 <0>        -0.4885
     12 C8         -3.8413    1.7120    0.0053 C.2       1 <0>        -0.2966
     13 C9         -5.0259    0.8547    0.0508 C.2       1 <0>         0.4148
     14 O2         -4.9015   -0.3459    0.1765 O.2       1 <0>        -0.4617
     15 C10        -6.4005    1.4626   -0.0585 C.3       1 <0>        -0.1968
     16 C11        -3.0448    5.4137   -0.1137 C.3       1 <0>         0.1243
     17 C12        -3.8418    5.8964    1.1158 C.3       1 <0>        -0.1313
     18 C13        -4.7226    7.0478    0.5684 C.3       1 <0>        -0.1171
     19 C14        -5.1254    6.5332   -0.8359 C.3       1 <0>        -0.1176
     20 C15        -3.8602    5.8187   -1.3542 C.3       1 <0>        -0.1250
     21 N4          1.7523    4.5033   -0.1832 N.pl3     1 <0>        -0.6102
     22 C16         3.0418    3.9804   -0.0865 C.ar      1 <0>         0.3681
     23 C17         4.1310    4.8432   -0.0314 C.ar      1 <0>        -0.1772
     24 C18         5.4050    4.3149    0.0697 C.ar      1 <0>        -0.0499
     25 C19         5.5482    2.9285    0.1016 C.ar      1 <0>        -0.0032
     26 C20         4.4160    2.1302    0.0367 C.ar      1 <0>         0.1024
     27 N5          3.2149    2.6690   -0.0538 N.ar      1 <0>        -0.4385
     28 N6          6.8190    2.3494    0.1975 N.pl3     1 <0>        -0.4780
     29 C21         7.5351    2.8441    1.3815 C.3       1 <0>         0.0225
     30 C22         8.9453    2.2498    1.4067 C.3       1 <0>         0.0012
     31 C23         8.1396    0.2884    0.2394 C.3       1 <0>         0.0020
     32 C24         6.7294    0.8827    0.2142 C.3       1 <0>         0.0159
     33 H1         -2.4234   -0.6810    1.0823 H         1 <0>         0.0997
     34 H2         -3.1793   -0.8215   -0.5230 H         1 <0>         0.1126
     35 H3         -1.4184   -0.6022   -0.3847 H         1 <0>         0.0723
     36 H4          0.0350    0.4346   -0.0161 H         1 <0>         0.1893
     37 H5         -6.6334    1.5888   -1.0228 H         1 <0>         0.0842
     38 H6         -7.1292    0.7993    0.4075 H         1 <0>         0.0792
     39 H7         -6.4122    2.4280    0.4474 H         1 <0>         0.1146
     40 H8         -2.0666    5.8941   -0.1367 H         1 <0>         0.1179
     41 H9         -4.4652    5.0919    1.5062 H         1 <0>         0.0830
     42 H10        -3.1663    6.2655    1.8875 H         1 <0>         0.0681
     43 H11        -4.1472    7.9704    0.4913 H         1 <0>         0.0676
     44 H12        -5.6033    7.1918    1.1943 H         1 <0>         0.0730
     45 H13        -5.3865    7.3671   -1.4874 H         1 <0>         0.0659
     46 H14        -5.9562    5.8316   -0.7613 H         1 <0>         0.0805
     47 H15        -3.2781    6.4963   -1.9787 H         1 <0>         0.0721
     48 H16        -4.1382    4.9321   -1.9240 H         1 <0>         0.0687
     49 H17         1.6230    5.4592   -0.2853 H         1 <0>         0.4378
     50 H18         3.9835    5.9126   -0.0627 H         1 <0>         0.1468
     51 H19         6.2690    4.9610    0.1183 H         1 <0>         0.1448
     52 H20         4.5185    1.0553    0.0608 H         1 <0>         0.1601
     53 H21         7.5994    3.9314    1.3398 H         1 <0>         0.1266
     54 H22         6.9986    2.5455    2.2821 H         1 <0>         0.0696
     55 H23         9.4685    2.5924    2.2994 H         1 <0>         0.1410
     56 H24         9.4910    2.5707    0.5193 H         1 <0>         0.1409
     57 H25         8.0754   -0.7989    0.2811 H         1 <0>         0.1425
     58 H26         8.6760    0.5867   -0.6614 H         1 <0>         0.1410
     59 H27         6.1837    0.5618    1.1016 H         1 <0>         0.0733
     60 H28         6.2059    0.5401   -0.6783 H         1 <0>         0.1313
     61 N7          8.8595    0.7773    1.4306 N.4       1 <0>        -0.5194
     62 H29         8.3573    0.4807    2.2756 H         1 <0>         0.4317
     63 H30         9.8074    0.3827    1.4396 H         1 <0>         0.4407
@<TRIPOS>BOND
     1    1    2 1
     2    1   33 1
     3    1   34 1
     4    1   35 1
     5    2   12 2
     6    2    3 1
     7    3    8 ar
     8    3    4 ar
     9    4    5 ar
    10    4   36 1
    11    5    6 ar
    12    6    7 ar
    13    6   21 1
    14    7    8 ar
    15    8    9 1
    16    9   10 am
    17    9   16 1
    18   10   11 2
    19   10   12 1
    20   12   13 1
    21   13   14 2
    22   13   15 1
    23   15   37 1
    24   15   38 1
    25   15   39 1
    26   16   20 1
    27   16   17 1
    28   16   40 1
    29   17   18 1
    30   17   41 1
    31   17   42 1
    32   18   19 1
    33   18   43 1
    34   18   44 1
    35   19   20 1
    36   19   45 1
    37   19   46 1
    38   20   47 1
    39   20   48 1
    40   21   22 1
    41   21   49 1
    42   22   27 ar
    43   22   23 ar
    44   23   24 ar
    45   23   50 1
    46   24   25 ar
    47   24   51 1
    48   25   26 ar
    49   25   28 1
    50   26   27 ar
    51   26   52 1
    52   28   32 1
    53   28   29 1
    54   29   30 1
    55   29   53 1
    56   29   54 1
    57   30   55 1
    58   30   56 1
    59   30   61 1
    60   31   32 1
    61   31   57 1
    62   31   58 1
    63   31   61 1
    64   32   59 1
    65   32   60 1
    66   61   62 1
    67   61   63 1
@<TRIPOS>MOLECULE
ZINC13641637
   58    62     0     0     0
SMALL
USER_CHARGES
6-bromo-8-cyclopentyl-5-methyl-2-[(5-piperazin-1-yl-2-pyridyl)amino]pyrido[6,5-d]pyrimidin-7-one
@<TRIPOS>ATOM
      1 C1         -2.5896   -0.4133    0.0348 C.3       1 <0>        -0.1395
      2 C2         -2.5142    1.0918    0.0409 C.2       1 <0>         0.0746
      3 C3         -1.2251    1.7769    0.0326 C.ar      1 <0>        -0.2691
      4 C4         -0.0134    1.0765    0.0183 C.ar      1 <0>         0.2534
      5 N1          1.1122    1.7676    0.0064 N.ar      1 <0>        -0.5162
      6 C5          1.1039    3.0962    0.0129 C.ar      1 <0>         0.5962
      7 N2         -0.0174    3.8008    0.0314 N.ar      1 <0>        -0.5871
      8 C6         -1.1947    3.1884    0.0444 C.ar      1 <0>         0.4651
      9 N3         -2.3722    3.8905    0.0632 N.am      1 <0>        -0.4966
     10 C7         -3.5571    3.2541    0.0614 C.2       1 <0>         0.5544
     11 O1         -4.5832    3.9118    0.0746 O.2       1 <0>        -0.4817
     12 C8         -3.6446    1.8463    0.0548 C.2       1 <0>        -0.2180
     13 Br1        -5.3389    1.0066    0.0660 Br        1 <0>         0.0100
     14 C9         -2.3394    5.3551    0.0703 C.3       1 <0>         0.1273
     15 C10        -3.0814    5.8943    1.3107 C.3       1 <0>        -0.1315
     16 C11        -3.7996    7.1684    0.7986 C.3       1 <0>        -0.1167
     17 C12        -4.2494    6.7591   -0.6259 C.3       1 <0>        -0.1175
     18 C13        -3.0813    5.9049   -1.1605 C.3       1 <0>        -0.1247
     19 N4          2.3115    3.7687    0.0003 N.pl3     1 <0>        -0.6127
     20 C14         3.5074    3.0564    0.0913 C.ar      1 <0>         0.3708
     21 C15         4.7117    3.7449    0.1883 C.ar      1 <0>        -0.1789
     22 C16         5.8913    3.0295    0.2842 C.ar      1 <0>        -0.0494
     23 C17         5.8265    1.6370    0.2679 C.ar      1 <0>        -0.0053
     24 C18         4.5894    1.0190    0.1626 C.ar      1 <0>         0.1029
     25 N5          3.4833    1.7335    0.0788 N.ar      1 <0>        -0.4393
     26 N6          6.9955    0.8721    0.3563 N.pl3     1 <0>        -0.4778
     27 C19         7.7585    1.2141    1.5648 C.3       1 <0>         0.0224
     28 C20         9.0642    0.4158    1.5834 C.3       1 <0>         0.0013
     29 C21         7.9945   -1.3630    0.3382 C.3       1 <0>         0.0020
     30 C22         6.6888   -0.5647    0.3196 C.3       1 <0>         0.0160
     31 H1         -2.5987   -0.7808    1.0609 H         1 <0>         0.0997
     32 H2         -3.5012   -0.7293   -0.4724 H         1 <0>         0.0945
     33 H3         -1.7235   -0.8183   -0.4886 H         1 <0>         0.0846
     34 H4          0.0009   -0.0033    0.0126 H         1 <0>         0.1865
     35 H5         -1.3072    5.7052    0.0713 H         1 <0>         0.1176
     36 H6         -3.8080    5.1645    1.6677 H         1 <0>         0.0829
     37 H7         -2.3728    6.1459    2.0997 H         1 <0>         0.0679
     38 H8         -3.1089    8.0107    0.7586 H         1 <0>         0.0677
     39 H9         -4.6615    7.4036    1.4232 H         1 <0>         0.0727
     40 H10        -4.3929    7.6418   -1.2490 H         1 <0>         0.0659
     41 H11        -5.1647    6.1689   -0.5821 H         1 <0>         0.0803
     42 H12        -2.4093    6.5225   -1.7565 H         1 <0>         0.0721
     43 H13        -3.4650    5.0820   -1.7636 H         1 <0>         0.0681
     44 H14         2.3274    4.7358   -0.0719 H         1 <0>         0.4372
     45 H15         4.7253    4.8248    0.1935 H         1 <0>         0.1464
     46 H16         6.8409    3.5376    0.3649 H         1 <0>         0.1442
     47 H17         4.5307   -0.0593    0.1493 H         1 <0>         0.1596
     48 H18         7.9842    2.2804    1.5627 H         1 <0>         0.1265
     49 H19         7.1695    0.9684    2.4484 H         1 <0>         0.0695
     50 H20         9.6184    0.6462    2.4933 H         1 <0>         0.1409
     51 H21         9.6654    0.6816    0.7140 H         1 <0>         0.1408
     52 H22         7.7688   -2.4293    0.3403 H         1 <0>         0.1423
     53 H23         8.5834   -1.1176   -0.5456 H         1 <0>         0.1409
     54 H24         6.0876   -0.8305    1.1891 H         1 <0>         0.0731
     55 H25         6.1343   -0.7950   -0.5901 H         1 <0>         0.1312
     56 N7          8.7602   -1.0275    1.5536 N.4       1 <0>        -0.5194
     57 H26         8.2063   -1.2744    2.3822 H         1 <0>         0.4317
     58 H27         9.6386   -1.5591    1.5584 H         1 <0>         0.4406
@<TRIPOS>BOND
     1    1    2 1
     2    1   31 1
     3    1   32 1
     4    1   33 1
     5    2   12 2
     6    2    3 1
     7    3    8 ar
     8    3    4 ar
     9    4    5 ar
    10    4   34 1
    11    5    6 ar
    12    6    7 ar
    13    6   19 1
    14    7    8 ar
    15    8    9 1
    16    9   10 am
    17    9   14 1
    18   10   11 2
    19   10   12 1
    20   12   13 1
    21   14   18 1
    22   14   15 1
    23   14   35 1
    24   15   16 1
    25   15   36 1
    26   15   37 1
    27   16   17 1
    28   16   38 1
    29   16   39 1
    30   17   18 1
    31   17   40 1
    32   17   41 1
    33   18   42 1
    34   18   43 1
    35   19   20 1
    36   19   44 1
    37   20   25 ar
    38   20   21 ar
    39   21   22 ar
    40   21   45 1
    41   22   23 ar
    42   22   46 1
    43   23   24 ar
    44   23   26 1
    45   24   25 ar
    46   24   47 1
    47   26   30 1
    48   26   27 1
    49   27   28 1
    50   27   48 1
    51   27   49 1
    52   28   50 1
    53   28   51 1
    54   28   56 1
    55   29   30 1
    56   29   52 1
    57   29   53 1
    58   29   56 1
    59   30   54 1
    60   30   55 1
    61   56   57 1
    62   56   58 1
@<TRIPOS>MOLECULE
ZINC03816409
   50    52     0     0     0
SMALL
USER_CHARGES
N-[5-[(5-tert-butyloxazol-2-yl)methylsulfanyl]thiazol-2-yl]piperidine-4-carboxamide
@<TRIPOS>ATOM
      1 C1         -0.0127    1.0858    0.0080 C.3       1 <0>        -0.1425
      2 C2         -0.7288    1.5792    1.2668 C.3       1 <0>         0.0153
      3 C3          0.0111    1.0724    2.5063 C.3       1 <0>        -0.1429
      4 C4         -0.7496    3.1091    1.2752 C.3       1 <0>        -0.1470
      5 C5         -2.1426    1.0576    1.2775 C.2       1 <0>        -0.0059
      6 C6         -2.5173   -0.2324    1.2742 C.2       1 <0>        -0.0384
      7 N1         -3.8616   -0.2670    1.2868 N.2       1 <0>        -0.4461
      8 C7         -4.3108    0.9556    1.2976 C.2       1 <0>         0.1754
      9 O1         -3.2687    1.7975    1.2981 O.3       1 <0>        -0.1872
     10 C8         -5.7633    1.3568    1.3132 C.3       1 <0>        -0.0274
     11 S1         -6.3302    1.5091    3.0296 S.3       1 <0>         0.0531
     12 C9         -8.0223    1.9770    2.8797 C.2       1 <0>        -0.2079
     13 C10        -8.9445    2.2293    3.8504 C.2       1 <0>         0.0730
     14 N2        -10.1733    2.5704    3.5096 N.2       1 <0>        -0.4781
     15 C11       -10.5307    2.6731    2.2430 C.2       1 <0>         0.3098
     16 S2         -9.0031    2.2599    1.4114 S.3       1 <0>         0.0397
     17 N3        -11.7659    3.0158    1.7000 N.am      1 <0>        -0.6146
     18 C12       -12.8034    3.3002    2.5119 C.2       1 <0>         0.5107
     19 O2        -12.6609    3.2576    3.7157 O.2       1 <0>        -0.4551
     20 C13       -14.1405    3.6713    1.9241 C.3       1 <0>        -0.1149
     21 C14       -13.9915    4.9332    1.0698 C.3       1 <0>        -0.1461
     22 C15       -15.3628    5.3397    0.5255 C.3       1 <0>         0.0009
     23 C16       -16.4761    4.3789    2.4515 C.3       1 <0>        -0.0009
     24 C17       -15.1380    3.9438    3.0534 C.3       1 <0>        -0.1323
     25 H1          0.0021   -0.0041    0.0020 H         1 <0>         0.0648
     26 H2          1.0099    1.4631    0.0003 H         1 <0>         0.0750
     27 H3         -0.5399    1.4469   -0.8751 H         1 <0>         0.0608
     28 H4          1.0337    1.4497    2.4986 H         1 <0>         0.0751
     29 H5         -0.4990    1.4239    3.4031 H         1 <0>         0.0616
     30 H6          0.0259   -0.0175    2.5003 H         1 <0>         0.0649
     31 H7         -1.2768    3.4701    0.3922 H         1 <0>         0.0605
     32 H8         -1.2598    3.4606    2.1720 H         1 <0>         0.0616
     33 H9          0.2730    3.4864    1.2675 H         1 <0>         0.0706
     34 H10        -1.8578   -1.0876    1.2633 H         1 <0>         0.1891
     35 H11        -5.8813    2.3140    0.8053 H         1 <0>         0.1204
     36 H12        -6.3553    0.5983    0.8010 H         1 <0>         0.1329
     37 H13        -8.6718    2.1504    4.8925 H         1 <0>         0.1794
     38 H14       -11.8799    3.0499    0.7373 H         1 <0>         0.4267
     39 H15       -14.5061    2.8521    1.3049 H         1 <0>         0.1234
     40 H16       -13.5885    5.7409    1.6809 H         1 <0>         0.0995
     41 H17       -13.3151    4.7324    0.2390 H         1 <0>         0.1172
     42 H18       -15.7590    4.5372   -0.0967 H         1 <0>         0.1349
     43 H19       -15.2623    6.2461   -0.0715 H         1 <0>         0.1387
     44 H20       -16.8671    3.5809    1.8204 H         1 <0>         0.1334
     45 H21       -17.1842    4.5877    3.2534 H         1 <0>         0.1392
     46 H22       -15.2808    3.0361    3.6398 H         1 <0>         0.1229
     47 H23       -14.7528    4.7354    3.6961 H         1 <0>         0.1008
     48 N4        -16.2857    5.6006    1.6466 N.4       1 <0>        -0.5187
     49 H24       -17.1928    5.9050    1.2741 H         1 <0>         0.4395
     50 H25       -15.8944    6.3401    2.2417 H         1 <0>         0.4347
@<TRIPOS>BOND
     1    1    2 1
     2    1   25 1
     3    1   26 1
     4    1   27 1
     5    2    3 1
     6    2    4 1
     7    2    5 1
     8    3   28 1
     9    3   29 1
    10    3   30 1
    11    4   31 1
    12    4   32 1
    13    4   33 1
    14    5    9 1
    15    5    6 2
    16    6    7 1
    17    6   34 1
    18    7    8 2
    19    8    9 1
    20    8   10 1
    21   10   11 1
    22   10   35 1
    23   10   36 1
    24   11   12 1
    25   12   16 1
    26   12   13 2
    27   13   14 1
    28   13   37 1
    29   14   15 2
    30   15   16 1
    31   15   17 1
    32   17   18 am
    33   17   38 1
    34   18   19 2
    35   18   20 1
    36   20   24 1
    37   20   21 1
    38   20   39 1
    39   21   22 1
    40   21   40 1
    41   21   41 1
    42   22   42 1
    43   22   43 1
    44   22   48 1
    45   23   24 1
    46   23   44 1
    47   23   45 1
    48   23   48 1
    49   24   46 1
    50   24   47 1
    51   48   49 1
    52   48   50 1
@<TRIPOS>MOLECULE
ZINC03924157
   42    44     0     0     0
SMALL
USER_CHARGES

@<TRIPOS>ATOM
      1 C1          0.0101    1.6421    0.3204 C.3       1 <0>        -0.1518
      2 C2          0.1186    0.1164    0.3567 C.3       1 <0>        -0.1211
      3 C3         -1.2696   -0.4983    0.1673 C.3       1 <0>        -0.1176
      4 C4         -1.1611   -2.0240    0.2036 C.3       1 <0>         0.0797
      5 O1         -2.4577   -2.5981    0.0267 O.3       1 <0>        -0.3182
      6 C5         -2.5376   -3.9490    0.0337 C.ar      1 <0>         0.3009
      7 C6         -2.4048   -4.6898   -1.1534 C.ar      1 <0>        -0.2628
      8 C7         -2.1841   -4.3376   -2.5058 C.2       1 <0>         0.1084
      9 N1         -2.1427   -5.4289   -3.2138 N.2       1 <0>        -0.2329
     10 N2         -2.3302   -6.5390   -2.3823 N.pl3     1 <0>        -0.4786
     11 H1         -2.3414   -7.4662   -2.6668 H         1 <0>         0.4513
     12 C8         -2.4941   -6.0931   -1.1008 C.ar      1 <0>         0.3506
     13 N3         -2.7018   -6.7129    0.0590 N.ar      1 <0>        -0.5083
     14 C9         -2.8306   -6.0553    1.1864 C.ar      1 <0>         0.2389
     15 C10        -2.7500   -4.6562    1.2280 C.ar      1 <0>        -0.2892
     16 C11        -2.8911   -3.9380    2.5059 C.2       1 <0>         0.4589
     17 O2         -2.8480   -2.7224    2.5285 O.2       1 <0>        -0.4082
     18 C12        -3.0849   -4.6927    3.7588 C.ar      1 <0>        -0.2304
     19 C13        -1.9802   -5.1967    4.4549 C.ar      1 <0>         0.1655
     20 C14        -2.1710   -5.9025    5.6276 C.ar      1 <0>        -0.1646
     21 C15        -3.4490   -6.1113    6.1138 C.ar      1 <0>        -0.0074
     22 C16        -4.5465   -5.6172    5.4322 C.ar      1 <0>        -0.1646
     23 C17        -4.3741   -4.9038    4.2612 C.ar      1 <0>         0.1694
     24 F1         -5.4470   -4.4168    3.6002 F         1 <0>        -0.1191
     25 C18        -3.6469   -6.8822    7.3935 C.3       1 <0>        -0.1226
     26 F2         -0.7311   -4.9942    3.9816 F         1 <0>        -0.1212
     27 H2          0.9991    2.0800    0.4554 H         1 <0>         0.0572
     28 H3         -0.3975    1.9546   -0.6409 H         1 <0>         0.0562
     29 H4         -0.6486    1.9787    1.1211 H         1 <0>         0.0567
     30 H5          0.7773   -0.2201   -0.4439 H         1 <0>         0.0641
     31 H6          0.5263   -0.1961    1.3181 H         1 <0>         0.0646
     32 H7         -1.9283   -0.1617    0.9679 H         1 <0>         0.0796
     33 H8         -1.6773   -0.1858   -0.7941 H         1 <0>         0.0746
     34 H9         -0.5024   -2.3605   -0.5970 H         1 <0>         0.0581
     35 H10        -0.7534   -2.3365    1.1650 H         1 <0>         0.0597
     36 H11        -2.0700   -3.3333   -2.8863 H         1 <0>         0.2037
     37 H12        -2.9979   -6.6030    2.1020 H         1 <0>         0.1745
     38 H13        -1.3198   -6.2925    6.1659 H         1 <0>         0.1517
     39 H14        -5.5409   -5.7852    5.8188 H         1 <0>         0.1519
     40 H15        -3.6335   -6.1936    8.2383 H         1 <0>         0.0851
     41 H16        -4.6059   -7.3994    7.3615 H         1 <0>         0.0787
     42 H17        -2.8445   -7.6113    7.5063 H         1 <0>         0.0787
@<TRIPOS>BOND
     1    1    2 1
     2    1   27 1
     3    1   28 1
     4    1   29 1
     5    2    3 1
     6    2   30 1
     7    2   31 1
     8    3    4 1
     9    3   32 1
    10    3   33 1
    11    4    5 1
    12    4   34 1
    13    4   35 1
    14    5    6 1
    15    6   15 ar
    16    6    7 ar
    17    7   12 ar
    18    7    8 1
    19    8    9 2
    20    8   36 1
    21    9   10 1
    22   10   11 1
    23   10   12 1
    24   12   13 ar
    25   13   14 ar
    26   14   15 ar
    27   14   37 1
    28   15   16 1
    29   16   17 2
    30   16   18 1
    31   18   23 ar
    32   18   19 ar
    33   19   20 ar
    34   19   26 1
    35   20   21 ar
    36   20   38 1
    37   21   22 ar
    38   21   25 1
    39   22   23 ar
    40   22   39 1
    41   23   24 1
    42   25   40 1
    43   25   41 1
    44   25   42 1
@<TRIPOS>MOLECULE
ZINC03924157
   43    45     0     0     0
SMALL
USER_CHARGES
(4-butoxy-1H-pyrazolo[4,3-e]pyridin-5-yl)-(2,6-difluoro-4-methyl-phenyl)methanone
@<TRIPOS>ATOM
      1 C1          0.1011    1.4806    2.6683 C.3       1 <0>        -0.1549
      2 C2         -0.6446    2.0412    1.4556 C.3       1 <0>        -0.1207
      3 C3         -0.1038    1.3925    0.1798 C.3       1 <0>        -0.1215
      4 C4         -0.8495    1.9532   -1.0328 C.3       1 <0>         0.0785
      5 O1         -0.3443    1.3474   -2.2245 O.3       1 <0>        -0.3140
      6 C5         -0.9012    1.7362   -3.3949 C.ar      1 <0>         0.4111
      7 C6         -2.0154    1.0643   -3.9269 C.ar      1 <0>        -0.2694
      8 C7         -2.7950   -0.0329   -3.4911 C.2       1 <0>         0.2084
      9 N1         -3.7283   -0.2502   -4.3716 N.pl3     1 <0>        -0.3496
     10 N2         -3.6067    0.6639   -5.4245 N.2       1 <0>        -0.2899
     11 H1         -4.4269   -0.9627   -4.3059 H         1 <0>         0.4840
     12 C8         -2.5540    1.4926   -5.1544 C.ar      1 <0>         0.2939
     13 C9         -0.9841    3.1805   -5.3339 C.ar      1 <0>         0.3099
     14 C10        -0.3868    2.8261   -4.1159 C.ar      1 <0>        -0.2802
     15 C11         0.7738    3.5764   -3.6073 C.2       1 <0>         0.4651
     16 O2          1.3236    3.2243   -2.5808 O.2       1 <0>        -0.3775
     17 C12         1.2700    4.7552   -4.3428 C.ar      1 <0>        -0.2569
     18 C13         2.3359    4.6272   -5.2408 C.ar      1 <0>         0.1730
     19 C14         2.7905    5.7357   -5.9298 C.ar      1 <0>        -0.1617
     20 C15         2.2026    6.9710   -5.7256 C.ar      1 <0>         0.0085
     21 C16         1.1524    7.1078   -4.8358 C.ar      1 <0>        -0.1620
     22 C17         0.6813    6.0090   -4.1425 C.ar      1 <0>         0.1663
     23 F1         -0.3449    6.1448   -3.2742 F         1 <0>        -0.1203
     24 C18         2.7091    8.1750   -6.4772 C.3       1 <0>        -0.1304
     25 F2          2.9152    3.4226   -5.4376 F         1 <0>        -0.1166
     26 H2          1.1649    1.6980    2.5730 H         1 <0>         0.0595
     27 H3         -0.2842    1.9427    3.5772 H         1 <0>         0.0624
     28 H4         -0.0462    0.4018    2.7186 H         1 <0>         0.0581
     29 H5         -0.4973    3.1201    1.4053 H         1 <0>         0.0679
     30 H6         -1.7085    1.8239    1.5509 H         1 <0>         0.0661
     31 H7         -0.2512    0.3138    0.2301 H         1 <0>         0.0805
     32 H8          0.9600    1.6100    0.0846 H         1 <0>         0.0867
     33 H9         -1.9133    1.7359   -0.9376 H         1 <0>         0.0715
     34 H10        -0.7021    3.0319   -1.0832 H         1 <0>         0.0743
     35 H11        -2.6394   -0.5972   -2.5835 H         1 <0>         0.2276
     36 H12        -0.5844    4.0107   -5.8971 H         1 <0>         0.2104
     37 H13         3.6099    5.6379   -6.6264 H         1 <0>         0.1579
     38 H14         0.6991    8.0760   -4.6827 H         1 <0>         0.1575
     39 H15         3.4982    8.6577   -5.9008 H         1 <0>         0.0921
     40 H16         3.1051    7.8603   -7.4428 H         1 <0>         0.0832
     41 H17         1.8903    8.8776   -6.6319 H         1 <0>         0.0830
     42 N3         -2.0528    2.5499   -5.8728 N.ar      1 <0>        -0.4936
     43 H18        -2.4634    2.8433   -6.7670 H         1 <0>         0.4819
@<TRIPOS>BOND
     1    1    2 1
     2    1   26 1
     3    1   27 1
     4    1   28 1
     5    2    3 1
     6    2   29 1
     7    2   30 1
     8    3    4 1
     9    3   31 1
    10    3   32 1
    11    4    5 1
    12    4   33 1
    13    4   34 1
    14    5    6 1
    15    6   14 ar
    16    6    7 ar
    17    7   12 ar
    18    7    8 2
    19    8   35 1
    20    8    9 1
    21    9   11 1
    22    9   10 1
    23   10   12 2
    24   12   42 ar
    25   13   14 ar
    26   13   36 1
    27   13   42 ar
    28   14   15 1
    29   15   16 2
    30   15   17 1
    31   17   22 ar
    32   17   18 ar
    33   18   19 ar
    34   18   25 1
    35   19   20 ar
    36   19   37 1
    37   20   21 ar
    38   20   24 1
    39   21   22 ar
    40   21   38 1
    41   22   23 1
    42   24   39 1
    43   24   40 1
    44   24   41 1
    45   42   43 1
@<TRIPOS>MOLECULE
ZINC03924157
   43    45     0     0     0
SMALL
USER_CHARGES
(4-butoxy-1H-pyrazolo[4,3-e]pyridin-5-yl)-(2,6-difluoro-4-methyl-phenyl)methanone
@<TRIPOS>ATOM
      1 C1          0.1188    1.4601    2.6622 C.3       1 <0>        -0.1549
      2 C2         -0.6300    2.0236    1.4528 C.3       1 <0>        -0.1207
      3 C3         -0.0916    1.3790    0.1739 C.3       1 <0>        -0.1217
      4 C4         -0.8405    1.9426   -1.0354 C.3       1 <0>         0.0770
      5 O1         -0.3376    1.3406   -2.2299 O.3       1 <0>        -0.3084
      6 C5         -0.8974    1.7324   -3.3980 C.ar      1 <0>         0.3925
      7 C6         -2.0123    1.0612   -3.9294 C.ar      1 <0>        -0.2235
      8 C7         -2.7901   -0.0379   -3.4950 C.2       1 <0>         0.1449
      9 N1         -3.7283   -0.2502   -4.3716 N.2       1 <0>        -0.1963
     10 N2         -3.6253    0.6831   -5.4094 N.pl3     1 <0>        -0.4569
     11 H1         -4.2245    0.7391   -6.2081 H         1 <0>         0.4740
     12 C8         -2.5659    1.5049   -5.1447 C.ar      1 <0>         0.3467
     13 C9         -0.9921    3.1888   -5.3271 C.ar      1 <0>         0.2797
     14 C10        -0.3797    2.8189   -4.1213 C.ar      1 <0>        -0.2521
     15 C11         0.7906    3.5593   -3.6205 C.2       1 <0>         0.4618
     16 O2          1.3529    3.1940   -2.6055 O.2       1 <0>        -0.3686
     17 C12         1.2813    4.7443   -4.3498 C.ar      1 <0>        -0.2584
     18 C13         2.3344    4.6222   -5.2636 C.ar      1 <0>         0.1737
     19 C14         2.7838    5.7365   -5.9466 C.ar      1 <0>        -0.1616
     20 C15         2.2035    6.9716   -5.7209 C.ar      1 <0>         0.0097
     21 C16         1.1660    7.1025   -4.8154 C.ar      1 <0>        -0.1620
     22 C17         0.7001    5.9980   -4.1278 C.ar      1 <0>         0.1666
     23 F1         -0.3136    6.1280   -3.2442 F         1 <0>        -0.1201
     24 C18         2.7043    8.1819   -6.4662 C.3       1 <0>        -0.1309
     25 F2          2.9063    3.4177   -5.4814 F         1 <0>        -0.1162
     26 H2          1.1823    1.6785    2.5651 H         1 <0>         0.0590
     27 H3         -0.2647    1.9193    3.5733 H         1 <0>         0.0623
     28 H4         -0.0276    0.3810    2.7097 H         1 <0>         0.0588
     29 H5         -0.4836    3.1027    1.4053 H         1 <0>         0.0672
     30 H6         -1.6935    1.8052    1.5499 H         1 <0>         0.0670
     31 H7         -0.2381    0.3000    0.2215 H         1 <0>         0.0824
     32 H8          0.9718    1.5975    0.0769 H         1 <0>         0.0861
     33 H9         -1.9039    1.7242   -0.9384 H         1 <0>         0.0746
     34 H10        -0.6940    3.0216   -1.0830 H         1 <0>         0.0730
     35 H11        -2.6297   -0.6071   -2.5913 H         1 <0>         0.2311
     36 H12        -0.5969    4.0237   -5.8867 H         1 <0>         0.2138
     37 H13         3.5933    5.6433   -6.6553 H         1 <0>         0.1585
     38 H14         0.7185    8.0707   -4.6456 H         1 <0>         0.1579
     39 H15         3.5030    8.6554   -5.8954 H         1 <0>         0.0928
     40 H16         3.0859    7.8764   -7.4405 H         1 <0>         0.0835
     41 H17         1.8862    8.8892   -6.6020 H         1 <0>         0.0832
     42 N3         -2.0681    2.5657   -5.8603 N.ar      1 <0>        -0.5061
     43 H18        -2.4875    2.8681   -6.7473 H         1 <0>         0.4806
@<TRIPOS>BOND
     1    1    2 1
     2    1   26 1
     3    1   27 1
     4    1   28 1
     5    2    3 1
     6    2   29 1
     7    2   30 1
     8    3    4 1
     9    3   31 1
    10    3   32 1
    11    4    5 1
    12    4   33 1
    13    4   34 1
    14    5    6 1
    15    6   14 ar
    16    6    7 ar
    17    7   12 ar
    18    7    8 1
    19    8    9 2
    20    8   35 1
    21    9   10 1
    22   10   11 1
    23   10   12 1
    24   12   42 ar
    25   13   14 ar
    26   13   36 1
    27   13   42 ar
    28   14   15 1
    29   15   16 2
    30   15   17 1
    31   17   22 ar
    32   17   18 ar
    33   18   19 ar
    34   18   25 1
    35   19   20 ar
    36   19   37 1
    37   20   21 ar
    38   20   24 1
    39   21   22 ar
    40   21   38 1
    41   22   23 1
    42   24   39 1
    43   24   40 1
    44   24   41 1
    45   42   43 1
@<TRIPOS>MOLECULE
ZINC21288966
   49    52     0     0     0
SMALL
USER_CHARGES
2-(2-chlorophenyl)-5,7-dihydroxy-8-[(3S,4R)-3-hydroxy-1-methyl-4-piperidyl]chromen-4-one
@<TRIPOS>ATOM
      1 C1          6.0895   -0.0238    5.9621 C.3       1 <0>        -0.0460
      2 N1          6.1756    1.0472    4.9603 N.4       1 <0>        -0.3934
      3 C2          5.9739    0.5180    3.6055 C.3       1 <0>        -0.0028
      4 C3          6.2126    1.6289    2.5802 C.3       1 <0>        -0.1464
      5 C4          5.2418    2.7821    2.8491 C.3       1 <0>        -0.0180
      6 H1          4.2050    2.4431    2.7074 H         1 <0>         0.1039
      7 C5          5.4391    3.2830    4.2825 C.3       1 <0>         0.1015
      8 H2          4.7709    4.1271    4.5084 H         1 <0>         0.0941
      9 C6          5.2218    2.1236    5.2574 C.3       1 <0>        -0.0361
     10 O1          6.7669    3.7898    4.4323 O.3       1 <0>        -0.5639
     11 C7          5.5132    3.9050    1.8814 C.ar      1 <0>        -0.2158
     12 C8          6.8017    4.3949    1.7322 C.ar      1 <0>         0.2946
     13 C9          7.0678    5.4304    0.8434 C.ar      1 <0>        -0.3049
     14 C10         6.0448    5.9841    0.0956 C.ar      1 <0>         0.3111
     15 C11         4.7411    5.4942    0.2412 C.ar      1 <0>        -0.3649
     16 C12         4.4748    4.4470    1.1407 C.ar      1 <0>         0.2362
     17 O2          3.2147    3.9814    1.2730 O.3       1 <0>        -0.2171
     18 C13         2.1871    4.4838    0.5705 C.2       1 <0>         0.1982
     19 C14         2.3394    5.4926   -0.3277 C.2       1 <0>        -0.2780
     20 C15         3.6225    6.0546   -0.5353 C.2       1 <0>         0.4382
     21 O3          3.7953    6.9641   -1.3304 O.2       1 <0>        -0.4786
     22 C16         0.8407    3.9147    0.7769 C.ar      1 <0>        -0.0680
     23 C17         0.6478    2.5322    0.7263 C.ar      1 <0>        -0.0708
     24 C18        -0.6124    2.0073    0.9205 C.ar      1 <0>        -0.1159
     25 C19        -1.6867    2.8467    1.1599 C.ar      1 <0>        -0.0780
     26 C20        -1.5036    4.2164    1.2169 C.ar      1 <0>        -0.1066
     27 C21        -0.2472    4.7566    1.0243 C.ar      1 <0>        -0.0057
     28 Cl1        -0.0199    6.4765    1.0889 Cl        1 <0>        -0.0424
     29 O4          6.3024    6.9947   -0.7728 O.3       1 <0>        -0.4999
     30 O5          7.8133    3.8585    2.4614 O.3       1 <0>        -0.4665
     31 H3          6.8128   -0.8151    5.7159 H         1 <0>         0.1242
     32 H4          5.0728   -0.4438    5.9634 H         1 <0>         0.1169
     33 H5          6.3184    0.3856    6.9571 H         1 <0>         0.1225
     34 H6          6.6809   -0.3050    3.4243 H         1 <0>         0.1308
     35 H7          4.9438    0.1448    3.5072 H         1 <0>         0.1211
     36 H8          7.2477    1.9910    2.6662 H         1 <0>         0.1216
     37 H9          6.0450    1.2349    1.5669 H         1 <0>         0.1057
     38 H10         4.1951    1.7434    5.1512 H         1 <0>         0.1298
     39 H11         5.3771    2.4772    6.2874 H         1 <0>         0.1312
     40 H12         7.0946    4.1958    5.4007 H         1 <0>         0.4106
     41 H13         8.0758    5.8030    0.7365 H         1 <0>         0.1471
     42 H14         1.4871    5.8659   -0.8759 H         1 <0>         0.1670
     43 H15         1.4839    1.8757    0.5352 H         1 <0>         0.1384
     44 H16        -0.7625    0.9385    0.8812 H         1 <0>         0.1407
     45 H17        -2.6721    2.4298    1.3071 H         1 <0>         0.1438
     46 H18        -2.3456    4.8651    1.4082 H         1 <0>         0.1476
     47 H19         5.4855    7.4321   -1.3656 H         1 <0>         0.4556
     48 H20         8.8375    4.2431    2.3473 H         1 <0>         0.4397
     49 H21         7.1882    1.4744    5.0059 H         1 <0>         0.4481
@<TRIPOS>BOND
     1    1    2 1
     2    1   31 1
     3    1   32 1
     4    1   33 1
     5    2    9 1
     6    2    3 1
     7    2   49 1
     8    3    4 1
     9    3   34 1
    10    3   35 1
    11    4    5 1
    12    4   36 1
    13    4   37 1
    14    5    6 1
    15    5    7 1
    16    5   11 1
    17    7    8 1
    18    7    9 1
    19    7   10 1
    20    9   38 1
    21    9   39 1
    22   10   40 1
    23   11   16 ar
    24   11   12 ar
    25   12   13 ar
    26   12   30 1
    27   13   14 ar
    28   13   41 1
    29   14   15 ar
    30   14   29 1
    31   15   20 1
    32   15   16 ar
    33   16   17 1
    34   17   18 1
    35   18   19 2
    36   18   22 1
    37   19   20 1
    38   19   42 1
    39   20   21 2
    40   22   27 ar
    41   22   23 ar
    42   23   24 ar
    43   23   43 1
    44   24   25 ar
    45   24   44 1
    46   25   26 ar
    47   25   45 1
    48   26   27 ar
    49   26   46 1
    50   27   28 1
    51   29   47 1
    52   30   48 1
