@<TRIPOS>MOLECULE
ZINC22010574
   54    56     0     0     0
SMALL
USER_CHARGES
[5-chloro-2-[2-[(2R)-4-[(4-fluorophenyl)methyl]-2-methyl-piperazin-1-yl]-2-oxo-ethoxy]phenyl]urea
@<TRIPOS>ATOM
      1 C1          6.3375   -1.6445   -0.7087 C.3       1 <0>        -0.1553
      2 C2          5.3974   -2.8260   -0.4613 C.3       1 <0>         0.1534
      3 H1          5.6505   -3.3194    0.4887 H         1 <0>         0.0848
      4 C3          5.4927   -3.8084   -1.6275 C.3       1 <0>         0.0438
      5 N1          4.4779   -4.8582   -1.4661 N.3       1 <0>        -0.5317
      6 C4          3.1204   -4.2987   -1.5117 C.3       1 <0>         0.0319
      7 C5          2.9282   -3.3366   -0.3345 C.3       1 <0>         0.1063
      8 N2          4.0119   -2.3425   -0.3619 N.am      1 <0>        -0.6097
      9 C6          3.7421   -1.0233   -0.3031 C.2       1 <0>         0.5227
     10 O1          4.6486   -0.2222   -0.2175 O.2       1 <0>        -0.5064
     11 C7          2.3140   -0.5437   -0.3437 C.3       1 <0>         0.0366
     12 O2          2.2883    0.8830   -0.2676 O.3       1 <0>        -0.2872
     13 C8          1.0669    1.4808   -0.2922 C.ar      1 <0>         0.1021
     14 C9         -0.0808    0.7108   -0.3873 C.ar      1 <0>        -0.1799
     15 C10        -1.3217    1.3197   -0.4180 C.ar      1 <0>        -0.0885
     16 C11        -1.4220    2.6978   -0.3432 C.ar      1 <0>        -0.0488
     17 C12        -0.2805    3.4729   -0.2481 C.ar      1 <0>        -0.0804
     18 C13         0.9675    2.8682   -0.2222 C.ar      1 <0>         0.1640
     19 N3          2.1259    3.6516   -0.1263 N.am      1 <0>        -0.6910
     20 C14         2.1130    4.7876    0.5989 C.2       1 <0>         0.7091
     21 O3          1.0767    5.1753    1.1031 O.2       1 <0>        -0.5880
     22 N4          3.2488    5.4938    0.7653 N.am      1 <0>        -0.8845
     23 Cl1        -2.9835    3.4556   -0.3749 Cl        1 <0>        -0.0630
     24 C15         4.6467   -5.9130   -2.4744 C.3       1 <0>         0.0937
     25 C16         3.7642   -7.0846   -2.1284 C.ar      1 <0>        -0.0917
     26 C17         4.2489   -8.1014   -1.3268 C.ar      1 <0>        -0.0670
     27 C18         3.4387   -9.1734   -1.0042 C.ar      1 <0>        -0.1530
     28 C19         2.1450   -9.2348   -1.4937 C.ar      1 <0>         0.1005
     29 C20         1.6625   -8.2186   -2.3010 C.ar      1 <0>        -0.1535
     30 C21         2.4725   -7.1445   -2.6173 C.ar      1 <0>        -0.0872
     31 F1          1.3542  -10.2855   -1.1842 F         1 <0>        -0.1388
     32 H2          7.3728   -2.0089   -0.7826 H         1 <0>         0.0527
     33 H3          6.2582   -0.9320    0.1256 H         1 <0>         0.0995
     34 H4          6.0573   -1.1433   -1.6469 H         1 <0>         0.0578
     35 H5          5.3200   -3.2731   -2.5728 H         1 <0>         0.0429
     36 H6          6.4936   -4.2645   -1.6419 H         1 <0>         0.0932
     37 H7          2.9794   -3.7553   -2.4577 H         1 <0>         0.0418
     38 H8          2.3852   -5.1142   -1.4441 H         1 <0>         0.0965
     39 H9          1.9547   -2.8331   -0.4277 H         1 <0>         0.0879
     40 H10         2.9603   -3.9008    0.6092 H         1 <0>         0.0862
     41 H11         1.8445   -0.8693   -1.2837 H         1 <0>         0.0942
     42 H12         1.7609   -0.9663    0.5080 H         1 <0>         0.0949
     43 H13        -0.0060   -0.3652   -0.4421 H         1 <0>         0.1391
     44 H14        -2.2151    0.7180   -0.4967 H         1 <0>         0.1385
     45 H15        -0.3609    4.5486   -0.1943 H         1 <0>         0.1600
     46 H16         3.0454    3.3392   -0.6429 H         1 <0>         0.4371
     47 H17         3.2383    6.4209    1.3572 H         1 <0>         0.4418
     48 H18         4.1863    5.1430    0.3092 H         1 <0>         0.4177
     49 H19         4.3666   -5.5226   -3.4639 H         1 <0>         0.0483
     50 H20         5.6974   -6.2381   -2.4926 H         1 <0>         0.0906
     51 H21         5.2598   -8.0558   -0.9493 H         1 <0>         0.1342
     52 H22         3.8160   -9.9653   -0.3741 H         1 <0>         0.1365
     53 H23         0.6537   -8.2655   -2.6837 H         1 <0>         0.1359
     54 H24         2.0964   -6.3518   -3.2470 H         1 <0>         0.1292
@<TRIPOS>BOND
     1    1    2 1
     2    1   32 1
     3    1   33 1
     4    1   34 1
     5    2    3 1
     6    2    8 1
     7    2    4 1
     8    4    5 1
     9    4   35 1
    10    4   36 1
    11    5    6 1
    12    5   24 1
    13    6    7 1
    14    6   37 1
    15    6   38 1
    16    7    8 1
    17    7   39 1
    18    7   40 1
    19    8    9 am
    20    9   10 2
    21    9   11 1
    22   11   12 1
    23   11   41 1
    24   11   42 1
    25   12   13 1
    26   13   18 ar
    27   13   14 ar
    28   14   15 ar
    29   14   43 1
    30   15   16 ar
    31   15   44 1
    32   16   17 ar
    33   16   23 1
    34   17   18 ar
    35   17   45 1
    36   18   19 1
    37   19   20 am
    38   19   46 1
    39   20   21 2
    40   20   22 am
    41   22   47 1
    42   22   48 1
    43   24   25 1
    44   24   49 1
    45   24   50 1
    46   25   30 ar
    47   25   26 ar
    48   26   27 ar
    49   26   51 1
    50   27   28 ar
    51   27   52 1
    52   28   29 ar
    53   28   31 1
    54   29   30 ar
    55   29   53 1
    56   30   54 1
@<TRIPOS>MOLECULE
ZINC03979252
   73    77     0     0     0
SMALL
USER_CHARGES
2,7-dichloro-N-[1-(1-cyclooctenylmethyl)-1-ethyl-3,4,5,6-tetrahydro-2H-pyridin-4-yl]-9H-xanthene-9-carboxamide
@<TRIPOS>ATOM
      1 C1          2.3543   10.0887   -4.0201 C.3       1 <0>        -0.1888
      2 C2          1.3098    8.9858   -4.2035 C.3       1 <0>        -0.0204
      3 N1          1.7784    8.0312   -5.2169 N.4       1 <0>        -0.2601
      4 C3          0.7745    6.9751   -5.3934 C.3       1 <0>        -0.0101
      5 C4          0.5039    6.2937   -4.0503 C.3       1 <0>        -0.1561
      6 C5          1.8047    5.6808   -3.5238 C.3       1 <0>         0.1389
      7 C6          2.8684    6.7770   -3.4145 C.3       1 <0>        -0.1611
      8 C7          3.0500    7.4418   -4.7809 C.3       1 <0>        -0.0218
      9 N2          1.5697    5.0928   -2.2027 N.am      1 <0>        -0.7272
     10 C8          2.3606    4.0960   -1.7584 C.2       1 <0>         0.5285
     11 O1          3.2668    3.6858   -2.4522 O.2       1 <0>        -0.5047
     12 C9          2.1188    3.4911   -0.3994 C.3       1 <0>        -0.0093
     13 H1          2.2242    4.2641    0.3619 H         1 <0>         0.1270
     14 C10         0.7237    2.9311   -0.3464 C.ar      1 <0>        -0.1438
     15 C11        -0.3466    3.7925   -0.1815 C.ar      1 <0>        -0.0776
     16 C12        -1.6369    3.2980   -0.1318 C.ar      1 <0>        -0.0542
     17 C13        -1.8618    1.9379   -0.2524 C.ar      1 <0>        -0.0658
     18 C14        -0.7969    1.0742   -0.4105 C.ar      1 <0>        -0.1134
     19 C15         0.5016    1.5686   -0.4609 C.ar      1 <0>         0.1382
     20 O2          1.5322    0.7042   -0.6215 O.3       1 <0>        -0.2335
     21 C16         2.7888    1.0722   -0.2739 C.ar      1 <0>         0.1299
     22 C17         3.1331    2.4083   -0.1508 C.ar      1 <0>        -0.1244
     23 C18         4.4243    2.7575    0.2035 C.ar      1 <0>        -0.0554
     24 C19         5.3715    1.7774    0.4368 C.ar      1 <0>        -0.0529
     25 C20         5.0294    0.4421    0.3160 C.ar      1 <0>        -0.0669
     26 C21         3.7430    0.0889   -0.0379 C.ar      1 <0>        -0.1162
     27 Cl1         6.9898    2.2222    0.8805 Cl        1 <0>        -0.0544
     28 Cl2        -2.9753    4.3841    0.0747 Cl        1 <0>        -0.0534
     29 C22         1.9789    8.7323   -6.4922 C.3       1 <0>         0.0063
     30 C23         2.5843    7.7855   -7.4962 C.2       1 <0>        -0.1678
     31 C24         1.6927    7.1930   -8.2076 C.2       1 <0>        -0.0779
     32 C25         2.0349    6.2896   -9.3705 C.3       1 <0>        -0.1136
     33 C26         2.4035    4.9020   -8.8408 C.3       1 <0>        -0.1203
     34 C27         3.1644    4.9954   -7.5260 C.3       1 <0>        -0.1317
     35 C28         4.5945    5.3729   -7.8657 C.3       1 <0>        -0.1273
     36 C29         4.6741    6.7881   -8.4427 C.3       1 <0>        -0.1376
     37 C30         4.0681    7.7575   -7.4217 C.3       1 <0>        -0.0950
     38 H2          2.0320   10.7666   -3.2297 H         1 <0>         0.1051
     39 H3          3.3106    9.6419   -3.7480 H         1 <0>         0.0805
     40 H4          2.4644   10.6433   -4.9519 H         1 <0>         0.0817
     41 H5          0.3680    9.4278   -4.5286 H         1 <0>         0.1284
     42 H6          1.1599    8.4664   -3.2570 H         1 <0>         0.1304
     43 H7          1.1445    6.2381   -6.1062 H         1 <0>         0.1341
     44 H8         -0.1496    7.4129   -5.7710 H         1 <0>         0.1333
     45 H9         -0.2405    5.5087   -4.1838 H         1 <0>         0.1193
     46 H10         0.1335    7.0299   -3.3368 H         1 <0>         0.0957
     47 H11         2.1476    4.9074   -4.2112 H         1 <0>         0.1064
     48 H12         2.5484    7.5235   -2.6875 H         1 <0>         0.0919
     49 H13         3.8128    6.3372   -3.0940 H         1 <0>         0.1165
     50 H14         3.3716    6.6948   -5.5067 H         1 <0>         0.1432
     51 H15         3.8057    8.2238   -4.7059 H         1 <0>         0.1345
     52 H16         0.8449    5.4208   -1.6478 H         1 <0>         0.4039
     53 H17        -0.1735    4.8547   -0.0917 H         1 <0>         0.1365
     54 H18        -2.8699    1.5520   -0.2180 H         1 <0>         0.1514
     55 H19        -0.9730    0.0124   -0.4997 H         1 <0>         0.1527
     56 H20         4.6933    3.7992    0.2984 H         1 <0>         0.1371
     57 H21         5.7688   -0.3236    0.4989 H         1 <0>         0.1503
     58 H22         3.4770   -0.9536   -0.1321 H         1 <0>         0.1505
     59 H23         1.0193    9.0914   -6.8641 H         1 <0>         0.1292
     60 H24         2.6493    9.5782   -6.3403 H         1 <0>         0.1352
     61 H25         0.6520    7.3509   -7.9659 H         1 <0>         0.1192
     62 H26         2.8796    6.7051   -9.9199 H         1 <0>         0.0948
     63 H27         1.1742    6.2083  -10.0344 H         1 <0>         0.0812
     64 H28         3.0249    4.3925   -9.5772 H         1 <0>         0.0764
     65 H29         1.4915    4.3257   -8.6851 H         1 <0>         0.0642
     66 H30         3.1453    4.0322   -7.0162 H         1 <0>         0.0706
     67 H31         2.7183    5.7616   -6.8919 H         1 <0>         0.0596
     68 H32         4.9857    4.6665   -8.5978 H         1 <0>         0.0702
     69 H33         5.2015    5.3213   -6.9618 H         1 <0>         0.0604
     70 H34         4.1115    6.8372   -9.3750 H         1 <0>         0.0882
     71 H35         5.7156    7.0520   -8.6268 H         1 <0>         0.0745
     72 H36         4.4519    8.7596   -7.6128 H         1 <0>         0.0843
     73 H37         4.3672    7.4499   -6.4196 H         1 <0>         0.0822
@<TRIPOS>BOND
     1    1    2 1
     2    1   38 1
     3    1   39 1
     4    1   40 1
     5    2    3 1
     6    2   41 1
     7    2   42 1
     8    3    8 1
     9    3    4 1
    10    3   29 1
    11    4    5 1
    12    4   43 1
    13    4   44 1
    14    5    6 1
    15    5   45 1
    16    5   46 1
    17    6    7 1
    18    6    9 1
    19    6   47 1
    20    7    8 1
    21    7   48 1
    22    7   49 1
    23    8   50 1
    24    8   51 1
    25    9   10 am
    26    9   52 1
    27   10   11 2
    28   10   12 1
    29   12   13 1
    30   12   22 1
    31   12   14 1
    32   14   19 ar
    33   14   15 ar
    34   15   16 ar
    35   15   53 1
    36   16   17 ar
    37   16   28 1
    38   17   18 ar
    39   17   54 1
    40   18   19 ar
    41   18   55 1
    42   19   20 1
    43   20   21 1
    44   21   26 ar
    45   21   22 ar
    46   22   23 ar
    47   23   24 ar
    48   23   56 1
    49   24   25 ar
    50   24   27 1
    51   25   26 ar
    52   25   57 1
    53   26   58 1
    54   29   30 1
    55   29   59 1
    56   29   60 1
    57   30   37 1
    58   30   31 2
    59   31   32 1
    60   31   61 1
    61   32   33 1
    62   32   62 1
    63   32   63 1
    64   33   34 1
    65   33   64 1
    66   33   65 1
    67   34   35 1
    68   34   66 1
    69   34   67 1
    70   35   36 1
    71   35   68 1
    72   35   69 1
    73   36   37 1
    74   36   70 1
    75   36   71 1
    76   37   72 1
    77   37   73 1
@<TRIPOS>MOLECULE
ZINC13862637
   73    77     0     0     0
SMALL
USER_CHARGES

@<TRIPOS>ATOM
      1 C1          0.2535    1.1684   -0.3634 C.3       1 <0>        -0.1883
      2 C2          0.0753   -0.3398   -0.1781 C.3       1 <0>        -0.0177
      3 N1         -1.3422   -0.6391    0.0655 N.4       1 <0>        -0.2555
      4 C3         -1.7714    0.0116    1.3092 C.3       1 <0>        -0.0099
      5 C4         -0.8835   -0.4535    2.4654 C.3       1 <0>        -0.1572
      6 C5         -1.0034   -1.9729    2.6147 C.3       1 <0>         0.1395
      7 C6         -0.6246   -2.6377    1.2882 C.3       1 <0>        -0.1596
      8 C7         -1.5220   -2.0917    0.1756 C.3       1 <0>        -0.0029
      9 N2         -0.0983   -2.4344    3.6701 N.am      1 <0>        -0.7274
     10 C8         -0.3598   -3.5810    4.3284 C.2       1 <0>         0.5288
     11 O1         -1.3445   -4.2308    4.0470 O.2       1 <0>        -0.5056
     12 C9          0.5713   -4.0557    5.4141 C.3       1 <0>        -0.0095
     13 C10         0.6586   -3.0061    6.4887 C.ar      1 <0>        -0.1436
     14 C11         1.4467   -1.8878    6.2820 C.ar      1 <0>        -0.0774
     15 C12         1.5405   -0.9125    7.2578 C.ar      1 <0>        -0.0540
     16 C13         0.8448   -1.0530    8.4457 C.ar      1 <0>        -0.0659
     17 C14         0.0569   -2.1667    8.6562 C.ar      1 <0>        -0.1133
     18 C15        -0.0398   -3.1484    7.6766 C.ar      1 <0>         0.1375
     19 O2         -0.8165   -4.2352    7.9035 O.3       1 <0>        -0.2335
     20 C16        -0.6122   -5.3731    7.1971 C.ar      1 <0>         0.1295
     21 C17         0.0539   -5.3491    5.9826 C.ar      1 <0>        -0.1240
     22 C18         0.2497   -6.5250    5.2803 C.ar      1 <0>        -0.0559
     23 C19        -0.2176   -7.7239    5.7863 C.ar      1 <0>        -0.0527
     24 C20        -0.8834   -7.7505    6.9990 C.ar      1 <0>        -0.0671
     25 C21        -1.0808   -6.5798    7.7038 C.ar      1 <0>        -0.1160
     26 Cl1         0.0303   -9.1957    4.8998 Cl        1 <0>        -0.0544
     27 Cl2         2.5317    0.4879    6.9929 Cl        1 <0>        -0.0534
     28 C22        -2.1476   -0.1309   -1.0529 C.3       1 <0>         0.0207
     29 C23        -3.5846   -0.5448   -0.8659 C.2       1 <0>        -0.1954
     30 C24        -3.9924   -1.6057   -1.4170 C.2       1 <0>        -0.0907
     31 C25        -3.4702   -2.0649   -2.7536 C.3       1 <0>        -0.1032
     32 C26        -4.5105   -1.3831   -3.6807 C.3       1 <0>        -0.1201
     33 C27        -4.5873    0.1260   -3.3637 C.3       1 <0>        -0.1206
     34 C28        -5.6303    0.4255   -2.2884 C.3       1 <0>        -0.1249
     35 C29        -5.0377    1.2608   -1.1333 C.3       1 <0>        -0.1163
     36 C30        -4.4881    0.3162   -0.0227 C.3       1 <0>        -0.0861
     37 H1          1.3108    1.3953   -0.5002 H         1 <0>         0.1047
     38 H2         -0.3047    1.4951   -1.2408 H         1 <0>         0.0809
     39 H3         -0.1187    1.6894    0.5187 H         1 <0>         0.0801
     40 H4          0.4066   -0.8581   -1.0779 H         1 <0>         0.1272
     41 H5          0.6686   -0.6739    0.6730 H         1 <0>         0.1312
     42 H6         -1.6885    1.0930    1.2003 H         1 <0>         0.1340
     43 H7         -2.8078   -0.2532    1.5183 H         1 <0>         0.1364
     44 H8          0.1532   -0.1889    2.2574 H         1 <0>         0.0949
     45 H9         -1.2050    0.0294    3.3882 H         1 <0>         0.1183
     46 H10        -2.0297   -2.2338    2.8732 H         1 <0>         0.1062
     47 H11         0.4176   -2.4185    1.0558 H         1 <0>         0.0904
     48 H12        -0.7609   -3.7161    1.3696 H         1 <0>         0.1156
     49 H13        -2.5638   -2.3117    0.4089 H         1 <0>         0.1323
     50 H14        -1.2551   -2.5632   -0.7702 H         1 <0>         0.1285
     51 H15         0.6892   -1.9147    3.8952 H         1 <0>         0.4039
     52 H16         1.5631   -4.2187    4.9923 H         1 <0>         0.1270
     53 H17         1.9907   -1.7764    5.3557 H         1 <0>         0.1367
     54 H18         0.9186   -0.2916    9.2081 H         1 <0>         0.1514
     55 H19        -0.4861   -2.2752    9.5834 H         1 <0>         0.1527
     56 H20         0.7689   -6.5063    4.3335 H         1 <0>         0.1373
     57 H21        -1.2485   -8.6868    7.3943 H         1 <0>         0.1503
     58 H22        -1.6014   -6.6011    8.6498 H         1 <0>         0.1506
     59 H23        -2.0837    0.9569   -1.0819 H         1 <0>         0.1287
     60 H24        -1.7700   -0.5421   -1.9890 H         1 <0>         0.1317
     61 H25        -4.7388   -2.2026   -0.9141 H         1 <0>         0.1247
     62 H26        -2.4645   -1.6876   -2.9388 H         1 <0>         0.0740
     63 H27        -3.5078   -3.1505   -2.8439 H         1 <0>         0.0891
     64 H28        -4.2136   -1.5200   -4.7205 H         1 <0>         0.0735
     65 H29        -5.4889   -1.8365   -3.5222 H         1 <0>         0.0740
     66 H30        -3.6115    0.4664   -3.0171 H         1 <0>         0.0589
     67 H31        -4.8486    0.6673   -4.2730 H         1 <0>         0.0653
     68 H32        -6.4561    0.9768   -2.7382 H         1 <0>         0.0657
     69 H33        -6.0088   -0.5152   -1.8887 H         1 <0>         0.0679
     70 H34        -4.2269    1.8817   -1.5144 H         1 <0>         0.0644
     71 H35        -5.8143    1.8996   -0.7128 H         1 <0>         0.0711
     72 H36        -5.2865   -0.2705    0.4316 H         1 <0>         0.0901
     73 H37        -3.9241    0.8662    0.7308 H         1 <0>         0.0764
@<TRIPOS>BOND
     1    1    2 1
     2    1   37 1
     3    1   38 1
     4    1   39 1
     5    2    3 1
     6    2   40 1
     7    2   41 1
     8    3    8 1
     9    3    4 1
    10    3   28 1
    11    4    5 1
    12    4   42 1
    13    4   43 1
    14    5    6 1
    15    5   44 1
    16    5   45 1
    17    6    7 1
    18    6    9 1
    19    6   46 1
    20    7    8 1
    21    7   47 1
    22    7   48 1
    23    8   49 1
    24    8   50 1
    25    9   10 am
    26    9   51 1
    27   10   11 2
    28   10   12 1
    29   12   21 1
    30   12   13 1
    31   12   52 1
    32   13   18 ar
    33   13   14 ar
    34   14   15 ar
    35   14   53 1
    36   15   16 ar
    37   15   27 1
    38   16   17 ar
    39   16   54 1
    40   17   18 ar
    41   17   55 1
    42   18   19 1
    43   19   20 1
    44   20   25 ar
    45   20   21 ar
    46   21   22 ar
    47   22   23 ar
    48   22   56 1
    49   23   24 ar
    50   23   26 1
    51   24   25 ar
    52   24   57 1
    53   25   58 1
    54   28   29 1
    55   28   59 1
    56   28   60 1
    57   29   36 1
    58   29   30 2
    59   30   31 1
    60   30   61 1
    61   31   32 1
    62   31   62 1
    63   31   63 1
    64   32   33 1
    65   32   64 1
    66   32   65 1
    67   33   34 1
    68   33   66 1
    69   33   67 1
    70   34   35 1
    71   34   68 1
    72   34   69 1
    73   35   36 1
    74   35   70 1
    75   35   71 1
    76   36   72 1
    77   36   73 1
@<TRIPOS>MOLECULE
ZINC03991118
   62    65     0     0     0
SMALL
USER_CHARGES

@<TRIPOS>ATOM
      1 C1         -0.5721    3.9401   11.0033 C.ar      1 <0>        -0.1046
      2 C2          0.4886    3.0549   11.0491 C.ar      1 <0>        -0.1112
      3 C3          1.1026    2.6507    9.8784 C.ar      1 <0>        -0.0985
      4 C4          0.6561    3.1321    8.6619 C.ar      1 <0>        -0.0928
      5 C5         -0.4010    4.0217    8.6165 C.ar      1 <0>        -0.1111
      6 C6         -1.0183    4.4218    9.7869 C.ar      1 <0>        -0.1147
      7 C7          1.3257    2.6918    7.3857 C.3       1 <0>         0.1385
      8 C8          0.7113    3.4421    6.2023 C.3       1 <0>        -0.1060
      9 C9          1.4231    3.0300    4.9121 C.3       1 <0>        -0.1615
     10 C10         0.7604    3.7236    3.7202 C.3       1 <0>        -0.0024
     11 C11         0.6968    3.7802    1.3008 C.3       1 <0>         0.0030
     12 C12         1.5067    3.4803    0.0374 C.3       1 <0>        -0.1350
     13 C13         1.7706    1.9745   -0.0484 C.3       1 <0>         0.1755
     14 C14         2.5068    1.5205    1.2151 C.3       1 <0>        -0.1710
     15 C15         1.6679    1.8771    2.4444 C.3       1 <0>        -0.0056
     16 C16         2.6174    1.6798   -1.2596 C.ar      1 <0>        -0.1259
     17 C17         3.5119    2.6260   -1.7240 C.ar      1 <0>        -0.1006
     18 C18         4.2929    2.3541   -2.8315 C.ar      1 <0>        -0.1042
     19 C19         4.1713    1.1391   -3.4819 C.ar      1 <0>        -0.0247
     20 C20         3.2719    0.1947   -3.0200 C.ar      1 <0>        -0.1017
     21 C21         2.4955    0.4656   -1.9091 C.ar      1 <0>        -0.0932
     22 Cl1         5.1473    0.7994   -4.8768 Cl        1 <0>        -0.0502
     23 O1          0.5277    1.2771   -0.1535 O.3       1 <0>        -0.5472
     24 C22         2.7658    2.9875    7.4599 C.1       1 <0>         0.2071
     25 N1          3.8772    3.2157    7.5171 N.1       1 <0>        -0.4036
     26 C23         1.1261    1.2098    7.1991 C.ar      1 <0>        -0.0857
     27 C24         2.2191    0.3819    7.0231 C.ar      1 <0>        -0.1190
     28 C25         2.0363   -0.9782    6.8568 C.ar      1 <0>        -0.1121
     29 C26         0.7600   -1.5091    6.8564 C.ar      1 <0>        -0.1084
     30 C27        -0.3333   -0.6805    7.0267 C.ar      1 <0>        -0.1112
     31 C28        -0.1502    0.6789    7.1983 C.ar      1 <0>        -0.0968
     32 H1         -1.0521    4.2556   11.9179 H         1 <0>         0.1288
     33 H2          0.8374    2.6788   11.9995 H         1 <0>         0.1286
     34 H3          1.9313    1.9591    9.9142 H         1 <0>         0.1197
     35 H4         -0.7469    4.4012    7.6664 H         1 <0>         0.1291
     36 H5         -1.8468    5.1137    9.7511 H         1 <0>         0.1295
     37 H6          0.8259    4.5155    6.3536 H         1 <0>         0.0943
     38 H7         -0.3481    3.1969    6.1270 H         1 <0>         0.1039
     39 H8          1.3538    1.9493    4.7882 H         1 <0>         0.0997
     40 H9          2.4716    3.3231    4.9661 H         1 <0>         0.0861
     41 H10         0.8297    4.8043    3.8441 H         1 <0>         0.1319
     42 H11        -0.2881    3.4306    3.6662 H         1 <0>         0.1362
     43 H12         0.5194    4.8533    1.3724 H         1 <0>         0.1320
     44 H13        -0.2581    3.2567    1.2529 H         1 <0>         0.1404
     45 H14         2.4560    4.0144    0.0784 H         1 <0>         0.1037
     46 H15         0.9451    3.8019   -0.8397 H         1 <0>         0.1238
     47 H16         2.6597    0.4418    1.1794 H         1 <0>         0.1166
     48 H17         3.4718    2.0237    1.2747 H         1 <0>         0.0997
     49 H18         2.1958    1.5681    3.3465 H         1 <0>         0.1335
     50 H19         0.7084    1.3627    2.3908 H         1 <0>         0.1384
     51 H20         3.6036    3.5761   -1.2188 H         1 <0>         0.1331
     52 H21         4.9949    3.0917   -3.1916 H         1 <0>         0.1405
     53 H22         3.1768   -0.7540   -3.5272 H         1 <0>         0.1413
     54 H23         1.7936   -0.2717   -1.5482 H         1 <0>         0.1323
     55 H24         0.6196    0.3162   -0.2119 H         1 <0>         0.3906
     56 H25         3.2161    0.7973    7.0193 H         1 <0>         0.1181
     57 H26         2.8905   -1.6255    6.7234 H         1 <0>         0.1268
     58 H27         0.6170   -2.5712    6.7227 H         1 <0>         0.1279
     59 H28        -1.3305   -1.0952    7.0261 H         1 <0>         0.1296
     60 H29        -1.0044    1.3263    7.3313 H         1 <0>         0.1283
     61 N2          1.4704    3.3419    2.4819 N.4       1 <0>        -0.3944
     62 H30         2.3881    3.8021    2.4684 H         1 <0>         0.4249
@<TRIPOS>BOND
     1    1    6 ar
     2    1    2 ar
     3    1   32 1
     4    2    3 ar
     5    2   33 1
     6    3    4 ar
     7    3   34 1
     8    4    5 ar
     9    4    7 1
    10    5    6 ar
    11    5   35 1
    12    6   36 1
    13    7    8 1
    14    7   24 1
    15    7   26 1
    16    8    9 1
    17    8   37 1
    18    8   38 1
    19    9   10 1
    20    9   39 1
    21    9   40 1
    22   10   41 1
    23   10   42 1
    24   10   61 1
    25   11   12 1
    26   11   43 1
    27   11   44 1
    28   11   61 1
    29   12   13 1
    30   12   45 1
    31   12   46 1
    32   13   14 1
    33   13   16 1
    34   13   23 1
    35   14   15 1
    36   14   47 1
    37   14   48 1
    38   15   49 1
    39   15   50 1
    40   15   61 1
    41   16   21 ar
    42   16   17 ar
    43   17   18 ar
    44   17   51 1
    45   18   19 ar
    46   18   52 1
    47   19   20 ar
    48   19   22 1
    49   20   21 ar
    50   20   53 1
    51   21   54 1
    52   23   55 1
    53   24   25 3
    54   26   31 ar
    55   26   27 ar
    56   27   28 ar
    57   27   56 1
    58   28   29 ar
    59   28   57 1
    60   29   30 ar
    61   29   58 1
    62   30   31 ar
    63   30   59 1
    64   31   60 1
    65   61   62 1
