@<TRIPOS>MOLECULE
ZINC13475731
   44    46     0     0     0
SMALL
USER_CHARGES
1,4-dibenzylpiperidine
@<TRIPOS>ATOM
      1 C1          5.8887    2.5803   -7.6997 C.ar      1 <0>        -0.1164
      2 C2          7.0745    2.1725   -7.1181 C.ar      1 <0>        -0.1140
      3 C3          7.1046    1.0335   -6.3354 C.ar      1 <0>        -0.1161
      4 C4          5.9486    0.3028   -6.1335 C.ar      1 <0>        -0.0946
      5 C5          4.7638    0.7080   -6.7190 C.ar      1 <0>        -0.1210
      6 C6          4.7328    1.8494   -7.4982 C.ar      1 <0>        -0.1163
      7 C7          5.9814   -0.9388   -5.2801 C.3       1 <0>        -0.0746
      8 C8          5.6944   -0.5650   -3.8245 C.3       1 <0>        -0.0938
      9 C9          5.8499   -1.8036   -2.9379 C.3       1 <0>        -0.1438
     10 C10         5.5041   -1.4372   -1.4928 C.3       1 <0>        -0.0003
     11 C11         3.9624    0.2783   -2.2361 C.3       1 <0>        -0.0064
     12 C12         4.2623   -0.0368   -3.7034 C.3       1 <0>        -0.1447
     13 C13         3.7112   -0.7071   -0.0392 C.3       1 <0>         0.0482
     14 C14         2.3960    0.0285   -0.0217 C.ar      1 <0>        -0.1601
     15 C15         1.2084   -0.6789   -0.0136 C.ar      1 <0>        -0.0949
     16 C16         0.0021   -0.0041    0.0020 C.ar      1 <0>        -0.1132
     17 C17        -0.0167    1.3781    0.0096 C.ar      1 <0>        -0.0847
     18 C18         1.1709    2.0855    0.0021 C.ar      1 <0>        -0.1141
     19 C19         2.3773    1.4107   -0.0141 C.ar      1 <0>        -0.0966
     20 H1          5.8652    3.4702   -8.3113 H         1 <0>         0.1252
     21 H2          7.9776    2.7435   -7.2755 H         1 <0>         0.1252
     22 H3          8.0312    0.7147   -5.8812 H         1 <0>         0.1215
     23 H4          3.8616    0.1347   -6.5649 H         1 <0>         0.1193
     24 H5          3.8062    2.1682   -7.9524 H         1 <0>         0.1243
     25 H6          6.9661   -1.4012   -5.3491 H         1 <0>         0.0828
     26 H7          5.2250   -1.6409   -5.6309 H         1 <0>         0.0781
     27 H8          6.3951    0.2048   -3.5012 H         1 <0>         0.0901
     28 H9          6.8791   -2.1592   -2.9868 H         1 <0>         0.1132
     29 H10         5.1767   -2.5871   -3.2858 H         1 <0>         0.0890
     30 H11         6.1865   -0.6635   -1.1410 H         1 <0>         0.1297
     31 H12         5.6000   -2.3205   -0.8613 H         1 <0>         0.1292
     32 H13         2.9387    0.6411   -2.1445 H         1 <0>         0.1309
     33 H14         4.6521    1.0440   -1.8808 H         1 <0>         0.1272
     34 H15         4.1571    0.8698   -4.2992 H         1 <0>         0.1136
     35 H16         3.5640   -0.7925   -4.0633 H         1 <0>         0.0867
     36 H17         4.4679   -0.1107    0.4703 H         1 <0>         0.1356
     37 H18         3.5990   -1.6641    0.4703 H         1 <0>         0.1339
     38 H19         1.2231   -1.7587   -0.0199 H         1 <0>         0.1306
     39 H20        -0.9258   -0.5567    0.0079 H         1 <0>         0.1359
     40 H21        -0.9592    1.9054    0.0170 H         1 <0>         0.1358
     41 H22         1.1563    3.1654    0.0077 H         1 <0>         0.1360
     42 H23         3.3051    1.9634   -0.0207 H         1 <0>         0.1300
     43 N1          4.1061   -0.9595   -1.4404 N.4       1 <0>        -0.3917
     44 H24         3.4923   -1.6820   -1.8348 H         1 <0>         0.4251
@<TRIPOS>BOND
     1    1    6 ar
     2    1    2 ar
     3    1   20 1
     4    2    3 ar
     5    2   21 1
     6    3    4 ar
     7    3   22 1
     8    4    5 ar
     9    4    7 1
    10    5    6 ar
    11    5   23 1
    12    6   24 1
    13    7    8 1
    14    7   25 1
    15    7   26 1
    16    8   12 1
    17    8    9 1
    18    8   27 1
    19    9   10 1
    20    9   28 1
    21    9   29 1
    22   10   30 1
    23   10   31 1
    24   10   43 1
    25   11   12 1
    26   11   32 1
    27   11   33 1
    28   11   43 1
    29   12   34 1
    30   12   35 1
    31   13   14 1
    32   13   36 1
    33   13   37 1
    34   13   43 1
    35   14   19 ar
    36   14   15 ar
    37   15   16 ar
    38   15   38 1
    39   16   17 ar
    40   16   39 1
    41   17   18 ar
    42   17   40 1
    43   18   19 ar
    44   18   41 1
    45   19   42 1
    46   43   44 1
@<TRIPOS>MOLECULE
ZINC22418572
   60    62     0     0     0
SMALL
USER_CHARGES
1-[(2R)-2-(4-dimethylaminophenyl)-2-(4-methylpiperazin-1-yl)ethyl]-3-(4-fluorophenyl)urea
@<TRIPOS>ATOM
      1 C1         -4.2149    2.2466   -3.7533 C.3       1 <0>        -0.0452
      2 N1         -3.3175    2.2580   -2.5903 N.4       1 <0>        -0.4027
      3 C2         -3.1453    0.9044   -2.0446 C.3       1 <0>         0.0011
      4 C3         -2.2703    0.9703   -0.7907 C.3       1 <0>         0.0174
      5 N2         -0.9714    1.5659   -1.1336 N.3       1 <0>        -0.5320
      6 C4         -1.1435    2.9195   -1.6793 C.3       1 <0>         0.0250
      7 C5         -2.0185    2.8536   -2.9333 C.3       1 <0>         0.0006
      8 C6         -0.0740    1.5774    0.0294 C.3       1 <0>         0.1338
      9 H1         -0.5642    2.1589    0.8241 H         1 <0>         0.0626
     10 C7          0.1891    0.1406    0.4847 C.3       1 <0>         0.1532
     11 N3          0.9954    0.1558    1.7078 N.am      1 <0>        -0.7488
     12 C8          1.4399   -1.0016    2.2363 C.2       1 <0>         0.7111
     13 O1          1.1717   -2.0583    1.6981 O.2       1 <0>        -0.5760
     14 N4          2.1817   -0.9876    3.3615 N.am      1 <0>        -0.6960
     15 C9          2.5613   -2.1931    3.9651 C.ar      1 <0>         0.1542
     16 C10         2.6426   -2.2825    5.3483 C.ar      1 <0>        -0.1181
     17 C11         3.0110   -3.4740    5.9418 C.ar      1 <0>        -0.1336
     18 C12         3.3108   -4.5755    5.1580 C.ar      1 <0>         0.0843
     19 C13         3.2363   -4.4865    3.7781 C.ar      1 <0>        -0.1345
     20 C14         2.8622   -3.2986    3.1810 C.ar      1 <0>        -0.0932
     21 F1          3.6760   -5.7385    5.7403 F         1 <0>        -0.1378
     22 C15         1.2301    2.2312   -0.3488 C.ar      1 <0>        -0.1632
     23 C16         1.7982    1.9743   -1.5831 C.ar      1 <0>        -0.0460
     24 C17         2.9903    2.5762   -1.9351 C.ar      1 <0>        -0.1963
     25 C18         3.6245    3.4316   -1.0432 C.ar      1 <0>         0.2272
     26 C19         3.0539    3.6831    0.1982 C.ar      1 <0>        -0.1920
     27 C20         1.8588    3.0823    0.5415 C.ar      1 <0>        -0.0643
     28 N5          4.8334    4.0373   -1.3935 N.pl3     1 <0>        -0.6324
     29 C21         5.5667    4.8338   -0.4065 C.3       1 <0>         0.0875
     30 C22         5.3680    3.8760   -2.7479 C.3       1 <0>         0.0881
     31 H2         -5.1776    1.7966   -3.4692 H         1 <0>         0.1243
     32 H3         -3.7591    1.6569   -4.5623 H         1 <0>         0.1199
     33 H4         -4.3799    3.2777   -4.0992 H         1 <0>         0.1241
     34 H5         -4.1289    0.4859   -1.7850 H         1 <0>         0.1366
     35 H6         -2.6616    0.2644   -2.7972 H         1 <0>         0.1360
     36 H7         -2.7680    1.5876   -0.0283 H         1 <0>         0.0630
     37 H8         -2.1166   -0.0453   -0.3970 H         1 <0>         0.1283
     38 H9         -1.6272    3.5595   -0.9267 H         1 <0>         0.0609
     39 H10        -0.1599    3.3380   -1.9389 H         1 <0>         0.1303
     40 H11        -1.5219    2.2359   -3.6961 H         1 <0>         0.1349
     41 H12        -2.1732    3.8688   -3.3274 H         1 <0>         0.1354
     42 H13        -0.7688   -0.3623    0.6832 H         1 <0>         0.0642
     43 H14         0.7308   -0.4009   -0.3049 H         1 <0>         0.0820
     44 H15         1.2380    1.1118    2.1948 H         1 <0>         0.4151
     45 H16         2.4890   -0.0294    3.8058 H         1 <0>         0.4301
     46 H17         2.4135   -1.4223    5.9598 H         1 <0>         0.1352
     47 H18         3.0697   -3.5454    7.0179 H         1 <0>         0.1407
     48 H19         3.4704   -5.3467    3.1685 H         1 <0>         0.1391
     49 H20         2.8035   -3.2298    2.1047 H         1 <0>         0.1477
     50 H21         1.3069    1.3053   -2.2743 H         1 <0>         0.1260
     51 H22         3.4312    2.3785   -2.9010 H         1 <0>         0.1224
     52 H23         3.5443    4.3480    0.8938 H         1 <0>         0.1241
     53 H24         1.4148    3.2770    1.5066 H         1 <0>         0.1184
     54 H25         6.4870    5.2269   -0.8632 H         1 <0>         0.0789
     55 H26         5.8262    4.2014    0.4553 H         1 <0>         0.0580
     56 H27         4.9375    5.6712   -0.0705 H         1 <0>         0.0572
     57 H28         6.3197    4.4208   -2.8337 H         1 <0>         0.0790
     58 H29         4.6484    4.2779   -3.4764 H         1 <0>         0.0563
     59 H30         5.5372    2.8081   -2.9505 H         1 <0>         0.0576
     60 H31        -3.7824    2.8814   -1.8123 H         1 <0>         0.4401
@<TRIPOS>BOND
     1    1    2 1
     2    1   31 1
     3    1   32 1
     4    1   33 1
     5    2    7 1
     6    2    3 1
     7    2   60 1
     8    3    4 1
     9    3   34 1
    10    3   35 1
    11    4    5 1
    12    4   36 1
    13    4   37 1
    14    5    6 1
    15    5    8 1
    16    6    7 1
    17    6   38 1
    18    6   39 1
    19    7   40 1
    20    7   41 1
    21    8    9 1
    22    8   10 1
    23    8   22 1
    24   10   11 1
    25   10   42 1
    26   10   43 1
    27   11   12 am
    28   11   44 1
    29   12   13 2
    30   12   14 am
    31   14   15 1
    32   14   45 1
    33   15   20 ar
    34   15   16 ar
    35   16   17 ar
    36   16   46 1
    37   17   18 ar
    38   17   47 1
    39   18   19 ar
    40   18   21 1
    41   19   20 ar
    42   19   48 1
    43   20   49 1
    44   22   27 ar
    45   22   23 ar
    46   23   24 ar
    47   23   50 1
    48   24   25 ar
    49   24   51 1
    50   25   26 ar
    51   25   28 1
    52   26   27 ar
    53   26   52 1
    54   27   53 1
    55   28   29 1
    56   28   30 1
    57   29   54 1
    58   29   55 1
    59   29   56 1
    60   30   57 1
    61   30   58 1
    62   30   59 1
@<TRIPOS>MOLECULE
ZINC22418574
   60    62     0     0     0
SMALL
USER_CHARGES
1-[(2S)-2-(4-dimethylaminophenyl)-2-(4-methylpiperazin-1-yl)ethyl]-3-(4-fluorophenyl)urea
@<TRIPOS>ATOM
      1 C1         -0.1631    0.6743    2.2445 C.3       1 <0>        -0.0452
      2 N1         -0.7643    1.2773    1.0475 N.4       1 <0>        -0.4027
      3 C2          0.0356    0.9820   -0.1494 C.3       1 <0>         0.0011
      4 C3         -0.6638    1.5584   -1.3827 C.3       1 <0>         0.0172
      5 N2         -0.8360    3.0079   -1.2123 N.3       1 <0>        -0.5320
      6 C4         -1.6364    3.3032   -0.0157 C.3       1 <0>         0.0250
      7 C5         -0.9370    2.7268    1.2176 C.3       1 <0>         0.0006
      8 C6         -1.4368    3.6110   -2.4095 C.3       1 <0>         0.1337
      9 H1         -2.4146    3.1332   -2.5696 H         1 <0>         0.0631
     10 C7         -0.5150    3.3881   -3.6102 C.3       1 <0>         0.1530
     11 N3         -1.1573    3.9043   -4.8214 N.am      1 <0>        -0.7495
     12 C8         -0.5665    3.7369   -6.0212 C.2       1 <0>         0.7107
     13 O1          0.4996    3.1573   -6.0982 O.2       1 <0>        -0.5766
     14 N4         -1.1574    4.2118   -7.1355 N.am      1 <0>        -0.6961
     15 C9         -0.4991    4.1247   -8.3687 C.ar      1 <0>         0.1543
     16 C10        -0.6447    5.1372   -9.3075 C.ar      1 <0>        -0.1176
     17 C11         0.0103    5.0524  -10.5205 C.ar      1 <0>        -0.1332
     18 C12         0.8021    3.9527  -10.8054 C.ar      1 <0>         0.0845
     19 C13         0.9436    2.9389   -9.8730 C.ar      1 <0>        -0.1347
     20 C14         0.2953    3.0229   -8.6563 C.ar      1 <0>        -0.0933
     21 F1          1.4378    3.8691  -11.9946 F         1 <0>        -0.1378
     22 C15        -1.6234    5.0898   -2.1873 C.ar      1 <0>        -0.1645
     23 C16        -0.6505    5.8161   -1.5255 C.ar      1 <0>        -0.0454
     24 C17        -0.8158    7.1726   -1.3251 C.ar      1 <0>        -0.1963
     25 C18        -1.9662    7.8050   -1.7792 C.ar      1 <0>         0.2275
     26 C19        -2.9441    7.0713   -2.4387 C.ar      1 <0>        -0.1919
     27 C20        -2.7699    5.7162   -2.6407 C.ar      1 <0>        -0.0666
     28 N5         -2.1394    9.1755   -1.5728 N.pl3     1 <0>        -0.6317
     29 C21        -3.3535    9.8408   -2.0520 C.3       1 <0>         0.0872
     30 C22        -1.1069    9.9477   -0.8772 C.3       1 <0>         0.0876
     31 H2         -0.0456   -0.4084    2.0900 H         1 <0>         0.1244
     32 H3         -0.8158    0.8522    3.1119 H         1 <0>         0.1241
     33 H4          0.8222    1.1276    2.4279 H         1 <0>         0.1199
     34 H5          1.0319    1.4366   -0.0459 H         1 <0>         0.1360
     35 H6          0.1395   -0.1073   -0.2614 H         1 <0>         0.1367
     36 H7         -0.0520    1.3633   -2.2758 H         1 <0>         0.1285
     37 H8         -1.6484    1.0827   -1.5017 H         1 <0>         0.0631
     38 H9         -1.7404    4.3925    0.0962 H         1 <0>         0.1301
     39 H10        -2.6326    2.8485   -0.1195 H         1 <0>         0.0610
     40 H11        -1.5485    2.9208    2.1111 H         1 <0>         0.1354
     41 H12         0.0479    3.2019    1.3371 H         1 <0>         0.1349
     42 H13         0.4357    3.9165   -3.4457 H         1 <0>         0.0778
     43 H14        -0.3206    2.3119   -3.7285 H         1 <0>         0.0687
     44 H15        -2.1218    4.4286   -4.7517 H         1 <0>         0.4157
     45 H16        -2.1567    4.6678   -7.0765 H         1 <0>         0.4301
     46 H17        -1.2660    5.9928   -9.0875 H         1 <0>         0.1352
     47 H18        -0.0988    5.8421  -11.2491 H         1 <0>         0.1407
     48 H19         1.5617    2.0820  -10.0971 H         1 <0>         0.1390
     49 H20         0.4065    2.2323   -7.9290 H         1 <0>         0.1471
     50 H21         0.2415    5.3229   -1.1684 H         1 <0>         0.1264
     51 H22        -0.0535    7.7401   -0.8120 H         1 <0>         0.1226
     52 H23        -3.8399    7.5599   -2.7927 H         1 <0>         0.1244
     53 H24        -3.5300    5.1451   -3.1530 H         1 <0>         0.1192
     54 H25        -3.3096   10.9104   -1.7991 H         1 <0>         0.0790
     55 H26        -4.2337    9.3867   -1.5734 H         1 <0>         0.0575
     56 H27        -3.4288    9.7248   -3.1433 H         1 <0>         0.0581
     57 H28        -1.4190   11.0004   -0.8104 H         1 <0>         0.0792
     58 H29        -0.1609    9.8803   -1.4344 H         1 <0>         0.0580
     59 H30        -0.9657    9.5422    0.1355 H         1 <0>         0.0566
     60 H31        -1.7600    0.8305    0.9095 H         1 <0>         0.4402
@<TRIPOS>BOND
     1    1    2 1
     2    1   31 1
     3    1   32 1
     4    1   33 1
     5    2    7 1
     6    2    3 1
     7    2   60 1
     8    3    4 1
     9    3   34 1
    10    3   35 1
    11    4    5 1
    12    4   36 1
    13    4   37 1
    14    5    6 1
    15    5    8 1
    16    6    7 1
    17    6   38 1
    18    6   39 1
    19    7   40 1
    20    7   41 1
    21    8    9 1
    22    8   10 1
    23    8   22 1
    24   10   11 1
    25   10   42 1
    26   10   43 1
    27   11   12 am
    28   11   44 1
    29   12   13 2
    30   12   14 am
    31   14   15 1
    32   14   45 1
    33   15   20 ar
    34   15   16 ar
    35   16   17 ar
    36   16   46 1
    37   17   18 ar
    38   17   47 1
    39   18   19 ar
    40   18   21 1
    41   19   20 ar
    42   19   48 1
    43   20   49 1
    44   22   27 ar
    45   22   23 ar
    46   23   24 ar
    47   23   50 1
    48   24   25 ar
    49   24   51 1
    50   25   26 ar
    51   25   28 1
    52   26   27 ar
    53   26   52 1
    54   27   53 1
    55   28   29 1
    56   28   30 1
    57   29   54 1
    58   29   55 1
    59   29   56 1
    60   30   57 1
    61   30   58 1
    62   30   59 1
@<TRIPOS>MOLECULE
ZINC13613346
   70    73     0     0     0
SMALL
USER_CHARGES
1-(5-acetyl-4-methyl-thiazol-2-yl)-3-[(1R,2S)-2-[[(3S)-3-[(4-fluorophenyl)methyl]-1-piperidyl]methyl]cyclohexyl]urea
@<TRIPOS>ATOM
      1 C1         -5.6728    3.5355   10.4423 C.3       1 <0>        -0.0985
      2 C2         -4.6582    2.4944   10.0451 C.2       1 <0>         0.1933
      3 C3         -3.7716    1.9589   10.9773 C.2       1 <0>        -0.3113
      4 S1         -2.8609    0.8186    9.9455 S.3       1 <0>         0.1442
      5 C4         -3.6901    1.1481    8.4559 C.2       1 <0>         0.3169
      6 N1         -4.5788    2.0630    8.8160 N.2       1 <0>        -0.5137
      7 N2         -3.4800    0.5913    7.2086 N.am      1 <0>        -0.6248
      8 C5         -4.2380    0.9759    6.1626 C.2       1 <0>         0.6890
      9 O1         -5.1064    1.8126    6.3164 O.2       1 <0>        -0.4745
     10 N3         -4.0331    0.4330    4.9462 N.am      1 <0>        -0.7457
     11 C6         -4.8570    0.8510    3.8092 C.3       1 <0>         0.1464
     12 H1         -5.0943    1.9108    3.9027 H         1 <0>         0.1167
     13 C7         -6.1528    0.0378    3.7921 C.3       1 <0>        -0.1315
     14 C8         -7.0133    0.4744    2.6047 C.3       1 <0>        -0.1229
     15 C9         -6.2447    0.2367    1.3032 C.3       1 <0>        -0.1247
     16 C10        -4.9489    1.0500    1.3204 C.3       1 <0>        -0.1077
     17 C11        -4.0884    0.6134    2.5078 C.3       1 <0>        -0.1184
     18 H2         -3.8511   -0.4464    2.4143 H         1 <0>         0.1014
     19 C12        -2.7926    1.4266    2.5249 C.3       1 <0>        -0.0042
     20 C13        -1.3448   -0.3944    3.1945 C.3       1 <0>        -0.0167
     21 C14        -0.5437   -0.9679    4.3656 C.3       1 <0>        -0.1472
     22 C15         0.5823    0.0038    4.7329 C.3       1 <0>        -0.1376
     23 C16        -0.0241    1.3672    5.0765 C.3       1 <0>        -0.1063
     24 H3         -0.6734    1.2679    5.9463 H         1 <0>         0.0863
     25 C17        -0.8401    1.8730    3.8848 C.3       1 <0>        -0.0032
     26 C18         1.0969    2.3613    5.3868 C.3       1 <0>        -0.0692
     27 C19         1.8243    1.9254    6.6325 C.ar      1 <0>        -0.1091
     28 C20         1.4045    2.3751    7.8705 C.ar      1 <0>        -0.0849
     29 C21         2.0679    1.9722    9.0140 C.ar      1 <0>        -0.1488
     30 C22         3.1598    1.1261    8.9185 C.ar      1 <0>         0.1092
     31 C23         3.5825    0.6806    7.6776 C.ar      1 <0>        -0.1504
     32 C24         2.9144    1.0806    6.5359 C.ar      1 <0>        -0.0842
     33 F1          3.8119    0.7354   10.0353 F         1 <0>        -0.1325
     34 C25        -3.6351    2.2352   12.3519 C.2       1 <0>         0.4350
     35 O2         -4.3618    3.0514   12.8826 O.2       1 <0>        -0.4405
     36 C26        -2.5875    1.5183   13.1641 C.3       1 <0>        -0.1890
     37 H4         -6.5941    3.0442   10.7553 H         1 <0>         0.0902
     38 H5         -5.2797    4.1299   11.2671 H         1 <0>         0.1003
     39 H6         -5.8785    4.1855    9.5918 H         1 <0>         0.0817
     40 H7         -2.7871   -0.0763    7.0859 H         1 <0>         0.4219
     41 H8         -3.3401   -0.2346    4.8235 H         1 <0>         0.3858
     42 H9         -6.7004    0.2071    4.7192 H         1 <0>         0.0818
     43 H10        -5.9155   -1.0220    3.6986 H         1 <0>         0.0717
     44 H11        -7.2506    1.5341    2.6981 H         1 <0>         0.0725
     45 H12        -7.9365   -0.1050    2.5924 H         1 <0>         0.0786
     46 H13        -6.8577    0.5478    0.4573 H         1 <0>         0.0807
     47 H14        -6.0074   -0.8230    1.2097 H         1 <0>         0.0694
     48 H15        -5.1862    2.1097    1.4138 H         1 <0>         0.0813
     49 H16        -4.4013    0.8806    0.3932 H         1 <0>         0.0849
     50 H17        -3.0228    2.4727    2.7269 H         1 <0>         0.1320
     51 H18        -2.2987    1.3436    1.5568 H         1 <0>         0.1388
     52 H19        -2.1556   -1.0770    2.9402 H         1 <0>         0.1264
     53 H20        -0.6897   -0.2715    2.3320 H         1 <0>         0.1378
     54 H21        -1.2013   -1.1039    5.2242 H         1 <0>         0.0746
     55 H22        -0.1160   -1.9284    4.0782 H         1 <0>         0.1198
     56 H23         1.2618    0.1101    3.8873 H         1 <0>         0.0892
     57 H24         1.1288   -0.3794    5.5946 H         1 <0>         0.1011
     58 H25        -1.2845    2.8372    4.1319 H         1 <0>         0.1269
     59 H26        -0.1875    1.9851    3.0190 H         1 <0>         0.1349
     60 H27         1.7955    2.3937    4.5507 H         1 <0>         0.0889
     61 H28         0.6708    3.3523    5.5428 H         1 <0>         0.0863
     62 H29         0.5554    3.0383    7.9444 H         1 <0>         0.1302
     63 H30         1.7372    2.3204    9.9814 H         1 <0>         0.1395
     64 H31         4.4339    0.0203    7.6019 H         1 <0>         0.1399
     65 H32         3.2442    0.7335    5.5679 H         1 <0>         0.1333
     66 H33        -1.7354    2.0413   13.1451 H         1 <0>         0.0904
     67 H34        -2.9307    1.4200   14.1940 H         1 <0>         0.0983
     68 H35        -2.4155    0.5280   12.7424 H         1 <0>         0.0792
     69 N4         -1.9210    0.9057    3.5983 N.4       1 <0>        -0.4126
     70 H36        -2.4820    0.7719    4.4478 H         1 <0>         0.4031
@<TRIPOS>BOND
     1    1    2 1
     2    1   37 1
     3    1   38 1
     4    1   39 1
     5    2    6 1
     6    2    3 2
     7    3    4 1
     8    3   34 1
     9    4    5 1
    10    5    6 2
    11    5    7 1
    12    7    8 am
    13    7   40 1
    14    8    9 2
    15    8   10 am
    16   10   11 1
    17   10   41 1
    18   11   12 1
    19   11   17 1
    20   11   13 1
    21   13   14 1
    22   13   42 1
    23   13   43 1
    24   14   15 1
    25   14   44 1
    26   14   45 1
    27   15   16 1
    28   15   46 1
    29   15   47 1
    30   16   17 1
    31   16   48 1
    32   16   49 1
    33   17   18 1
    34   17   19 1
    35   19   50 1
    36   19   51 1
    37   19   69 1
    38   20   21 1
    39   20   52 1
    40   20   53 1
    41   20   69 1
    42   21   22 1
    43   21   54 1
    44   21   55 1
    45   22   23 1
    46   22   56 1
    47   22   57 1
    48   23   24 1
    49   23   25 1
    50   23   26 1
    51   25   58 1
    52   25   59 1
    53   25   69 1
    54   26   27 1
    55   26   60 1
    56   26   61 1
    57   27   32 ar
    58   27   28 ar
    59   28   29 ar
    60   28   62 1
    61   29   30 ar
    62   29   63 1
    63   30   31 ar
    64   30   33 1
    65   31   32 ar
    66   31   64 1
    67   32   65 1
    68   34   35 2
    69   34   36 1
    70   36   66 1
    71   36   67 1
    72   36   68 1
    73   69   70 1
@<TRIPOS>MOLECULE
ZINC15564548
   51    54     0     0     0
SMALL
USER_CHARGES
2-(1,3-benzothiazol-2-ylsulfanyl)-N-(1-benzyl-4-piperidyl)acetamide
@<TRIPOS>ATOM
      1 C1         -9.5707   14.2514    5.2467 C.ar      1 <0>        -0.0834
      2 C2         -8.4078   14.6877    4.6398 C.ar      1 <0>        -0.1132
      3 C3         -8.1798   14.4125    3.3045 C.ar      1 <0>        -0.0967
      4 C4         -9.1149   13.7014    2.5759 C.ar      1 <0>        -0.1644
      5 C5        -10.2804   13.2701    3.1812 C.ar      1 <0>        -0.0944
      6 C6        -10.5058   13.5404    4.5180 C.ar      1 <0>        -0.1134
      7 C7         -8.8665   13.4018    1.1200 C.3       1 <0>         0.0491
      8 C8         -8.1078   11.6789   -0.4020 C.3       1 <0>         0.0034
      9 C9         -7.4953   10.2783   -0.4745 C.3       1 <0>        -0.1572
     10 C10        -6.0852   10.3117    0.1213 C.3       1 <0>         0.1369
     11 C11        -6.1609   10.8208    1.5634 C.3       1 <0>        -0.1613
     12 C12        -6.8121   12.2056    1.5769 C.3       1 <0>        -0.0028
     13 N1         -5.5160    8.9619    0.1078 N.am      1 <0>        -0.7234
     14 C13        -4.1787    8.7946    0.0933 C.2       1 <0>         0.5462
     15 O1         -3.4466    9.7615    0.0914 O.2       1 <0>        -0.5064
     16 C14        -3.5931    7.4061    0.0795 C.3       1 <0>        -0.1881
     17 S1         -1.7864    7.5134    0.0618 S.3       1 <0>         0.1461
     18 C15        -1.3782    5.7994    0.0479 C.2       1 <0>         0.0959
     19 N2         -0.1914    5.2346    0.0326 N.2       1 <0>        -0.4704
     20 C16        -0.0267    3.8938    0.0233 C.ar      1 <0>         0.0780
     21 C17         1.1840    3.1634    0.0073 C.ar      1 <0>        -0.0547
     22 C18         1.1750    1.7928    0.0005 C.ar      1 <0>        -0.1074
     23 C19        -0.0126    1.0758    0.0080 C.ar      1 <0>        -0.0843
     24 C20        -1.2156    1.7582    0.0173 C.ar      1 <0>        -0.0701
     25 C21        -1.2161    3.1304    0.0310 C.ar      1 <0>        -0.1289
     26 S2         -2.4725    4.3864    0.0509 S.3       1 <0>        -0.0197
     27 H1         -9.7485   14.4658    6.2901 H         1 <0>         0.1361
     28 H2         -7.6773   15.2432    5.2091 H         1 <0>         0.1365
     29 H3         -7.2713   14.7533    2.8304 H         1 <0>         0.1315
     30 H4        -11.0130   12.7184    2.6108 H         1 <0>         0.1310
     31 H5        -11.4142   13.1993    4.9922 H         1 <0>         0.1361
     32 H6         -8.2595   14.1953    0.6841 H         1 <0>         0.1379
     33 H7         -9.8192   13.3424    0.5936 H         1 <0>         0.1362
     34 H8         -7.4970   12.3727   -0.9797 H         1 <0>         0.1358
     35 H9         -9.1173   11.6556   -0.8125 H         1 <0>         0.1361
     36 H10        -7.4433    9.9573   -1.5149 H         1 <0>         0.1214
     37 H11        -8.1132    9.5812    0.0915 H         1 <0>         0.0955
     38 H12        -5.4561   10.9782   -0.4687 H         1 <0>         0.1094
     39 H13        -6.7578   10.1322    2.1615 H         1 <0>         0.0910
     40 H14        -5.1555   10.8873    1.9791 H         1 <0>         0.1181
     41 H15        -6.2073   12.8970    0.9899 H         1 <0>         0.1344
     42 H16        -6.8805   12.5648    2.6037 H         1 <0>         0.1334
     43 H17        -6.1015    8.1885    0.1094 H         1 <0>         0.4106
     44 H18        -3.9344    6.8767   -0.8101 H         1 <0>         0.1313
     45 H19        -3.9164    6.8666    0.9697 H         1 <0>         0.1307
     46 H20         2.1261    3.6913    0.0008 H         1 <0>         0.1380
     47 H21         2.1137    1.2590   -0.0114 H         1 <0>         0.1406
     48 H22         0.0021   -0.0041    0.0020 H         1 <0>         0.1445
     49 H23        -2.1488    1.2145    0.0184 H         1 <0>         0.1367
     50 N3         -8.1748   12.1006    1.0135 N.4       1 <0>        -0.3945
     51 H24        -8.7019   11.3983    1.5456 H         1 <0>         0.4261
@<TRIPOS>BOND
     1    1    6 ar
     2    1    2 ar
     3    1   27 1
     4    2    3 ar
     5    2   28 1
     6    3    4 ar
     7    3   29 1
     8    4    5 ar
     9    4    7 1
    10    5    6 ar
    11    5   30 1
    12    6   31 1
    13    7   32 1
    14    7   33 1
    15    7   50 1
    16    8    9 1
    17    8   34 1
    18    8   35 1
    19    8   50 1
    20    9   10 1
    21    9   36 1
    22    9   37 1
    23   10   11 1
    24   10   13 1
    25   10   38 1
    26   11   12 1
    27   11   39 1
    28   11   40 1
    29   12   41 1
    30   12   42 1
    31   12   50 1
    32   13   14 am
    33   13   43 1
    34   14   15 2
    35   14   16 1
    36   16   17 1
    37   16   44 1
    38   16   45 1
    39   17   18 1
    40   18   26 1
    41   18   19 2
    42   19   20 1
    43   20   25 ar
    44   20   21 ar
    45   21   22 ar
    46   21   46 1
    47   22   23 ar
    48   22   47 1
    49   23   24 ar
    50   23   48 1
    51   24   25 ar
    52   24   49 1
    53   25   26 1
    54   50   51 1
@<TRIPOS>MOLECULE
ZINC00602832
   53    56     0     0     0
SMALL
USER_CHARGES
2-(6-aminobenzothiazol-2-yl)sulfanyl-N-[1-[(3,4-dichlorophenyl)methyl]-4-piperidyl]-acetamide
@<TRIPOS>ATOM
      1 C1         11.8204   10.2567    3.2730 C.ar      1 <0>        -0.0771
      2 C2         12.3431   10.1440    4.5479 C.ar      1 <0>        -0.0932
      3 C3         13.2685    9.1560    4.8310 C.ar      1 <0>        -0.0063
      4 C4         13.6670    8.2766    3.8381 C.ar      1 <0>        -0.0349
      5 C5         13.1392    8.3875    2.5646 C.ar      1 <0>        -0.0777
      6 C6         12.2142    9.3758    2.2833 C.ar      1 <0>        -0.1477
      7 C7         11.6397    9.4965    0.8954 C.3       1 <0>         0.0498
      8 C8          9.9715    8.5765   -0.5984 C.3       1 <0>         0.0047
      9 C9          8.6316    7.8388   -0.6481 C.3       1 <0>        -0.1572
     10 C10         8.8016    6.4407   -0.0474 C.3       1 <0>         0.1368
     11 C11         9.3221    6.5697    1.3868 C.3       1 <0>        -0.1606
     12 C12        10.6420    7.3442    1.3775 C.3       1 <0>        -0.0060
     13 N1          7.5091    5.7510   -0.0390 N.am      1 <0>        -0.7246
     14 C13         7.4640    4.4040   -0.0459 C.2       1 <0>         0.5410
     15 O1          8.4934    3.7628   -0.0592 O.2       1 <0>        -0.5112
     16 C14         6.1345    3.6945   -0.0372 C.3       1 <0>        -0.1613
     17 S1          6.4055    1.9050   -0.0496 S.3       1 <0>         0.1143
     18 C15         4.7357    1.3426   -0.0369 C.2       1 <0>         0.0682
     19 N2          3.6286    2.0493   -0.0221 N.2       1 <0>        -0.4845
     20 C16         2.4026    1.4775   -0.0130 C.ar      1 <0>         0.0137
     21 C17         1.1426    2.1187    0.0025 C.ar      1 <0>        -0.0063
     22 C18        -0.0168    1.3888    0.0097 C.ar      1 <0>        -0.1798
     23 C19         0.0021   -0.0041    0.0020 C.ar      1 <0>         0.2528
     24 C20         1.2239   -0.6643   -0.0132 C.ar      1 <0>        -0.1582
     25 C21         2.3866    0.0646   -0.0205 C.ar      1 <0>        -0.0840
     26 S2          4.1179   -0.3344   -0.0398 S.3       1 <0>         0.0461
     27 N3         -1.1951   -0.7290    0.0101 N.pl3     1 <0>        -0.8624
     28 Cl1        14.8281    7.0355    4.1919 Cl        1 <0>        -0.0178
     29 Cl2        13.9297    9.0177    6.4302 Cl        1 <0>        -0.0153
     30 H1         11.1008   11.0310    3.0512 H         1 <0>         0.1483
     31 H2         12.0318   10.8301    5.3217 H         1 <0>         0.1565
     32 H3         13.4498    7.7023    1.7897 H         1 <0>         0.1515
     33 H4         12.3737    9.1519    0.1671 H         1 <0>         0.1430
     34 H5         11.3903   10.5385    0.6948 H         1 <0>         0.1425
     35 H6         10.7098    8.0283   -1.1837 H         1 <0>         0.1364
     36 H7          9.8506    9.5775   -1.0123 H         1 <0>         0.1377
     37 H8          8.3019    7.7525   -1.6834 H         1 <0>         0.1220
     38 H9          7.8893    8.3936   -0.0742 H         1 <0>         0.0960
     39 H10         9.5141    5.8718   -0.6447 H         1 <0>         0.1085
     40 H11         8.5906    7.1046    1.9927 H         1 <0>         0.0914
     41 H12         9.4857    5.5767    1.8053 H         1 <0>         0.1185
     42 H13        11.3771    6.8018    0.7829 H         1 <0>         0.1351
     43 H14        11.0081    7.4502    2.3988 H         1 <0>         0.1333
     44 H15         6.6858    6.2638   -0.0284 H         1 <0>         0.4105
     45 H16         5.5637    3.9817   -0.9203 H         1 <0>         0.1300
     46 H17         5.5805    3.9719    0.8596 H         1 <0>         0.1293
     47 H18         1.0935    3.1976    0.0085 H         1 <0>         0.1339
     48 H19        -0.9658    1.9044    0.0169 H         1 <0>         0.1362
     49 H20         1.2587   -1.7438   -0.0190 H         1 <0>         0.1349
     50 H21        -2.0451   -0.2617    0.0210 H         1 <0>         0.4058
     51 H22        -1.1749   -1.6988    0.0047 H         1 <0>         0.4052
     52 N4         10.4055    8.6888    0.8106 N.4       1 <0>        -0.3951
     53 H23         9.6658    9.1526    1.3509 H         1 <0>         0.4274
@<TRIPOS>BOND
     1    1    6 ar
     2    1    2 ar
     3    1   30 1
     4    2    3 ar
     5    2   31 1
     6    3    4 ar
     7    3   29 1
     8    4    5 ar
     9    4   28 1
    10    5    6 ar
    11    5   32 1
    12    6    7 1
    13    7   33 1
    14    7   34 1
    15    7   52 1
    16    8    9 1
    17    8   35 1
    18    8   36 1
    19    8   52 1
    20    9   10 1
    21    9   37 1
    22    9   38 1
    23   10   11 1
    24   10   13 1
    25   10   39 1
    26   11   12 1
    27   11   40 1
    28   11   41 1
    29   12   42 1
    30   12   43 1
    31   12   52 1
    32   13   14 am
    33   13   44 1
    34   14   15 2
    35   14   16 1
    36   16   17 1
    37   16   45 1
    38   16   46 1
    39   17   18 1
    40   18   26 1
    41   18   19 2
    42   19   20 1
    43   20   25 ar
    44   20   21 ar
    45   21   22 ar
    46   21   47 1
    47   22   23 ar
    48   22   48 1
    49   23   24 ar
    50   23   27 1
    51   24   25 ar
    52   24   49 1
    53   25   26 1
    54   27   50 1
    55   27   51 1
    56   52   53 1
@<TRIPOS>MOLECULE
ZINC03979252
   73    77     0     0     0
SMALL
USER_CHARGES
2,7-dichloro-N-[1-(1-cyclooctenylmethyl)-1-ethyl-3,4,5,6-tetrahydro-2H-pyridin-4-yl]-9H-xanthene-9-carboxamide
@<TRIPOS>ATOM
      1 C1          2.3543   10.0887   -4.0201 C.3       1 <0>        -0.1888
      2 C2          1.3098    8.9858   -4.2035 C.3       1 <0>        -0.0204
      3 N1          1.7784    8.0312   -5.2169 N.4       1 <0>        -0.2601
      4 C3          0.7745    6.9751   -5.3934 C.3       1 <0>        -0.0101
      5 C4          0.5039    6.2937   -4.0503 C.3       1 <0>        -0.1561
      6 C5          1.8047    5.6808   -3.5238 C.3       1 <0>         0.1389
      7 C6          2.8684    6.7770   -3.4145 C.3       1 <0>        -0.1611
      8 C7          3.0500    7.4418   -4.7809 C.3       1 <0>        -0.0218
      9 N2          1.5697    5.0928   -2.2027 N.am      1 <0>        -0.7272
     10 C8          2.3606    4.0960   -1.7584 C.2       1 <0>         0.5285
     11 O1          3.2668    3.6858   -2.4522 O.2       1 <0>        -0.5047
     12 C9          2.1188    3.4911   -0.3994 C.3       1 <0>        -0.0093
     13 H1          2.2242    4.2641    0.3619 H         1 <0>         0.1270
     14 C10         0.7237    2.9311   -0.3464 C.ar      1 <0>        -0.1438
     15 C11        -0.3466    3.7925   -0.1815 C.ar      1 <0>        -0.0776
     16 C12        -1.6369    3.2980   -0.1318 C.ar      1 <0>        -0.0542
     17 C13        -1.8618    1.9379   -0.2524 C.ar      1 <0>        -0.0658
     18 C14        -0.7969    1.0742   -0.4105 C.ar      1 <0>        -0.1134
     19 C15         0.5016    1.5686   -0.4609 C.ar      1 <0>         0.1382
     20 O2          1.5322    0.7042   -0.6215 O.3       1 <0>        -0.2335
     21 C16         2.7888    1.0722   -0.2739 C.ar      1 <0>         0.1299
     22 C17         3.1331    2.4083   -0.1508 C.ar      1 <0>        -0.1244
     23 C18         4.4243    2.7575    0.2035 C.ar      1 <0>        -0.0554
     24 C19         5.3715    1.7774    0.4368 C.ar      1 <0>        -0.0529
     25 C20         5.0294    0.4421    0.3160 C.ar      1 <0>        -0.0669
     26 C21         3.7430    0.0889   -0.0379 C.ar      1 <0>        -0.1162
     27 Cl1         6.9898    2.2222    0.8805 Cl        1 <0>        -0.0544
     28 Cl2        -2.9753    4.3841    0.0747 Cl        1 <0>        -0.0534
     29 C22         1.9789    8.7323   -6.4922 C.3       1 <0>         0.0063
     30 C23         2.5843    7.7855   -7.4962 C.2       1 <0>        -0.1678
     31 C24         1.6927    7.1930   -8.2076 C.2       1 <0>        -0.0779
     32 C25         2.0349    6.2896   -9.3705 C.3       1 <0>        -0.1136
     33 C26         2.4035    4.9020   -8.8408 C.3       1 <0>        -0.1203
     34 C27         3.1644    4.9954   -7.5260 C.3       1 <0>        -0.1317
     35 C28         4.5945    5.3729   -7.8657 C.3       1 <0>        -0.1273
     36 C29         4.6741    6.7881   -8.4427 C.3       1 <0>        -0.1376
     37 C30         4.0681    7.7575   -7.4217 C.3       1 <0>        -0.0950
     38 H2          2.0320   10.7666   -3.2297 H         1 <0>         0.1051
     39 H3          3.3106    9.6419   -3.7480 H         1 <0>         0.0805
     40 H4          2.4644   10.6433   -4.9519 H         1 <0>         0.0817
     41 H5          0.3680    9.4278   -4.5286 H         1 <0>         0.1284
     42 H6          1.1599    8.4664   -3.2570 H         1 <0>         0.1304
     43 H7          1.1445    6.2381   -6.1062 H         1 <0>         0.1341
     44 H8         -0.1496    7.4129   -5.7710 H         1 <0>         0.1333
     45 H9         -0.2405    5.5087   -4.1838 H         1 <0>         0.1193
     46 H10         0.1335    7.0299   -3.3368 H         1 <0>         0.0957
     47 H11         2.1476    4.9074   -4.2112 H         1 <0>         0.1064
     48 H12         2.5484    7.5235   -2.6875 H         1 <0>         0.0919
     49 H13         3.8128    6.3372   -3.0940 H         1 <0>         0.1165
     50 H14         3.3716    6.6948   -5.5067 H         1 <0>         0.1432
     51 H15         3.8057    8.2238   -4.7059 H         1 <0>         0.1345
     52 H16         0.8449    5.4208   -1.6478 H         1 <0>         0.4039
     53 H17        -0.1735    4.8547   -0.0917 H         1 <0>         0.1365
     54 H18        -2.8699    1.5520   -0.2180 H         1 <0>         0.1514
     55 H19        -0.9730    0.0124   -0.4997 H         1 <0>         0.1527
     56 H20         4.6933    3.7992    0.2984 H         1 <0>         0.1371
     57 H21         5.7688   -0.3236    0.4989 H         1 <0>         0.1503
     58 H22         3.4770   -0.9536   -0.1321 H         1 <0>         0.1505
     59 H23         1.0193    9.0914   -6.8641 H         1 <0>         0.1292
     60 H24         2.6493    9.5782   -6.3403 H         1 <0>         0.1352
     61 H25         0.6520    7.3509   -7.9659 H         1 <0>         0.1192
     62 H26         2.8796    6.7051   -9.9199 H         1 <0>         0.0948
     63 H27         1.1742    6.2083  -10.0344 H         1 <0>         0.0812
     64 H28         3.0249    4.3925   -9.5772 H         1 <0>         0.0764
     65 H29         1.4915    4.3257   -8.6851 H         1 <0>         0.0642
     66 H30         3.1453    4.0322   -7.0162 H         1 <0>         0.0706
     67 H31         2.7183    5.7616   -6.8919 H         1 <0>         0.0596
     68 H32         4.9857    4.6665   -8.5978 H         1 <0>         0.0702
     69 H33         5.2015    5.3213   -6.9618 H         1 <0>         0.0604
     70 H34         4.1115    6.8372   -9.3750 H         1 <0>         0.0882
     71 H35         5.7156    7.0520   -8.6268 H         1 <0>         0.0745
     72 H36         4.4519    8.7596   -7.6128 H         1 <0>         0.0843
     73 H37         4.3672    7.4499   -6.4196 H         1 <0>         0.0822
@<TRIPOS>BOND
     1    1    2 1
     2    1   38 1
     3    1   39 1
     4    1   40 1
     5    2    3 1
     6    2   41 1
     7    2   42 1
     8    3    8 1
     9    3    4 1
    10    3   29 1
    11    4    5 1
    12    4   43 1
    13    4   44 1
    14    5    6 1
    15    5   45 1
    16    5   46 1
    17    6    7 1
    18    6    9 1
    19    6   47 1
    20    7    8 1
    21    7   48 1
    22    7   49 1
    23    8   50 1
    24    8   51 1
    25    9   10 am
    26    9   52 1
    27   10   11 2
    28   10   12 1
    29   12   13 1
    30   12   22 1
    31   12   14 1
    32   14   19 ar
    33   14   15 ar
    34   15   16 ar
    35   15   53 1
    36   16   17 ar
    37   16   28 1
    38   17   18 ar
    39   17   54 1
    40   18   19 ar
    41   18   55 1
    42   19   20 1
    43   20   21 1
    44   21   26 ar
    45   21   22 ar
    46   22   23 ar
    47   23   24 ar
    48   23   56 1
    49   24   25 ar
    50   24   27 1
    51   25   26 ar
    52   25   57 1
    53   26   58 1
    54   29   30 1
    55   29   59 1
    56   29   60 1
    57   30   37 1
    58   30   31 2
    59   31   32 1
    60   31   61 1
    61   32   33 1
    62   32   62 1
    63   32   63 1
    64   33   34 1
    65   33   64 1
    66   33   65 1
    67   34   35 1
    68   34   66 1
    69   34   67 1
    70   35   36 1
    71   35   68 1
    72   35   69 1
    73   36   37 1
    74   36   70 1
    75   36   71 1
    76   37   72 1
    77   37   73 1
@<TRIPOS>MOLECULE
ZINC13862637
   73    77     0     0     0
SMALL
USER_CHARGES

@<TRIPOS>ATOM
      1 C1          0.2535    1.1684   -0.3634 C.3       1 <0>        -0.1883
      2 C2          0.0753   -0.3398   -0.1781 C.3       1 <0>        -0.0177
      3 N1         -1.3422   -0.6391    0.0655 N.4       1 <0>        -0.2555
      4 C3         -1.7714    0.0116    1.3092 C.3       1 <0>        -0.0099
      5 C4         -0.8835   -0.4535    2.4654 C.3       1 <0>        -0.1572
      6 C5         -1.0034   -1.9729    2.6147 C.3       1 <0>         0.1395
      7 C6         -0.6246   -2.6377    1.2882 C.3       1 <0>        -0.1596
      8 C7         -1.5220   -2.0917    0.1756 C.3       1 <0>        -0.0029
      9 N2         -0.0983   -2.4344    3.6701 N.am      1 <0>        -0.7274
     10 C8         -0.3598   -3.5810    4.3284 C.2       1 <0>         0.5288
     11 O1         -1.3445   -4.2308    4.0470 O.2       1 <0>        -0.5056
     12 C9          0.5713   -4.0557    5.4141 C.3       1 <0>        -0.0095
     13 C10         0.6586   -3.0061    6.4887 C.ar      1 <0>        -0.1436
     14 C11         1.4467   -1.8878    6.2820 C.ar      1 <0>        -0.0774
     15 C12         1.5405   -0.9125    7.2578 C.ar      1 <0>        -0.0540
     16 C13         0.8448   -1.0530    8.4457 C.ar      1 <0>        -0.0659
     17 C14         0.0569   -2.1667    8.6562 C.ar      1 <0>        -0.1133
     18 C15        -0.0398   -3.1484    7.6766 C.ar      1 <0>         0.1375
     19 O2         -0.8165   -4.2352    7.9035 O.3       1 <0>        -0.2335
     20 C16        -0.6122   -5.3731    7.1971 C.ar      1 <0>         0.1295
     21 C17         0.0539   -5.3491    5.9826 C.ar      1 <0>        -0.1240
     22 C18         0.2497   -6.5250    5.2803 C.ar      1 <0>        -0.0559
     23 C19        -0.2176   -7.7239    5.7863 C.ar      1 <0>        -0.0527
     24 C20        -0.8834   -7.7505    6.9990 C.ar      1 <0>        -0.0671
     25 C21        -1.0808   -6.5798    7.7038 C.ar      1 <0>        -0.1160
     26 Cl1         0.0303   -9.1957    4.8998 Cl        1 <0>        -0.0544
     27 Cl2         2.5317    0.4879    6.9929 Cl        1 <0>        -0.0534
     28 C22        -2.1476   -0.1309   -1.0529 C.3       1 <0>         0.0207
     29 C23        -3.5846   -0.5448   -0.8659 C.2       1 <0>        -0.1954
     30 C24        -3.9924   -1.6057   -1.4170 C.2       1 <0>        -0.0907
     31 C25        -3.4702   -2.0649   -2.7536 C.3       1 <0>        -0.1032
     32 C26        -4.5105   -1.3831   -3.6807 C.3       1 <0>        -0.1201
     33 C27        -4.5873    0.1260   -3.3637 C.3       1 <0>        -0.1206
     34 C28        -5.6303    0.4255   -2.2884 C.3       1 <0>        -0.1249
     35 C29        -5.0377    1.2608   -1.1333 C.3       1 <0>        -0.1163
     36 C30        -4.4881    0.3162   -0.0227 C.3       1 <0>        -0.0861
     37 H1          1.3108    1.3953   -0.5002 H         1 <0>         0.1047
     38 H2         -0.3047    1.4951   -1.2408 H         1 <0>         0.0809
     39 H3         -0.1187    1.6894    0.5187 H         1 <0>         0.0801
     40 H4          0.4066   -0.8581   -1.0779 H         1 <0>         0.1272
     41 H5          0.6686   -0.6739    0.6730 H         1 <0>         0.1312
     42 H6         -1.6885    1.0930    1.2003 H         1 <0>         0.1340
     43 H7         -2.8078   -0.2532    1.5183 H         1 <0>         0.1364
     44 H8          0.1532   -0.1889    2.2574 H         1 <0>         0.0949
     45 H9         -1.2050    0.0294    3.3882 H         1 <0>         0.1183
     46 H10        -2.0297   -2.2338    2.8732 H         1 <0>         0.1062
     47 H11         0.4176   -2.4185    1.0558 H         1 <0>         0.0904
     48 H12        -0.7609   -3.7161    1.3696 H         1 <0>         0.1156
     49 H13        -2.5638   -2.3117    0.4089 H         1 <0>         0.1323
     50 H14        -1.2551   -2.5632   -0.7702 H         1 <0>         0.1285
     51 H15         0.6892   -1.9147    3.8952 H         1 <0>         0.4039
     52 H16         1.5631   -4.2187    4.9923 H         1 <0>         0.1270
     53 H17         1.9907   -1.7764    5.3557 H         1 <0>         0.1367
     54 H18         0.9186   -0.2916    9.2081 H         1 <0>         0.1514
     55 H19        -0.4861   -2.2752    9.5834 H         1 <0>         0.1527
     56 H20         0.7689   -6.5063    4.3335 H         1 <0>         0.1373
     57 H21        -1.2485   -8.6868    7.3943 H         1 <0>         0.1503
     58 H22        -1.6014   -6.6011    8.6498 H         1 <0>         0.1506
     59 H23        -2.0837    0.9569   -1.0819 H         1 <0>         0.1287
     60 H24        -1.7700   -0.5421   -1.9890 H         1 <0>         0.1317
     61 H25        -4.7388   -2.2026   -0.9141 H         1 <0>         0.1247
     62 H26        -2.4645   -1.6876   -2.9388 H         1 <0>         0.0740
     63 H27        -3.5078   -3.1505   -2.8439 H         1 <0>         0.0891
     64 H28        -4.2136   -1.5200   -4.7205 H         1 <0>         0.0735
     65 H29        -5.4889   -1.8365   -3.5222 H         1 <0>         0.0740
     66 H30        -3.6115    0.4664   -3.0171 H         1 <0>         0.0589
     67 H31        -4.8486    0.6673   -4.2730 H         1 <0>         0.0653
     68 H32        -6.4561    0.9768   -2.7382 H         1 <0>         0.0657
     69 H33        -6.0088   -0.5152   -1.8887 H         1 <0>         0.0679
     70 H34        -4.2269    1.8817   -1.5144 H         1 <0>         0.0644
     71 H35        -5.8143    1.8996   -0.7128 H         1 <0>         0.0711
     72 H36        -5.2865   -0.2705    0.4316 H         1 <0>         0.0901
     73 H37        -3.9241    0.8662    0.7308 H         1 <0>         0.0764
@<TRIPOS>BOND
     1    1    2 1
     2    1   37 1
     3    1   38 1
     4    1   39 1
     5    2    3 1
     6    2   40 1
     7    2   41 1
     8    3    8 1
     9    3    4 1
    10    3   28 1
    11    4    5 1
    12    4   42 1
    13    4   43 1
    14    5    6 1
    15    5   44 1
    16    5   45 1
    17    6    7 1
    18    6    9 1
    19    6   46 1
    20    7    8 1
    21    7   47 1
    22    7   48 1
    23    8   49 1
    24    8   50 1
    25    9   10 am
    26    9   51 1
    27   10   11 2
    28   10   12 1
    29   12   21 1
    30   12   13 1
    31   12   52 1
    32   13   18 ar
    33   13   14 ar
    34   14   15 ar
    35   14   53 1
    36   15   16 ar
    37   15   27 1
    38   16   17 ar
    39   16   54 1
    40   17   18 ar
    41   17   55 1
    42   18   19 1
    43   19   20 1
    44   20   25 ar
    45   20   21 ar
    46   21   22 ar
    47   22   23 ar
    48   22   56 1
    49   23   24 ar
    50   23   26 1
    51   24   25 ar
    52   24   57 1
    53   25   58 1
    54   28   29 1
    55   28   59 1
    56   28   60 1
    57   29   36 1
    58   29   30 2
    59   30   31 1
    60   30   61 1
    61   31   32 1
    62   31   62 1
    63   31   63 1
    64   32   33 1
    65   32   64 1
    66   32   65 1
    67   33   34 1
    68   33   66 1
    69   33   67 1
    70   34   35 1
    71   34   68 1
    72   34   69 1
    73   35   36 1
    74   35   70 1
    75   35   71 1
    76   36   72 1
    77   36   73 1
@<TRIPOS>MOLECULE
ZINC28230897
   51    54     0     0     0
SMALL
USER_CHARGES
2-(1,3-benzothiazol-2-ylsulfanyl)-N-[1-[(4-chlorophenyl)methyl]-4-piperidyl]acetamide
@<TRIPOS>ATOM
      1 C1          4.2269    7.5828   14.5518 C.ar      1 <0>        -0.1074
      2 C2          2.8922    7.9548   14.4840 C.ar      1 <0>        -0.0845
      3 C3          2.2154    7.8328   13.2839 C.ar      1 <0>        -0.0701
      4 C4          2.8727    7.3473   12.1816 C.ar      1 <0>        -0.1291
      5 C5          4.2311    6.9583   12.2133 C.ar      1 <0>         0.0782
      6 C6          4.8912    7.0961   13.4562 C.ar      1 <0>        -0.0549
      7 N1          4.7364    6.5003   11.0472 N.2       1 <0>        -0.4712
      8 C7          4.0169    6.4191    9.9502 C.2       1 <0>         0.0966
      9 S1          2.4284    7.0349   10.4900 S.3       1 <0>        -0.0200
     10 S2          4.4982    5.8542    8.3521 S.3       1 <0>         0.1440
     11 C8          2.9392    6.0723    7.4589 C.3       1 <0>        -0.1888
     12 C9          3.1164    5.6401    6.0261 C.2       1 <0>         0.5472
     13 O1          4.1910    5.2254    5.6463 O.2       1 <0>        -0.5125
     14 N2          2.0807    5.7143    5.1668 N.am      1 <0>        -0.7374
     15 C10         2.2530    5.2942    3.7740 C.3       1 <0>         0.1373
     16 C11         1.2295    6.0145    2.8919 C.3       1 <0>        -0.1540
     17 C12         1.3739    5.5264    1.4487 C.3       1 <0>         0.0017
     18 N3          1.1558    4.0751    1.3973 N.4       1 <0>        -0.3981
     19 C13         2.1561    3.3591    2.1992 C.3       1 <0>        -0.0073
     20 C14         2.0350    3.7825    3.6648 C.3       1 <0>        -0.1588
     21 C15         1.1497    3.5925    0.0098 C.3       1 <0>         0.0468
     22 C16         1.1708    2.0856    0.0021 C.ar      1 <0>        -0.1576
     23 C17        -0.0167    1.3779    0.0096 C.ar      1 <0>        -0.0803
     24 C18         0.0021   -0.0041    0.0020 C.ar      1 <0>        -0.1067
     25 C19         1.2096   -0.6792   -0.0131 C.ar      1 <0>        -0.0072
     26 C20         2.3977    0.0297   -0.0206 C.ar      1 <0>        -0.1069
     27 C21         2.3777    1.4116   -0.0130 C.ar      1 <0>        -0.0829
     28 Cl1         1.2340   -2.4150   -0.0221 Cl        1 <0>        -0.0371
     29 H1          4.7544    7.6785   15.4894 H         1 <0>         0.1406
     30 H2          2.3870    8.3361   15.3590 H         1 <0>         0.1444
     31 H3          1.1760    8.1182   13.2148 H         1 <0>         0.1367
     32 H4          5.9304    6.8151   13.5430 H         1 <0>         0.1379
     33 H5          2.1568    5.4609    7.9322 H         1 <0>         0.1313
     34 H6          2.6447    7.1317    7.4886 H         1 <0>         0.1318
     35 H7          1.1061    6.0903    5.5113 H         1 <0>         0.4323
     36 H8          3.2789    5.5636    3.4827 H         1 <0>         0.1075
     37 H9          0.2144    5.7960    3.2549 H         1 <0>         0.0973
     38 H10         1.4083    7.0991    2.9336 H         1 <0>         0.1212
     39 H11         0.6300    6.0312    0.8148 H         1 <0>         0.1391
     40 H12         2.3851    5.7579    1.0827 H         1 <0>         0.1312
     41 H13         1.9857    2.2756    2.1157 H         1 <0>         0.1370
     42 H14         3.1636    3.6013    1.8301 H         1 <0>         0.1293
     43 H15         2.7944    3.2584    4.2637 H         1 <0>         0.1169
     44 H16         1.0327    3.5285    4.0400 H         1 <0>         0.0921
     45 H17         0.2417    3.9492   -0.4985 H         1 <0>         0.1417
     46 H18         2.0377    3.9744   -0.5152 H         1 <0>         0.1364
     47 H19        -0.9593    1.9051    0.0169 H         1 <0>         0.1414
     48 H20        -0.9257   -0.5569    0.0082 H         1 <0>         0.1469
     49 H21         3.3407   -0.4968   -0.0321 H         1 <0>         0.1473
     50 H22         3.3051    1.9651   -0.0192 H         1 <0>         0.1405
     51 H23         0.1670    3.8690    1.8330 H         1 <0>         0.4402
@<TRIPOS>BOND
     1    1    6 ar
     2    1    2 ar
     3    1   29 1
     4    2    3 ar
     5    2   30 1
     6    3    4 ar
     7    3   31 1
     8    4    9 1
     9    4    5 ar
    10    5    6 ar
    11    5    7 1
    12    6   32 1
    13    7    8 2
    14    8    9 1
    15    8   10 1
    16   10   11 1
    17   11   12 1
    18   11   33 1
    19   11   34 1
    20   12   13 2
    21   12   14 am
    22   14   15 1
    23   14   35 1
    24   15   20 1
    25   15   16 1
    26   15   36 1
    27   16   17 1
    28   16   37 1
    29   16   38 1
    30   17   18 1
    31   17   39 1
    32   17   40 1
    33   18   19 1
    34   18   21 1
    35   18   51 1
    36   19   20 1
    37   19   41 1
    38   19   42 1
    39   20   43 1
    40   20   44 1
    41   21   22 1
    42   21   45 1
    43   21   46 1
    44   22   27 ar
    45   22   23 ar
    46   23   24 ar
    47   23   47 1
    48   24   25 ar
    49   24   48 1
    50   25   26 ar
    51   25   28 1
    52   26   27 ar
    53   26   49 1
    54   27   50 1
@<TRIPOS>MOLECULE
ZINC29225159
   43    44     0     0     0
SMALL
USER_CHARGES
ethyl (2S)-2-benzamido-3-(4-nitrophenyl)propanoate
@<TRIPOS>ATOM
      1 C1          9.3162   -2.7877    3.0247 C.3       1 <0>        -0.1554
      2 C2          7.9835   -2.0387    2.9616 C.3       1 <0>         0.0604
      3 O1          7.6695   -1.7251    1.5791 O.3       1 <0>        -0.3562
      4 C3          6.5242   -1.0638    1.3492 C.2       1 <0>         0.4494
      5 O2          5.8079   -0.7572    2.2726 O.2       1 <0>        -0.4898
      6 C4          6.1319   -0.7039   -0.0606 C.3       1 <0>         0.1664
      7 H1          5.9948   -1.6196   -0.6545 H         1 <0>         0.1337
      8 C5          7.2071    0.1941   -0.6757 C.3       1 <0>        -0.0917
      9 C6          6.8772    0.4537   -2.1230 C.ar      1 <0>        -0.0320
     10 C7          7.3584   -0.3928   -3.1042 C.ar      1 <0>        -0.1092
     11 C8          7.0521   -0.1572   -4.4315 C.ar      1 <0>        -0.0490
     12 C9          6.2721    0.9301   -4.7783 C.ar      1 <0>        -0.0439
     13 C10         5.7952    1.7796   -3.7976 C.ar      1 <0>        -0.0492
     14 C11         6.0980    1.5415   -2.4700 C.ar      1 <0>        -0.1115
     15 N1          5.9472    1.1845   -6.1998 N.pl3     1 <0>         0.0257
     16 O3          5.2596    2.1423   -6.5054 O.2       1 <0>        -0.1568
     17 O4          6.3673    0.4360   -7.0639 O.3       1 <0>        -0.1562
     18 N2          4.8516    0.0080   -0.0446 N.am      1 <0>        -0.7225
     19 C12         3.6955   -0.6847   -0.0373 C.2       1 <0>         0.5721
     20 O5          3.7151   -1.9000   -0.0440 O.2       1 <0>        -0.5304
     21 C13         2.4034    0.0337   -0.0211 C.ar      1 <0>        -0.1343
     22 C14         1.2043   -0.6806   -0.0135 C.ar      1 <0>        -0.0587
     23 C15         0.0021   -0.0041    0.0020 C.ar      1 <0>        -0.1252
     24 C16        -0.0167    1.3794    0.0096 C.ar      1 <0>        -0.0905
     25 C17         1.1684    2.0935    0.0021 C.ar      1 <0>        -0.1260
     26 C18         2.3774    1.4292   -0.0129 C.ar      1 <0>        -0.0850
     27 H2          9.5540   -3.0253    4.0721 H         1 <0>         0.0829
     28 H3         10.1119   -2.1566    2.6021 H         1 <0>         0.0684
     29 H4          9.2408   -3.7197    2.4453 H         1 <0>         0.0690
     30 H5          7.1878   -2.6698    3.3842 H         1 <0>         0.0720
     31 H6          8.0589   -1.1067    3.5410 H         1 <0>         0.0721
     32 H7          7.2430    1.1490   -0.1308 H         1 <0>         0.0992
     33 H8          8.1851   -0.3046   -0.6063 H         1 <0>         0.1182
     34 H9          7.9708   -1.2402   -2.8336 H         1 <0>         0.1519
     35 H10         7.4243   -0.8211   -5.1977 H         1 <0>         0.1564
     36 H11         5.1859    2.6291   -4.0685 H         1 <0>         0.1557
     37 H12         5.7254    2.2052   -1.7037 H         1 <0>         0.1446
     38 H13         4.8339    1.1078   -0.0385 H         1 <0>         0.4240
     39 H14         1.2176   -1.7605   -0.0202 H         1 <0>         0.1360
     40 H15        -0.9265   -0.5556    0.0079 H         1 <0>         0.1320
     41 H16        -0.9606    1.9042    0.0169 H         1 <0>         0.1297
     42 H17         1.1468    3.1732    0.0081 H         1 <0>         0.1311
     43 H18         3.3017    1.9878   -0.0184 H         1 <0>         0.1230
@<TRIPOS>BOND
     1    1    2 1
     2    1   27 1
     3    1   28 1
     4    1   29 1
     5    2    3 1
     6    2   30 1
     7    2   31 1
     8    3    4 1
     9    4    5 2
    10    4    6 1
    11    6    7 1
    12    6    8 1
    13    6   18 1
    14    8    9 1
    15    8   32 1
    16    8   33 1
    17    9   14 ar
    18    9   10 ar
    19   10   11 ar
    20   10   34 1
    21   11   12 ar
    22   11   35 1
    23   12   13 ar
    24   12   15 1
    25   13   14 ar
    26   13   36 1
    27   14   37 1
    28   15   16 2
    29   15   17 1
    30   18   19 am
    31   18   38 1
    32   19   20 2
    33   19   21 1
    34   21   26 ar
    35   21   22 ar
    36   22   23 ar
    37   22   39 1
    38   23   24 ar
    39   23   40 1
    40   24   25 ar
    41   24   41 1
    42   25   26 ar
    43   25   42 1
    44   26   43 1
@<TRIPOS>MOLECULE
ZINC29228443
   42    43     0     0     0
SMALL
USER_CHARGES
ethyl (2S)-2-benzamido-3-(4-hydroxy-3,5-diiodo-phenyl)propanoate
@<TRIPOS>ATOM
      1 C1          6.2563    6.6906   -0.2871 C.3       1 <0>        -0.1552
      2 C2          6.4966    5.3411   -0.9667 C.3       1 <0>         0.0604
      3 O1          5.2784    4.5522   -0.9205 O.3       1 <0>        -0.3557
      4 C3          5.3211    3.3320   -1.4780 C.2       1 <0>         0.4494
      5 O2          6.3426    2.9361   -1.9878 O.2       1 <0>        -0.4926
      6 C4          4.0951    2.4557   -1.4682 C.3       1 <0>         0.1650
      7 H1          3.2856    2.9411   -2.0331 H         1 <0>         0.1324
      8 C5          3.6718    2.1870   -0.0227 C.3       1 <0>        -0.0766
      9 C6          2.3780    1.4145   -0.0135 C.ar      1 <0>        -0.1216
     10 C7          1.1714    2.0894    0.0021 C.ar      1 <0>        -0.0155
     11 C8         -0.0167    1.3834    0.0096 C.ar      1 <0>        -0.1415
     12 C9          0.0021   -0.0041    0.0020 C.ar      1 <0>         0.2273
     13 C10         1.2144   -0.6789   -0.0132 C.ar      1 <0>        -0.1955
     14 C11         2.3996    0.0320   -0.0207 C.ar      1 <0>        -0.0185
     15 I1          1.2483   -2.7736   -0.0241 I         1 <0>        -0.0190
     16 O3         -1.1649   -0.7008    0.0099 O.3       1 <0>        -0.4854
     17 I2         -1.8446    2.4071    0.0239 I         1 <0>        -0.0079
     18 N1          4.3974    1.1855   -2.1327 N.am      1 <0>        -0.7197
     19 C12         4.2994    1.0862   -3.4732 C.2       1 <0>         0.5716
     20 O4          3.9603    2.0506   -4.1309 O.2       1 <0>        -0.5310
     21 C13         4.6044   -0.1956   -4.1438 C.ar      1 <0>        -0.1321
     22 C14         4.9997   -1.3032   -3.3921 C.ar      1 <0>        -0.0835
     23 C15         5.2778   -2.4979   -4.0235 C.ar      1 <0>        -0.1251
     24 C16         5.1762   -2.5964   -5.3999 C.ar      1 <0>        -0.0916
     25 C17         4.7905   -1.5007   -6.1514 C.ar      1 <0>        -0.1256
     26 C18         4.5040   -0.3018   -5.5319 C.ar      1 <0>        -0.0589
     27 H2          7.1791    7.2882   -0.3221 H         1 <0>         0.0820
     28 H3          5.9651    6.5266    0.7609 H         1 <0>         0.0684
     29 H4          5.4519    7.2271   -0.8115 H         1 <0>         0.0689
     30 H5          6.7878    5.5051   -2.0147 H         1 <0>         0.0713
     31 H6          7.3010    4.8045   -0.4423 H         1 <0>         0.0714
     32 H7          4.4522    1.6012    0.4850 H         1 <0>         0.0928
     33 H8          3.5315    3.1435    0.5021 H         1 <0>         0.1127
     34 H9          1.1573    3.1693    0.0077 H         1 <0>         0.1451
     35 H10         3.3435   -0.4927   -0.0325 H         1 <0>         0.1336
     36 H11        -1.1489   -1.8007    0.0039 H         1 <0>         0.4318
     37 H12         4.7044    0.3128   -1.5375 H         1 <0>         0.4219
     38 H13         5.0837   -1.2263   -2.3181 H         1 <0>         0.1215
     39 H14         5.5795   -3.3569   -3.4426 H         1 <0>         0.1300
     40 H15         5.3987   -3.5329   -5.8897 H         1 <0>         0.1284
     41 H16         4.7131   -1.5842   -7.2254 H         1 <0>         0.1310
     42 H17         4.2029    0.5528   -6.1197 H         1 <0>         0.1356
@<TRIPOS>BOND
     1    1    2 1
     2    1   27 1
     3    1   28 1
     4    1   29 1
     5    2    3 1
     6    2   30 1
     7    2   31 1
     8    3    4 1
     9    4    5 2
    10    4    6 1
    11    6    7 1
    12    6    8 1
    13    6   18 1
    14    8    9 1
    15    8   32 1
    16    8   33 1
    17    9   14 ar
    18    9   10 ar
    19   10   11 ar
    20   10   34 1
    21   11   12 ar
    22   11   17 1
    23   12   13 ar
    24   12   16 1
    25   13   14 ar
    26   13   15 1
    27   14   35 1
    28   16   36 1
    29   18   19 am
    30   18   37 1
    31   19   20 2
    32   19   21 1
    33   21   26 ar
    34   21   22 ar
    35   22   23 ar
    36   22   38 1
    37   23   24 ar
    38   23   39 1
    39   24   25 ar
    40   24   40 1
    41   25   26 ar
    42   25   41 1
    43   26   42 1
@<TRIPOS>MOLECULE
ZINC29228443
   41    42     0     0     0
SMALL
USER_CHARGES
ethyl (2S)-2-benzamido-3-(4-hydroxy-3,5-diiodo-phenyl)propanoate
@<TRIPOS>ATOM
      1 C1          6.2563    6.6906   -0.2871 C.3       1 <0>        -0.1539
      2 C2          6.4966    5.3411   -0.9667 C.3       1 <0>         0.0596
      3 O1          5.2784    4.5522   -0.9205 O.3       1 <0>        -0.3542
      4 C3          5.3211    3.3320   -1.4780 C.2       1 <0>         0.4523
      5 O2          6.3426    2.9361   -1.9878 O.2       1 <0>        -0.5044
      6 C4          4.0951    2.4557   -1.4682 C.3       1 <0>         0.1655
      7 H1          3.2856    2.9411   -2.0331 H         1 <0>         0.1282
      8 C5          3.6718    2.1870   -0.0227 C.3       1 <0>        -0.0492
      9 C6          2.3780    1.4145   -0.0135 C.ar      1 <0>        -0.2356
     10 C7          1.1714    2.0894    0.0021 C.ar      1 <0>        -0.0097
     11 C8         -0.0167    1.3834    0.0096 C.ar      1 <0>        -0.2214
     12 C9          0.0021   -0.0041    0.0020 C.ar      1 <0>         0.3116
     13 C10         1.2144   -0.6789   -0.0132 C.ar      1 <0>        -0.2220
     14 C11         2.3996    0.0320   -0.0207 C.ar      1 <0>        -0.0085
     15 I1          1.2483   -2.7736   -0.0241 I         1 <0>        -0.0876
     16 O3         -1.1649   -0.7008    0.0099 O.3       1 <0>        -0.6631
     17 I2         -1.8446    2.4071    0.0239 I         1 <0>        -0.0872
     18 N1          4.3974    1.1855   -2.1327 N.am      1 <0>        -0.7073
     19 C12         4.2994    1.0862   -3.4732 C.2       1 <0>         0.5705
     20 O4          3.9603    2.0506   -4.1309 O.2       1 <0>        -0.5410
     21 C13         4.6044   -0.1956   -4.1438 C.ar      1 <0>        -0.1248
     22 C14         4.9997   -1.3032   -3.3921 C.ar      1 <0>        -0.0789
     23 C15         5.2778   -2.4979   -4.0235 C.ar      1 <0>        -0.1248
     24 C16         5.1762   -2.5964   -5.3999 C.ar      1 <0>        -0.0972
     25 C17         4.7905   -1.5007   -6.1514 C.ar      1 <0>        -0.1296
     26 C18         4.5040   -0.3018   -5.5319 C.ar      1 <0>        -0.0615
     27 H2          7.1791    7.2882   -0.3221 H         1 <0>         0.0777
     28 H3          5.9651    6.5266    0.7609 H         1 <0>         0.0682
     29 H4          5.4519    7.2271   -0.8115 H         1 <0>         0.0679
     30 H5          6.7878    5.5051   -2.0147 H         1 <0>         0.0677
     31 H6          7.3010    4.8045   -0.4423 H         1 <0>         0.0682
     32 H7          4.4522    1.6012    0.4850 H         1 <0>         0.0713
     33 H8          3.5315    3.1435    0.5021 H         1 <0>         0.0912
     34 H9          1.1573    3.1693    0.0077 H         1 <0>         0.1044
     35 H10         3.3435   -0.4927   -0.0325 H         1 <0>         0.0968
     36 H11         4.7044    0.3128   -1.5375 H         1 <0>         0.4226
     37 H12         5.0837   -1.2263   -2.3181 H         1 <0>         0.1243
     38 H13         5.5795   -3.3569   -3.4426 H         1 <0>         0.1284
     39 H14         5.3987   -3.5329   -5.8897 H         1 <0>         0.1247
     40 H15         4.7131   -1.5842   -7.2254 H         1 <0>         0.1271
     41 H16         4.2029    0.5528   -6.1197 H         1 <0>         0.1337
@<TRIPOS>BOND
     1    1    2 1
     2    1   27 1
     3    1   28 1
     4    1   29 1
     5    2    3 1
     6    2   30 1
     7    2   31 1
     8    3    4 1
     9    4    5 2
    10    4    6 1
    11    6    7 1
    12    6    8 1
    13    6   18 1
    14    8    9 1
    15    8   32 1
    16    8   33 1
    17    9   14 ar
    18    9   10 ar
    19   10   11 ar
    20   10   34 1
    21   11   12 ar
    22   11   17 1
    23   12   13 ar
    24   12   16 1
    25   13   14 ar
    26   13   15 1
    27   14   35 1
    28   18   19 am
    29   18   36 1
    30   19   20 2
    31   19   21 1
    32   21   26 ar
    33   21   22 ar
    34   22   23 ar
    35   22   37 1
    36   23   24 ar
    37   23   38 1
    38   24   25 ar
    39   24   39 1
    40   25   26 ar
    41   25   40 1
    42   26   41 1
@<TRIPOS>MOLECULE
ZINC04015565
   66    68     0     0     0
SMALL
USER_CHARGES
ethyl 2-(2-benzyloxycarbonylamino-3-phenyl-propanoyl)amino-3-(4-hydroxyphenyl)-propanoate
@<TRIPOS>ATOM
      1 C1         -9.4360    7.8180    1.8526 C.3       1 <0>        -0.1536
      2 C2         -8.0646    7.1444    1.7717 C.3       1 <0>         0.0626
      3 O1         -8.0168    6.2824    0.6042 O.3       1 <0>        -0.3551
      4 C3         -6.8737    5.6132    0.3871 C.2       1 <0>         0.4503
      5 O2         -5.9437    5.7435    1.1475 O.2       1 <0>        -0.4933
      6 C4         -6.7501    4.6995   -0.8049 C.3       1 <0>         0.1645
      7 H1         -6.8968    5.2738   -1.7196 H         1 <0>         0.1324
      8 C5         -7.8108    3.6004   -0.7171 C.3       1 <0>        -0.0817
      9 C6         -7.7683    2.7602   -1.9674 C.ar      1 <0>        -0.0984
     10 C7         -8.5511    3.1010   -3.0549 C.ar      1 <0>        -0.0925
     11 C8         -8.5097    2.3357   -4.2042 C.ar      1 <0>        -0.1417
     12 C9         -7.6899    1.2180   -4.2627 C.ar      1 <0>         0.1087
     13 C10        -6.9096    0.8749   -3.1681 C.ar      1 <0>        -0.1417
     14 C11        -6.9507    1.6465   -2.0230 C.ar      1 <0>        -0.0948
     15 O3         -7.6515    0.4603   -5.3903 O.3       1 <0>        -0.4996
     16 N1         -5.4172    4.0918   -0.8183 N.am      1 <0>        -0.7025
     17 C12        -4.3823    4.7494   -1.3779 C.2       1 <0>         0.5243
     18 O4         -4.5546    5.8443   -1.8703 O.2       1 <0>        -0.5202
     19 C13        -3.0112    4.1243   -1.3917 C.3       1 <0>         0.1586
     20 H2         -3.0478    3.1801   -1.9349 H         1 <0>         0.1229
     21 C14        -2.5528    3.8685    0.0455 C.3       1 <0>        -0.0897
     22 C15        -1.2377    3.1328    0.0299 C.ar      1 <0>        -0.0685
     23 C16        -1.2190    1.7507    0.0173 C.ar      1 <0>        -0.1026
     24 C17        -0.0126    1.0758    0.0080 C.ar      1 <0>        -0.1124
     25 C18         1.1750    1.7832    0.0004 C.ar      1 <0>        -0.1166
     26 C19         1.1563    3.1654    0.0076 C.ar      1 <0>        -0.1144
     27 C20        -0.0501    3.8402    0.0223 C.ar      1 <0>        -0.1073
     28 N2         -2.0679    5.0308   -2.0510 N.am      1 <0>        -0.6959
     29 C21        -0.9545    4.5397   -2.6305 C.2       1 <0>         0.6523
     30 O5         -0.7332    3.3452   -2.6061 O.2       1 <0>        -0.5511
     31 O6         -0.0876    5.3728   -3.2365 O.3       1 <0>        -0.3634
     32 C22         1.0899    4.7742   -3.8394 C.3       1 <0>         0.1335
     33 C23         1.9370    5.8522   -4.4650 C.ar      1 <0>        -0.1009
     34 C24         1.7348    6.2115   -5.7845 C.ar      1 <0>        -0.0932
     35 C25         2.5086    7.2037   -6.3570 C.ar      1 <0>        -0.1232
     36 C26         3.4912    7.8296   -5.6130 C.ar      1 <0>        -0.1074
     37 C27         3.6972    7.4664   -4.2952 C.ar      1 <0>        -0.1237
     38 C28         2.9199    6.4778   -3.7212 C.ar      1 <0>        -0.0927
     39 H3         -9.4718    8.4651    2.7289 H         1 <0>         0.0815
     40 H4         -9.6021    8.4130    0.9545 H         1 <0>         0.0681
     41 H5        -10.2110    7.0557    1.9318 H         1 <0>         0.0678
     42 H6         -7.8985    6.5494    2.6697 H         1 <0>         0.0712
     43 H7         -7.2895    7.9067    1.6924 H         1 <0>         0.0709
     44 H8         -7.6112    2.9713    0.1504 H         1 <0>         0.0890
     45 H9         -8.7969    4.0542   -0.6176 H         1 <0>         0.1086
     46 H10        -9.1925    3.9687   -3.0073 H         1 <0>         0.1307
     47 H11        -9.1177    2.6051   -5.0552 H         1 <0>         0.1307
     48 H12        -6.2703    0.0055   -3.2114 H         1 <0>         0.1306
     49 H13        -6.3435    1.3798   -1.1706 H         1 <0>         0.1250
     50 H14        -8.2988   -0.2579   -5.4037 H         1 <0>         0.3927
     51 H15        -5.2794    3.2161   -0.4244 H         1 <0>         0.4088
     52 H16        -3.2997    3.2667    0.5633 H         1 <0>         0.0892
     53 H17        -2.4307    4.8201    0.5628 H         1 <0>         0.0861
     54 H18        -2.1469    1.1980    0.0188 H         1 <0>         0.1161
     55 H19         0.0021   -0.0041    0.0020 H         1 <0>         0.1178
     56 H20         2.1175    1.2560   -0.0115 H         1 <0>         0.1166
     57 H21         2.0841    3.7181    0.0014 H         1 <0>         0.1148
     58 H22        -0.0647    4.9201    0.0276 H         1 <0>         0.1107
     59 H23        -2.2446    5.9843   -2.0705 H         1 <0>         0.4154
     60 H24         1.6675    4.2572   -3.0730 H         1 <0>         0.0807
     61 H25         0.7836    4.0621   -4.6057 H         1 <0>         0.0792
     62 H26         0.9698    5.7196   -6.3670 H         1 <0>         0.1245
     63 H27         2.3479    7.4872   -7.3867 H         1 <0>         0.1261
     64 H28         4.0982    8.6022   -6.0614 H         1 <0>         0.1250
     65 H29         4.4651    7.9551   -3.7141 H         1 <0>         0.1259
     66 H30         3.0808    6.1940   -2.6916 H         1 <0>         0.1241
@<TRIPOS>BOND
     1    1    2 1
     2    1   39 1
     3    1   40 1
     4    1   41 1
     5    2    3 1
     6    2   42 1
     7    2   43 1
     8    3    4 1
     9    4    5 2
    10    4    6 1
    11    6    7 1
    12    6    8 1
    13    6   16 1
    14    8    9 1
    15    8   44 1
    16    8   45 1
    17    9   14 ar
    18    9   10 ar
    19   10   11 ar
    20   10   46 1
    21   11   12 ar
    22   11   47 1
    23   12   13 ar
    24   12   15 1
    25   13   14 ar
    26   13   48 1
    27   14   49 1
    28   15   50 1
    29   16   17 am
    30   16   51 1
    31   17   18 2
    32   17   19 1
    33   19   20 1
    34   19   21 1
    35   19   28 1
    36   21   22 1
    37   21   52 1
    38   21   53 1
    39   22   27 ar
    40   22   23 ar
    41   23   24 ar
    42   23   54 1
    43   24   25 ar
    44   24   55 1
    45   25   26 ar
    46   25   56 1
    47   26   27 ar
    48   26   57 1
    49   27   58 1
    50   28   29 am
    51   28   59 1
    52   29   30 2
    53   29   31 1
    54   31   32 1
    55   32   33 1
    56   32   60 1
    57   32   61 1
    58   33   38 ar
    59   33   34 ar
    60   34   35 ar
    61   34   62 1
    62   35   36 ar
    63   35   63 1
    64   36   37 ar
    65   36   64 1
    66   37   38 ar
    67   37   65 1
    68   38   66 1
@<TRIPOS>MOLECULE
ZINC01758569
   31    31     0     0     0
SMALL
USER_CHARGES

@<TRIPOS>ATOM
      1 C1         -0.0187    1.5258    0.0104 C.3       1 <0>        -0.1533
      2 C2          0.0021   -0.0041    0.0020 C.3       1 <0>         0.0594
      3 O1         -1.3386   -0.4987    0.0122 O.3       1 <0>        -0.3440
      4 C3         -1.4964   -1.8317    0.0065 C.2       1 <0>         0.4617
      5 O2         -0.5283   -2.5546   -0.0066 O.2       1 <0>        -0.5020
      6 C4         -2.8809   -2.4266    0.0165 C.3       1 <0>         0.1544
      7 H1         -3.4261   -2.0931   -0.8665 H         1 <0>         0.1306
      8 C5         -3.6222   -1.9719    1.2754 C.3       1 <0>        -0.1598
      9 N1         -2.7844   -3.8884    0.0078 N.am      1 <0>        -0.7166
     10 C6         -3.8002   -4.6278   -0.4798 C.2       1 <0>         0.5679
     11 O3         -4.7965   -4.0819   -0.9123 O.2       1 <0>        -0.5298
     12 C7         -3.7029   -6.1031   -0.4887 C.ar      1 <0>        -0.1387
     13 C8         -2.5627   -6.7333    0.0125 C.ar      1 <0>        -0.0845
     14 C9         -2.4784   -8.1102    0.0017 C.ar      1 <0>        -0.1271
     15 C10        -3.5206   -8.8662   -0.5048 C.ar      1 <0>        -0.0902
     16 C11        -4.6534   -8.2478   -1.0035 C.ar      1 <0>        -0.1276
     17 C12        -4.7531   -6.8718   -0.9929 C.ar      1 <0>        -0.0571
     18 H2          1.0039    1.9031    0.0027 H         1 <0>         0.0821
     19 H3         -0.5459    1.8868   -0.8726 H         1 <0>         0.0685
     20 H4         -0.5289    1.8773    0.9072 H         1 <0>         0.0685
     21 H5          0.5123   -0.3556   -0.8948 H         1 <0>         0.0701
     22 H6          0.5293   -0.3651    0.8851 H         1 <0>         0.0703
     23 H7         -4.6237   -2.4022    1.2826 H         1 <0>         0.0811
     24 H8         -3.0771   -2.3054    2.1584 H         1 <0>         0.0648
     25 H9         -3.6940   -0.8843    1.2819 H         1 <0>         0.0844
     26 H10        -1.9894   -4.3240    0.3529 H         1 <0>         0.4102
     27 H11        -1.7482   -6.1442    0.4075 H         1 <0>         0.1266
     28 H12        -1.5968   -8.5991    0.3892 H         1 <0>         0.1308
     29 H13        -3.4495   -9.9439   -0.5112 H         1 <0>         0.1293
     30 H14        -5.4633   -8.8436   -1.3978 H         1 <0>         0.1322
     31 H15        -5.6398   -6.3904   -1.3780 H         1 <0>         0.1378
@<TRIPOS>BOND
     1    1    2 1
     2    1   18 1
     3    1   19 1
     4    1   20 1
     5    2    3 1
     6    2   21 1
     7    2   22 1
     8    3    4 1
     9    4    5 2
    10    4    6 1
    11    6    7 1
    12    6    8 1
    13    6    9 1
    14    8   23 1
    15    8   24 1
    16    8   25 1
    17    9   10 am
    18    9   26 1
    19   10   11 2
    20   10   12 1
    21   12   17 ar
    22   12   13 ar
    23   13   14 ar
    24   13   27 1
    25   14   15 ar
    26   14   28 1
    27   15   16 ar
    28   15   29 1
    29   16   17 ar
    30   16   30 1
    31   17   31 1
@<TRIPOS>MOLECULE
ZINC29222893
   46    48     0     0     0
SMALL
USER_CHARGES
methyl (2S)-2-(naphthalene-1-carbonylamino)-3-(4-nitrophenyl)propanoate
@<TRIPOS>ATOM
      1 C1         -6.9498    4.8698    3.0485 C.3       1 <0>         0.0319
      2 O1         -6.6008    4.6799    1.6520 O.3       1 <0>        -0.3569
      3 C2         -5.4419    4.0541    1.3931 C.2       1 <0>         0.4475
      4 O2         -4.7423    3.6774    2.3034 O.2       1 <0>        -0.4883
      5 C3         -5.0134    3.8213   -0.0328 C.3       1 <0>         0.1665
      6 H1         -4.8754    4.7862   -0.5426 H         1 <0>         0.1350
      7 C4         -6.0624    2.9671   -0.7476 C.3       1 <0>        -0.0918
      8 C5         -5.6967    2.8368   -2.2037 C.ar      1 <0>        -0.0326
      9 C6         -6.1672    3.7589   -3.1197 C.ar      1 <0>        -0.1092
     10 C7         -5.8286    3.6416   -4.4548 C.ar      1 <0>        -0.0491
     11 C8         -5.0261    2.5974   -4.8752 C.ar      1 <0>        -0.0437
     12 C9         -4.5599    1.6723   -3.9599 C.ar      1 <0>        -0.0492
     13 C10        -4.8954    1.7918   -2.6243 C.ar      1 <0>        -0.1113
     14 N1         -4.6665    2.4697   -6.3053 N.pl3     1 <0>         0.0256
     15 O3         -3.9598    1.5495   -6.6757 O.2       1 <0>        -0.1566
     16 O4         -5.0773    3.2849   -7.1117 O.3       1 <0>        -0.1563
     17 N2         -3.7243    3.1254   -0.0479 N.am      1 <0>        -0.7213
     18 C11        -2.5780    3.8281    0.0458 C.2       1 <0>         0.5771
     19 O5         -2.6138    5.0397    0.1429 O.2       1 <0>        -0.5262
     20 C12        -1.2805    3.1277    0.0306 C.ar      1 <0>        -0.1247
     21 C13        -1.2314    1.7415    0.0459 C.ar      1 <0>        -0.0682
     22 C14        -0.0122    1.0760    0.0366 C.ar      1 <0>        -0.1325
     23 C15         1.1654    1.7612    0.0014 C.ar      1 <0>        -0.0688
     24 C16         1.1634    3.1665   -0.0215 C.ar      1 <0>        -0.0605
     25 C17        -0.0694    3.8631   -0.0070 C.ar      1 <0>        -0.0120
     26 C18        -0.0698    5.2643   -0.0302 C.ar      1 <0>        -0.1179
     27 C19         1.1134    5.9391   -0.0664 C.ar      1 <0>        -0.1126
     28 C20         2.3273    5.2558   -0.0807 C.ar      1 <0>        -0.1119
     29 C21         2.3650    3.8952   -0.0590 C.ar      1 <0>        -0.1096
     30 H2         -7.9159    5.3913    3.1173 H         1 <0>         0.1071
     31 H3         -6.1724    5.4713    3.5422 H         1 <0>         0.0656
     32 H4         -7.0256    3.8906    3.5439 H         1 <0>         0.0655
     33 H5         -6.0975    1.9685   -0.2876 H         1 <0>         0.0994
     34 H6         -7.0484    3.4467   -0.6586 H         1 <0>         0.1185
     35 H7         -6.7969    4.5728   -2.7919 H         1 <0>         0.1520
     36 H8         -6.1931    4.3642   -5.1699 H         1 <0>         0.1564
     37 H9         -3.9332    0.8563   -4.2884 H         1 <0>         0.1557
     38 H10        -4.5311    1.0691   -1.9092 H         1 <0>         0.1447
     39 H11        -3.6919    2.0294   -0.1357 H         1 <0>         0.4244
     40 H12        -2.1500    1.1741    0.0699 H         1 <0>         0.1250
     41 H13         0.0028   -0.0038    0.0532 H         1 <0>         0.1326
     42 H14         2.1019    1.2233   -0.0094 H         1 <0>         0.1334
     43 H15        -1.0036    5.8068   -0.0194 H         1 <0>         0.1667
     44 H16         1.1101    7.0189   -0.0845 H         1 <0>         0.1251
     45 H17         3.2517    5.8135   -0.1099 H         1 <0>         0.1252
     46 H18         3.3132    3.3782   -0.0708 H         1 <0>         0.1300
@<TRIPOS>BOND
     1    1    2 1
     2    1   30 1
     3    1   31 1
     4    1   32 1
     5    2    3 1
     6    3    4 2
     7    3    5 1
     8    5    6 1
     9    5    7 1
    10    5   17 1
    11    7    8 1
    12    7   33 1
    13    7   34 1
    14    8   13 ar
    15    8    9 ar
    16    9   10 ar
    17    9   35 1
    18   10   11 ar
    19   10   36 1
    20   11   12 ar
    21   11   14 1
    22   12   13 ar
    23   12   37 1
    24   13   38 1
    25   14   15 2
    26   14   16 1
    27   17   18 am
    28   17   39 1
    29   18   19 2
    30   18   20 1
    31   20   25 ar
    32   20   21 ar
    33   21   22 ar
    34   21   40 1
    35   22   23 ar
    36   22   41 1
    37   23   24 ar
    38   23   42 1
    39   24   29 ar
    40   24   25 ar
    41   25   26 ar
    42   26   27 ar
    43   26   43 1
    44   27   28 ar
    45   27   44 1
    46   28   29 ar
    47   28   45 1
    48   29   46 1
@<TRIPOS>MOLECULE
ZINC01701869
   42    43     0     0     0
SMALL
USER_CHARGES

@<TRIPOS>ATOM
      1 C1         -0.0187    1.5258    0.0104 C.3       1 <0>        -0.1523
      2 C2          0.0021   -0.0041    0.0020 C.3       1 <0>         0.0599
      3 O1          0.6709   -0.4649   -1.1737 O.3       1 <0>        -0.3501
      4 C3          0.7755   -1.7935   -1.3341 C.2       1 <0>         0.4486
      5 O2          0.3143   -2.5404   -0.5039 O.2       1 <0>        -0.4920
      6 C4          1.4679   -2.3535   -2.5498 C.3       1 <0>         0.1654
      7 H1          2.4999   -2.0034   -2.5737 H         1 <0>         0.1322
      8 C5          0.7411   -1.8848   -3.8120 C.3       1 <0>        -0.0822
      9 C6          1.5028   -2.3419   -5.0293 C.ar      1 <0>        -0.0967
     10 C7          2.4879   -1.5363   -5.5698 C.ar      1 <0>        -0.0923
     11 C8          3.1873   -1.9529   -6.6860 C.ar      1 <0>        -0.1413
     12 C9          2.9007   -3.1809   -7.2643 C.ar      1 <0>         0.1079
     13 C10         1.9120   -3.9876   -6.7197 C.ar      1 <0>        -0.1416
     14 C11         1.2191   -3.5688   -5.6004 C.ar      1 <0>        -0.0941
     15 O3          3.5869   -3.5928   -8.3626 O.3       1 <0>        -0.5000
     16 N1          1.4501   -3.8172   -2.4911 N.am      1 <0>        -0.7056
     17 C12         2.4042   -4.4757   -1.8038 C.2       1 <0>         0.5703
     18 O4          3.2796   -3.8552   -1.2327 O.2       1 <0>        -0.5285
     19 C13         2.3862   -5.9529   -1.7446 C.ar      1 <0>        -0.1345
     20 C14         1.3858   -6.6687   -2.4041 C.ar      1 <0>        -0.0843
     21 C15         1.3750   -8.0469   -2.3452 C.ar      1 <0>        -0.1267
     22 C16         2.3527   -8.7197   -1.6340 C.ar      1 <0>        -0.0911
     23 C17         3.3470   -8.0162   -0.9776 C.ar      1 <0>        -0.1265
     24 C18         3.3729   -6.6379   -1.0337 C.ar      1 <0>        -0.0579
     25 H2          1.0039    1.9031    0.0027 H         1 <0>         0.0679
     26 H3         -0.5459    1.8868   -0.8726 H         1 <0>         0.0676
     27 H4         -0.5289    1.8773    0.9072 H         1 <0>         0.0806
     28 H5          0.5293   -0.3651    0.8851 H         1 <0>         0.0680
     29 H6         -1.0205   -0.3814    0.0098 H         1 <0>         0.0680
     30 H7         -0.2631   -2.3083   -3.8314 H         1 <0>         0.0879
     31 H8          0.6766   -0.7967   -3.8112 H         1 <0>         0.1088
     32 H9          2.7107   -0.5804   -5.1193 H         1 <0>         0.1312
     33 H10         3.9562   -1.3229   -7.1082 H         1 <0>         0.1309
     34 H11         1.6871   -4.9440   -7.1681 H         1 <0>         0.1300
     35 H12         0.4525   -4.1983   -5.1735 H         1 <0>         0.1233
     36 H13         4.3868   -4.0972   -8.1604 H         1 <0>         0.3928
     37 H14         0.7515   -4.3124   -2.9469 H         1 <0>         0.4054
     38 H15         0.6216   -6.1447   -2.9590 H         1 <0>         0.1235
     39 H16         0.6015   -8.6020   -2.8551 H         1 <0>         0.1305
     40 H17         2.3396   -9.7987   -1.5907 H         1 <0>         0.1291
     41 H18         4.1071   -8.5473   -0.4239 H         1 <0>         0.1317
     42 H19         4.1523   -6.0901   -0.5249 H         1 <0>         0.1365
@<TRIPOS>BOND
     1    1    2 1
     2    1   25 1
     3    1   26 1
     4    1   27 1
     5    2    3 1
     6    2   28 1
     7    2   29 1
     8    3    4 1
     9    4    5 2
    10    4    6 1
    11    6    7 1
    12    6    8 1
    13    6   16 1
    14    8    9 1
    15    8   30 1
    16    8   31 1
    17    9   14 ar
    18    9   10 ar
    19   10   11 ar
    20   10   32 1
    21   11   12 ar
    22   11   33 1
    23   12   13 ar
    24   12   15 1
    25   13   14 ar
    26   13   34 1
    27   14   35 1
    28   15   36 1
    29   16   17 am
    30   16   37 1
    31   17   18 2
    32   17   19 1
    33   19   24 ar
    34   19   20 ar
    35   20   21 ar
    36   20   38 1
    37   21   22 ar
    38   21   39 1
    39   22   23 ar
    40   22   40 1
    41   23   24 ar
    42   23   41 1
    43   24   42 1
@<TRIPOS>MOLECULE
ZINC03089782
   41    42     0     0     0
SMALL
USER_CHARGES
ethyl 2-benzoylamino-3-phenyl-propanoate
@<TRIPOS>ATOM
      1 C1         -7.7477    3.8644   -0.1676 C.3       1 <0>        -0.1531
      2 C2         -6.7048    4.7570   -0.8433 C.3       1 <0>         0.0619
      3 O1         -5.4130    4.0945   -0.8206 O.3       1 <0>        -0.3555
      4 C3         -4.3823    4.7494   -1.3779 C.2       1 <0>         0.4495
      5 O2         -4.5540    5.8402   -1.8685 O.2       1 <0>        -0.4939
      6 C4         -3.0112    4.1243   -1.3917 C.3       1 <0>         0.1654
      7 H1         -3.0478    3.1801   -1.9349 H         1 <0>         0.1316
      8 C5         -2.5528    3.8685    0.0455 C.3       1 <0>        -0.0830
      9 C6         -1.2377    3.1328    0.0299 C.ar      1 <0>        -0.0878
     10 C7         -1.2190    1.7507    0.0173 C.ar      1 <0>        -0.1103
     11 C8         -0.0126    1.0758    0.0080 C.ar      1 <0>        -0.1158
     12 C9          1.1750    1.7832    0.0004 C.ar      1 <0>        -0.1178
     13 C10         1.1563    3.1654    0.0076 C.ar      1 <0>        -0.1163
     14 C11        -0.0501    3.8402    0.0223 C.ar      1 <0>        -0.1117
     15 N1         -2.0679    5.0308   -2.0510 N.am      1 <0>        -0.7050
     16 C12        -1.9462    5.0170   -3.3932 C.2       1 <0>         0.5703
     17 O3         -2.6191    4.2524   -4.0566 O.2       1 <0>        -0.5289
     18 C13        -0.9942    5.9317   -4.0586 C.ar      1 <0>        -0.1340
     19 C14        -0.2242    6.8149   -3.3002 C.ar      1 <0>        -0.0840
     20 C15         0.6661    7.6622   -3.9269 C.ar      1 <0>        -0.1269
     21 C16         0.7885    7.6455   -5.3050 C.ar      1 <0>        -0.0914
     22 C17         0.0240    6.7764   -6.0631 C.ar      1 <0>        -0.1266
     23 C18        -0.8658    5.9200   -5.4484 C.ar      1 <0>        -0.0579
     24 H2         -7.8159    2.9167   -0.7019 H         1 <0>         0.0681
     25 H3         -7.4527    3.6787    0.8652 H         1 <0>         0.0677
     26 H4         -8.7175    4.3617   -0.1847 H         1 <0>         0.0812
     27 H5         -6.6367    5.7046   -0.3090 H         1 <0>         0.0706
     28 H6         -6.9998    4.9426   -1.8761 H         1 <0>         0.0706
     29 H7         -3.2997    3.2667    0.5633 H         1 <0>         0.1074
     30 H8         -2.4307    4.8201    0.5628 H         1 <0>         0.0866
     31 H9         -2.1469    1.1980    0.0188 H         1 <0>         0.1255
     32 H10         0.0021   -0.0041    0.0020 H         1 <0>         0.1240
     33 H11         2.1175    1.2560   -0.0115 H         1 <0>         0.1224
     34 H12         2.0841    3.7181    0.0014 H         1 <0>         0.1231
     35 H13        -0.0647    4.9201    0.0276 H         1 <0>         0.1178
     36 H14        -1.5309    5.6409   -1.5216 H         1 <0>         0.4053
     37 H15        -0.3221    6.8320   -2.2248 H         1 <0>         0.1234
     38 H16         1.2657    8.3429   -3.3409 H         1 <0>         0.1303
     39 H17         1.4842    8.3135   -5.7911 H         1 <0>         0.1290
     40 H18         0.1244    6.7684   -7.1384 H         1 <0>         0.1317
     41 H19        -1.4619    5.2421   -6.0413 H         1 <0>         0.1365
@<TRIPOS>BOND
     1    1    2 1
     2    1   24 1
     3    1   25 1
     4    1   26 1
     5    2    3 1
     6    2   27 1
     7    2   28 1
     8    3    4 1
     9    4    5 2
    10    4    6 1
    11    6    7 1
    12    6    8 1
    13    6   15 1
    14    8    9 1
    15    8   29 1
    16    8   30 1
    17    9   14 ar
    18    9   10 ar
    19   10   11 ar
    20   10   31 1
    21   11   12 ar
    22   11   32 1
    23   12   13 ar
    24   12   33 1
    25   13   14 ar
    26   13   34 1
    27   14   35 1
    28   15   16 am
    29   15   36 1
    30   16   17 2
    31   16   18 1
    32   18   23 ar
    33   18   19 ar
    34   19   20 ar
    35   19   37 1
    36   20   21 ar
    37   20   38 1
    38   21   22 ar
    39   21   39 1
    40   22   23 ar
    41   22   40 1
    42   23   41 1
@<TRIPOS>MOLECULE
ZINC05460138
   45    47     0     0     0
SMALL
USER_CHARGES
ethyl 2-benzoylamino-3-(1H-indol-3-yl)propanoate
@<TRIPOS>ATOM
      1 C1          1.0475    3.5287    0.0110 C.3       1 <0>        -0.1528
      2 C2          1.2685    2.0148    0.0008 C.3       1 <0>         0.0616
      3 O1         -0.0161    1.3381    0.0094 O.3       1 <0>        -0.3558
      4 C3          0.0021   -0.0041    0.0020 C.2       1 <0>         0.4487
      5 O2          1.0565   -0.5939   -0.0112 O.2       1 <0>        -0.4951
      6 C4         -1.2926   -0.7753    0.0102 C.3       1 <0>         0.1645
      7 H1         -1.8762   -0.5150   -0.8728 H         1 <0>         0.1296
      8 C5         -2.0879   -0.4233    1.2690 C.3       1 <0>        -0.0444
      9 C6         -3.4341   -1.0986    1.2179 C.2       1 <0>        -0.1808
     10 C7         -4.5810   -0.5607    0.7737 C.2       1 <0>         0.0707
     11 N1         -5.5958   -1.4724    0.8795 N.pl3     1 <0>        -0.5928
     12 H2         -6.5170   -1.3133    0.6209 H         1 <0>         0.4181
     13 C8         -5.1145   -2.6493    1.4079 C.ar      1 <0>         0.0952
     14 C9         -3.7381   -2.4688    1.6376 C.ar      1 <0>        -0.0925
     15 C10        -2.9808   -3.5076    2.1818 C.ar      1 <0>        -0.0808
     16 C11        -3.5792   -4.6997    2.4792 C.ar      1 <0>        -0.1369
     17 C12        -4.9353   -4.8846    2.2492 C.ar      1 <0>        -0.0989
     18 C13        -5.7026   -3.8710    1.7178 C.ar      1 <0>        -0.1248
     19 N2         -1.0054   -2.2118   -0.0002 N.am      1 <0>        -0.7011
     20 C14        -0.7847   -2.8464   -1.1686 C.2       1 <0>         0.5700
     21 O3         -0.8239   -2.2268   -2.2136 O.2       1 <0>        -0.5324
     22 C15        -0.4948   -4.2961   -1.1791 C.ar      1 <0>        -0.1330
     23 C16        -0.4434   -5.0094    0.0195 C.ar      1 <0>        -0.0814
     24 C17        -0.1776   -6.3630    0.0023 C.ar      1 <0>        -0.1259
     25 C18         0.0485   -7.0114   -1.1988 C.ar      1 <0>        -0.0919
     26 C19         0.0046   -6.3091   -2.3901 C.ar      1 <0>        -0.1275
     27 C20        -0.2658   -4.9563   -2.3873 C.ar      1 <0>        -0.0587
     28 H3          0.4781    3.8188   -0.8720 H         1 <0>         0.0676
     29 H4          0.4951    3.8092    0.9078 H         1 <0>         0.0675
     30 H5          2.0118    4.0368    0.0045 H         1 <0>         0.0806
     31 H6          1.8379    1.7248    0.8838 H         1 <0>         0.0703
     32 H7          1.8209    1.7343   -0.8960 H         1 <0>         0.0701
     33 H8         -1.5436   -0.7641    2.1498 H         1 <0>         0.0828
     34 H9         -2.2250    0.6567    1.3221 H         1 <0>         0.1046
     35 H10        -4.6870    0.4432    0.3899 H         1 <0>         0.1736
     36 H11        -1.9250   -3.3710    2.3632 H         1 <0>         0.1127
     37 H12        -2.9920   -5.5044    2.8964 H         1 <0>         0.1233
     38 H13        -5.3938   -5.8327    2.4888 H         1 <0>         0.1257
     39 H14        -6.7571   -4.0248    1.5421 H         1 <0>         0.1201
     40 H15        -0.9742   -2.7062    0.8337 H         1 <0>         0.4041
     41 H16        -0.6154   -4.5035    0.9581 H         1 <0>         0.1218
     42 H17        -0.1419   -6.9169    0.9287 H         1 <0>         0.1300
     43 H18         0.2599   -8.0705   -1.2066 H         1 <0>         0.1282
     44 H19         0.1820   -6.8212   -3.3243 H         1 <0>         0.1307
     45 H20        -0.2998   -4.4093   -3.3179 H         1 <0>         0.1355
@<TRIPOS>BOND
     1    1    2 1
     2    1   28 1
     3    1   29 1
     4    1   30 1
     5    2    3 1
     6    2   31 1
     7    2   32 1
     8    3    4 1
     9    4    5 2
    10    4    6 1
    11    6    7 1
    12    6    8 1
    13    6   19 1
    14    8    9 1
    15    8   33 1
    16    8   34 1
    17    9   14 1
    18    9   10 2
    19   10   11 1
    20   10   35 1
    21   11   12 1
    22   11   13 1
    23   13   18 ar
    24   13   14 ar
    25   14   15 ar
    26   15   16 ar
    27   15   36 1
    28   16   17 ar
    29   16   37 1
    30   17   18 ar
    31   17   38 1
    32   18   39 1
    33   19   20 am
    34   19   40 1
    35   20   21 2
    36   20   22 1
    37   22   27 ar
    38   22   23 ar
    39   23   24 ar
    40   23   41 1
    41   24   25 ar
    42   24   42 1
    43   25   26 ar
    44   25   43 1
    45   26   27 ar
    46   26   44 1
    47   27   45 1
@<TRIPOS>MOLECULE
ZINC03991118
   62    65     0     0     0
SMALL
USER_CHARGES

@<TRIPOS>ATOM
      1 C1         -0.5721    3.9401   11.0033 C.ar      1 <0>        -0.1046
      2 C2          0.4886    3.0549   11.0491 C.ar      1 <0>        -0.1112
      3 C3          1.1026    2.6507    9.8784 C.ar      1 <0>        -0.0985
      4 C4          0.6561    3.1321    8.6619 C.ar      1 <0>        -0.0928
      5 C5         -0.4010    4.0217    8.6165 C.ar      1 <0>        -0.1111
      6 C6         -1.0183    4.4218    9.7869 C.ar      1 <0>        -0.1147
      7 C7          1.3257    2.6918    7.3857 C.3       1 <0>         0.1385
      8 C8          0.7113    3.4421    6.2023 C.3       1 <0>        -0.1060
      9 C9          1.4231    3.0300    4.9121 C.3       1 <0>        -0.1615
     10 C10         0.7604    3.7236    3.7202 C.3       1 <0>        -0.0024
     11 C11         0.6968    3.7802    1.3008 C.3       1 <0>         0.0030
     12 C12         1.5067    3.4803    0.0374 C.3       1 <0>        -0.1350
     13 C13         1.7706    1.9745   -0.0484 C.3       1 <0>         0.1755
     14 C14         2.5068    1.5205    1.2151 C.3       1 <0>        -0.1710
     15 C15         1.6679    1.8771    2.4444 C.3       1 <0>        -0.0056
     16 C16         2.6174    1.6798   -1.2596 C.ar      1 <0>        -0.1259
     17 C17         3.5119    2.6260   -1.7240 C.ar      1 <0>        -0.1006
     18 C18         4.2929    2.3541   -2.8315 C.ar      1 <0>        -0.1042
     19 C19         4.1713    1.1391   -3.4819 C.ar      1 <0>        -0.0247
     20 C20         3.2719    0.1947   -3.0200 C.ar      1 <0>        -0.1017
     21 C21         2.4955    0.4656   -1.9091 C.ar      1 <0>        -0.0932
     22 Cl1         5.1473    0.7994   -4.8768 Cl        1 <0>        -0.0502
     23 O1          0.5277    1.2771   -0.1535 O.3       1 <0>        -0.5472
     24 C22         2.7658    2.9875    7.4599 C.1       1 <0>         0.2071
     25 N1          3.8772    3.2157    7.5171 N.1       1 <0>        -0.4036
     26 C23         1.1261    1.2098    7.1991 C.ar      1 <0>        -0.0857
     27 C24         2.2191    0.3819    7.0231 C.ar      1 <0>        -0.1190
     28 C25         2.0363   -0.9782    6.8568 C.ar      1 <0>        -0.1121
     29 C26         0.7600   -1.5091    6.8564 C.ar      1 <0>        -0.1084
     30 C27        -0.3333   -0.6805    7.0267 C.ar      1 <0>        -0.1112
     31 C28        -0.1502    0.6789    7.1983 C.ar      1 <0>        -0.0968
     32 H1         -1.0521    4.2556   11.9179 H         1 <0>         0.1288
     33 H2          0.8374    2.6788   11.9995 H         1 <0>         0.1286
     34 H3          1.9313    1.9591    9.9142 H         1 <0>         0.1197
     35 H4         -0.7469    4.4012    7.6664 H         1 <0>         0.1291
     36 H5         -1.8468    5.1137    9.7511 H         1 <0>         0.1295
     37 H6          0.8259    4.5155    6.3536 H         1 <0>         0.0943
     38 H7         -0.3481    3.1969    6.1270 H         1 <0>         0.1039
     39 H8          1.3538    1.9493    4.7882 H         1 <0>         0.0997
     40 H9          2.4716    3.3231    4.9661 H         1 <0>         0.0861
     41 H10         0.8297    4.8043    3.8441 H         1 <0>         0.1319
     42 H11        -0.2881    3.4306    3.6662 H         1 <0>         0.1362
     43 H12         0.5194    4.8533    1.3724 H         1 <0>         0.1320
     44 H13        -0.2581    3.2567    1.2529 H         1 <0>         0.1404
     45 H14         2.4560    4.0144    0.0784 H         1 <0>         0.1037
     46 H15         0.9451    3.8019   -0.8397 H         1 <0>         0.1238
     47 H16         2.6597    0.4418    1.1794 H         1 <0>         0.1166
     48 H17         3.4718    2.0237    1.2747 H         1 <0>         0.0997
     49 H18         2.1958    1.5681    3.3465 H         1 <0>         0.1335
     50 H19         0.7084    1.3627    2.3908 H         1 <0>         0.1384
     51 H20         3.6036    3.5761   -1.2188 H         1 <0>         0.1331
     52 H21         4.9949    3.0917   -3.1916 H         1 <0>         0.1405
     53 H22         3.1768   -0.7540   -3.5272 H         1 <0>         0.1413
     54 H23         1.7936   -0.2717   -1.5482 H         1 <0>         0.1323
     55 H24         0.6196    0.3162   -0.2119 H         1 <0>         0.3906
     56 H25         3.2161    0.7973    7.0193 H         1 <0>         0.1181
     57 H26         2.8905   -1.6255    6.7234 H         1 <0>         0.1268
     58 H27         0.6170   -2.5712    6.7227 H         1 <0>         0.1279
     59 H28        -1.3305   -1.0952    7.0261 H         1 <0>         0.1296
     60 H29        -1.0044    1.3263    7.3313 H         1 <0>         0.1283
     61 N2          1.4704    3.3419    2.4819 N.4       1 <0>        -0.3944
     62 H30         2.3881    3.8021    2.4684 H         1 <0>         0.4249
@<TRIPOS>BOND
     1    1    6 ar
     2    1    2 ar
     3    1   32 1
     4    2    3 ar
     5    2   33 1
     6    3    4 ar
     7    3   34 1
     8    4    5 ar
     9    4    7 1
    10    5    6 ar
    11    5   35 1
    12    6   36 1
    13    7    8 1
    14    7   24 1
    15    7   26 1
    16    8    9 1
    17    8   37 1
    18    8   38 1
    19    9   10 1
    20    9   39 1
    21    9   40 1
    22   10   41 1
    23   10   42 1
    24   10   61 1
    25   11   12 1
    26   11   43 1
    27   11   44 1
    28   11   61 1
    29   12   13 1
    30   12   45 1
    31   12   46 1
    32   13   14 1
    33   13   16 1
    34   13   23 1
    35   14   15 1
    36   14   47 1
    37   14   48 1
    38   15   49 1
    39   15   50 1
    40   15   61 1
    41   16   21 ar
    42   16   17 ar
    43   17   18 ar
    44   17   51 1
    45   18   19 ar
    46   18   52 1
    47   19   20 ar
    48   19   22 1
    49   20   21 ar
    50   20   53 1
    51   21   54 1
    52   23   55 1
    53   24   25 3
    54   26   31 ar
    55   26   27 ar
    56   27   28 ar
    57   27   56 1
    58   28   29 ar
    59   28   57 1
    60   29   30 ar
    61   29   58 1
    62   30   31 ar
    63   30   59 1
    64   31   60 1
    65   61   62 1
