@<TRIPOS>MOLECULE
ZINC13613346
   70    73     0     0     0
SMALL
USER_CHARGES
1-(5-acetyl-4-methyl-thiazol-2-yl)-3-[(1R,2S)-2-[[(3S)-3-[(4-fluorophenyl)methyl]-1-piperidyl]methyl]cyclohexyl]urea
@<TRIPOS>ATOM
      1 C1         -5.6728    3.5355   10.4423 C.3       1 <0>        -0.0985
      2 C2         -4.6582    2.4944   10.0451 C.2       1 <0>         0.1933
      3 C3         -3.7716    1.9589   10.9773 C.2       1 <0>        -0.3113
      4 S1         -2.8609    0.8186    9.9455 S.3       1 <0>         0.1442
      5 C4         -3.6901    1.1481    8.4559 C.2       1 <0>         0.3169
      6 N1         -4.5788    2.0630    8.8160 N.2       1 <0>        -0.5137
      7 N2         -3.4800    0.5913    7.2086 N.am      1 <0>        -0.6248
      8 C5         -4.2380    0.9759    6.1626 C.2       1 <0>         0.6890
      9 O1         -5.1064    1.8126    6.3164 O.2       1 <0>        -0.4745
     10 N3         -4.0331    0.4330    4.9462 N.am      1 <0>        -0.7457
     11 C6         -4.8570    0.8510    3.8092 C.3       1 <0>         0.1464
     12 H1         -5.0943    1.9108    3.9027 H         1 <0>         0.1167
     13 C7         -6.1528    0.0378    3.7921 C.3       1 <0>        -0.1315
     14 C8         -7.0133    0.4744    2.6047 C.3       1 <0>        -0.1229
     15 C9         -6.2447    0.2367    1.3032 C.3       1 <0>        -0.1247
     16 C10        -4.9489    1.0500    1.3204 C.3       1 <0>        -0.1077
     17 C11        -4.0884    0.6134    2.5078 C.3       1 <0>        -0.1184
     18 H2         -3.8511   -0.4464    2.4143 H         1 <0>         0.1014
     19 C12        -2.7926    1.4266    2.5249 C.3       1 <0>        -0.0042
     20 C13        -1.3448   -0.3944    3.1945 C.3       1 <0>        -0.0167
     21 C14        -0.5437   -0.9679    4.3656 C.3       1 <0>        -0.1472
     22 C15         0.5823    0.0038    4.7329 C.3       1 <0>        -0.1376
     23 C16        -0.0241    1.3672    5.0765 C.3       1 <0>        -0.1063
     24 H3         -0.6734    1.2679    5.9463 H         1 <0>         0.0863
     25 C17        -0.8401    1.8730    3.8848 C.3       1 <0>        -0.0032
     26 C18         1.0969    2.3613    5.3868 C.3       1 <0>        -0.0692
     27 C19         1.8243    1.9254    6.6325 C.ar      1 <0>        -0.1091
     28 C20         1.4045    2.3751    7.8705 C.ar      1 <0>        -0.0849
     29 C21         2.0679    1.9722    9.0140 C.ar      1 <0>        -0.1488
     30 C22         3.1598    1.1261    8.9185 C.ar      1 <0>         0.1092
     31 C23         3.5825    0.6806    7.6776 C.ar      1 <0>        -0.1504
     32 C24         2.9144    1.0806    6.5359 C.ar      1 <0>        -0.0842
     33 F1          3.8119    0.7354   10.0353 F         1 <0>        -0.1325
     34 C25        -3.6351    2.2352   12.3519 C.2       1 <0>         0.4350
     35 O2         -4.3618    3.0514   12.8826 O.2       1 <0>        -0.4405
     36 C26        -2.5875    1.5183   13.1641 C.3       1 <0>        -0.1890
     37 H4         -6.5941    3.0442   10.7553 H         1 <0>         0.0902
     38 H5         -5.2797    4.1299   11.2671 H         1 <0>         0.1003
     39 H6         -5.8785    4.1855    9.5918 H         1 <0>         0.0817
     40 H7         -2.7871   -0.0763    7.0859 H         1 <0>         0.4219
     41 H8         -3.3401   -0.2346    4.8235 H         1 <0>         0.3858
     42 H9         -6.7004    0.2071    4.7192 H         1 <0>         0.0818
     43 H10        -5.9155   -1.0220    3.6986 H         1 <0>         0.0717
     44 H11        -7.2506    1.5341    2.6981 H         1 <0>         0.0725
     45 H12        -7.9365   -0.1050    2.5924 H         1 <0>         0.0786
     46 H13        -6.8577    0.5478    0.4573 H         1 <0>         0.0807
     47 H14        -6.0074   -0.8230    1.2097 H         1 <0>         0.0694
     48 H15        -5.1862    2.1097    1.4138 H         1 <0>         0.0813
     49 H16        -4.4013    0.8806    0.3932 H         1 <0>         0.0849
     50 H17        -3.0228    2.4727    2.7269 H         1 <0>         0.1320
     51 H18        -2.2987    1.3436    1.5568 H         1 <0>         0.1388
     52 H19        -2.1556   -1.0770    2.9402 H         1 <0>         0.1264
     53 H20        -0.6897   -0.2715    2.3320 H         1 <0>         0.1378
     54 H21        -1.2013   -1.1039    5.2242 H         1 <0>         0.0746
     55 H22        -0.1160   -1.9284    4.0782 H         1 <0>         0.1198
     56 H23         1.2618    0.1101    3.8873 H         1 <0>         0.0892
     57 H24         1.1288   -0.3794    5.5946 H         1 <0>         0.1011
     58 H25        -1.2845    2.8372    4.1319 H         1 <0>         0.1269
     59 H26        -0.1875    1.9851    3.0190 H         1 <0>         0.1349
     60 H27         1.7955    2.3937    4.5507 H         1 <0>         0.0889
     61 H28         0.6708    3.3523    5.5428 H         1 <0>         0.0863
     62 H29         0.5554    3.0383    7.9444 H         1 <0>         0.1302
     63 H30         1.7372    2.3204    9.9814 H         1 <0>         0.1395
     64 H31         4.4339    0.0203    7.6019 H         1 <0>         0.1399
     65 H32         3.2442    0.7335    5.5679 H         1 <0>         0.1333
     66 H33        -1.7354    2.0413   13.1451 H         1 <0>         0.0904
     67 H34        -2.9307    1.4200   14.1940 H         1 <0>         0.0983
     68 H35        -2.4155    0.5280   12.7424 H         1 <0>         0.0792
     69 N4         -1.9210    0.9057    3.5983 N.4       1 <0>        -0.4126
     70 H36        -2.4820    0.7719    4.4478 H         1 <0>         0.4031
@<TRIPOS>BOND
     1    1    2 1
     2    1   37 1
     3    1   38 1
     4    1   39 1
     5    2    6 1
     6    2    3 2
     7    3    4 1
     8    3   34 1
     9    4    5 1
    10    5    6 2
    11    5    7 1
    12    7    8 am
    13    7   40 1
    14    8    9 2
    15    8   10 am
    16   10   11 1
    17   10   41 1
    18   11   12 1
    19   11   17 1
    20   11   13 1
    21   13   14 1
    22   13   42 1
    23   13   43 1
    24   14   15 1
    25   14   44 1
    26   14   45 1
    27   15   16 1
    28   15   46 1
    29   15   47 1
    30   16   17 1
    31   16   48 1
    32   16   49 1
    33   17   18 1
    34   17   19 1
    35   19   50 1
    36   19   51 1
    37   19   69 1
    38   20   21 1
    39   20   52 1
    40   20   53 1
    41   20   69 1
    42   21   22 1
    43   21   54 1
    44   21   55 1
    45   22   23 1
    46   22   56 1
    47   22   57 1
    48   23   24 1
    49   23   25 1
    50   23   26 1
    51   25   58 1
    52   25   59 1
    53   25   69 1
    54   26   27 1
    55   26   60 1
    56   26   61 1
    57   27   32 ar
    58   27   28 ar
    59   28   29 ar
    60   28   62 1
    61   29   30 ar
    62   29   63 1
    63   30   31 ar
    64   30   33 1
    65   31   32 ar
    66   31   64 1
    67   32   65 1
    68   34   35 2
    69   34   36 1
    70   36   66 1
    71   36   67 1
    72   36   68 1
    73   69   70 1
@<TRIPOS>MOLECULE
ZINC03979252
   73    77     0     0     0
SMALL
USER_CHARGES
2,7-dichloro-N-[1-(1-cyclooctenylmethyl)-1-ethyl-3,4,5,6-tetrahydro-2H-pyridin-4-yl]-9H-xanthene-9-carboxamide
@<TRIPOS>ATOM
      1 C1          2.3543   10.0887   -4.0201 C.3       1 <0>        -0.1888
      2 C2          1.3098    8.9858   -4.2035 C.3       1 <0>        -0.0204
      3 N1          1.7784    8.0312   -5.2169 N.4       1 <0>        -0.2601
      4 C3          0.7745    6.9751   -5.3934 C.3       1 <0>        -0.0101
      5 C4          0.5039    6.2937   -4.0503 C.3       1 <0>        -0.1561
      6 C5          1.8047    5.6808   -3.5238 C.3       1 <0>         0.1389
      7 C6          2.8684    6.7770   -3.4145 C.3       1 <0>        -0.1611
      8 C7          3.0500    7.4418   -4.7809 C.3       1 <0>        -0.0218
      9 N2          1.5697    5.0928   -2.2027 N.am      1 <0>        -0.7272
     10 C8          2.3606    4.0960   -1.7584 C.2       1 <0>         0.5285
     11 O1          3.2668    3.6858   -2.4522 O.2       1 <0>        -0.5047
     12 C9          2.1188    3.4911   -0.3994 C.3       1 <0>        -0.0093
     13 H1          2.2242    4.2641    0.3619 H         1 <0>         0.1270
     14 C10         0.7237    2.9311   -0.3464 C.ar      1 <0>        -0.1438
     15 C11        -0.3466    3.7925   -0.1815 C.ar      1 <0>        -0.0776
     16 C12        -1.6369    3.2980   -0.1318 C.ar      1 <0>        -0.0542
     17 C13        -1.8618    1.9379   -0.2524 C.ar      1 <0>        -0.0658
     18 C14        -0.7969    1.0742   -0.4105 C.ar      1 <0>        -0.1134
     19 C15         0.5016    1.5686   -0.4609 C.ar      1 <0>         0.1382
     20 O2          1.5322    0.7042   -0.6215 O.3       1 <0>        -0.2335
     21 C16         2.7888    1.0722   -0.2739 C.ar      1 <0>         0.1299
     22 C17         3.1331    2.4083   -0.1508 C.ar      1 <0>        -0.1244
     23 C18         4.4243    2.7575    0.2035 C.ar      1 <0>        -0.0554
     24 C19         5.3715    1.7774    0.4368 C.ar      1 <0>        -0.0529
     25 C20         5.0294    0.4421    0.3160 C.ar      1 <0>        -0.0669
     26 C21         3.7430    0.0889   -0.0379 C.ar      1 <0>        -0.1162
     27 Cl1         6.9898    2.2222    0.8805 Cl        1 <0>        -0.0544
     28 Cl2        -2.9753    4.3841    0.0747 Cl        1 <0>        -0.0534
     29 C22         1.9789    8.7323   -6.4922 C.3       1 <0>         0.0063
     30 C23         2.5843    7.7855   -7.4962 C.2       1 <0>        -0.1678
     31 C24         1.6927    7.1930   -8.2076 C.2       1 <0>        -0.0779
     32 C25         2.0349    6.2896   -9.3705 C.3       1 <0>        -0.1136
     33 C26         2.4035    4.9020   -8.8408 C.3       1 <0>        -0.1203
     34 C27         3.1644    4.9954   -7.5260 C.3       1 <0>        -0.1317
     35 C28         4.5945    5.3729   -7.8657 C.3       1 <0>        -0.1273
     36 C29         4.6741    6.7881   -8.4427 C.3       1 <0>        -0.1376
     37 C30         4.0681    7.7575   -7.4217 C.3       1 <0>        -0.0950
     38 H2          2.0320   10.7666   -3.2297 H         1 <0>         0.1051
     39 H3          3.3106    9.6419   -3.7480 H         1 <0>         0.0805
     40 H4          2.4644   10.6433   -4.9519 H         1 <0>         0.0817
     41 H5          0.3680    9.4278   -4.5286 H         1 <0>         0.1284
     42 H6          1.1599    8.4664   -3.2570 H         1 <0>         0.1304
     43 H7          1.1445    6.2381   -6.1062 H         1 <0>         0.1341
     44 H8         -0.1496    7.4129   -5.7710 H         1 <0>         0.1333
     45 H9         -0.2405    5.5087   -4.1838 H         1 <0>         0.1193
     46 H10         0.1335    7.0299   -3.3368 H         1 <0>         0.0957
     47 H11         2.1476    4.9074   -4.2112 H         1 <0>         0.1064
     48 H12         2.5484    7.5235   -2.6875 H         1 <0>         0.0919
     49 H13         3.8128    6.3372   -3.0940 H         1 <0>         0.1165
     50 H14         3.3716    6.6948   -5.5067 H         1 <0>         0.1432
     51 H15         3.8057    8.2238   -4.7059 H         1 <0>         0.1345
     52 H16         0.8449    5.4208   -1.6478 H         1 <0>         0.4039
     53 H17        -0.1735    4.8547   -0.0917 H         1 <0>         0.1365
     54 H18        -2.8699    1.5520   -0.2180 H         1 <0>         0.1514
     55 H19        -0.9730    0.0124   -0.4997 H         1 <0>         0.1527
     56 H20         4.6933    3.7992    0.2984 H         1 <0>         0.1371
     57 H21         5.7688   -0.3236    0.4989 H         1 <0>         0.1503
     58 H22         3.4770   -0.9536   -0.1321 H         1 <0>         0.1505
     59 H23         1.0193    9.0914   -6.8641 H         1 <0>         0.1292
     60 H24         2.6493    9.5782   -6.3403 H         1 <0>         0.1352
     61 H25         0.6520    7.3509   -7.9659 H         1 <0>         0.1192
     62 H26         2.8796    6.7051   -9.9199 H         1 <0>         0.0948
     63 H27         1.1742    6.2083  -10.0344 H         1 <0>         0.0812
     64 H28         3.0249    4.3925   -9.5772 H         1 <0>         0.0764
     65 H29         1.4915    4.3257   -8.6851 H         1 <0>         0.0642
     66 H30         3.1453    4.0322   -7.0162 H         1 <0>         0.0706
     67 H31         2.7183    5.7616   -6.8919 H         1 <0>         0.0596
     68 H32         4.9857    4.6665   -8.5978 H         1 <0>         0.0702
     69 H33         5.2015    5.3213   -6.9618 H         1 <0>         0.0604
     70 H34         4.1115    6.8372   -9.3750 H         1 <0>         0.0882
     71 H35         5.7156    7.0520   -8.6268 H         1 <0>         0.0745
     72 H36         4.4519    8.7596   -7.6128 H         1 <0>         0.0843
     73 H37         4.3672    7.4499   -6.4196 H         1 <0>         0.0822
@<TRIPOS>BOND
     1    1    2 1
     2    1   38 1
     3    1   39 1
     4    1   40 1
     5    2    3 1
     6    2   41 1
     7    2   42 1
     8    3    8 1
     9    3    4 1
    10    3   29 1
    11    4    5 1
    12    4   43 1
    13    4   44 1
    14    5    6 1
    15    5   45 1
    16    5   46 1
    17    6    7 1
    18    6    9 1
    19    6   47 1
    20    7    8 1
    21    7   48 1
    22    7   49 1
    23    8   50 1
    24    8   51 1
    25    9   10 am
    26    9   52 1
    27   10   11 2
    28   10   12 1
    29   12   13 1
    30   12   22 1
    31   12   14 1
    32   14   19 ar
    33   14   15 ar
    34   15   16 ar
    35   15   53 1
    36   16   17 ar
    37   16   28 1
    38   17   18 ar
    39   17   54 1
    40   18   19 ar
    41   18   55 1
    42   19   20 1
    43   20   21 1
    44   21   26 ar
    45   21   22 ar
    46   22   23 ar
    47   23   24 ar
    48   23   56 1
    49   24   25 ar
    50   24   27 1
    51   25   26 ar
    52   25   57 1
    53   26   58 1
    54   29   30 1
    55   29   59 1
    56   29   60 1
    57   30   37 1
    58   30   31 2
    59   31   32 1
    60   31   61 1
    61   32   33 1
    62   32   62 1
    63   32   63 1
    64   33   34 1
    65   33   64 1
    66   33   65 1
    67   34   35 1
    68   34   66 1
    69   34   67 1
    70   35   36 1
    71   35   68 1
    72   35   69 1
    73   36   37 1
    74   36   70 1
    75   36   71 1
    76   37   72 1
    77   37   73 1
@<TRIPOS>MOLECULE
ZINC13862637
   73    77     0     0     0
SMALL
USER_CHARGES

@<TRIPOS>ATOM
      1 C1          0.2535    1.1684   -0.3634 C.3       1 <0>        -0.1883
      2 C2          0.0753   -0.3398   -0.1781 C.3       1 <0>        -0.0177
      3 N1         -1.3422   -0.6391    0.0655 N.4       1 <0>        -0.2555
      4 C3         -1.7714    0.0116    1.3092 C.3       1 <0>        -0.0099
      5 C4         -0.8835   -0.4535    2.4654 C.3       1 <0>        -0.1572
      6 C5         -1.0034   -1.9729    2.6147 C.3       1 <0>         0.1395
      7 C6         -0.6246   -2.6377    1.2882 C.3       1 <0>        -0.1596
      8 C7         -1.5220   -2.0917    0.1756 C.3       1 <0>        -0.0029
      9 N2         -0.0983   -2.4344    3.6701 N.am      1 <0>        -0.7274
     10 C8         -0.3598   -3.5810    4.3284 C.2       1 <0>         0.5288
     11 O1         -1.3445   -4.2308    4.0470 O.2       1 <0>        -0.5056
     12 C9          0.5713   -4.0557    5.4141 C.3       1 <0>        -0.0095
     13 C10         0.6586   -3.0061    6.4887 C.ar      1 <0>        -0.1436
     14 C11         1.4467   -1.8878    6.2820 C.ar      1 <0>        -0.0774
     15 C12         1.5405   -0.9125    7.2578 C.ar      1 <0>        -0.0540
     16 C13         0.8448   -1.0530    8.4457 C.ar      1 <0>        -0.0659
     17 C14         0.0569   -2.1667    8.6562 C.ar      1 <0>        -0.1133
     18 C15        -0.0398   -3.1484    7.6766 C.ar      1 <0>         0.1375
     19 O2         -0.8165   -4.2352    7.9035 O.3       1 <0>        -0.2335
     20 C16        -0.6122   -5.3731    7.1971 C.ar      1 <0>         0.1295
     21 C17         0.0539   -5.3491    5.9826 C.ar      1 <0>        -0.1240
     22 C18         0.2497   -6.5250    5.2803 C.ar      1 <0>        -0.0559
     23 C19        -0.2176   -7.7239    5.7863 C.ar      1 <0>        -0.0527
     24 C20        -0.8834   -7.7505    6.9990 C.ar      1 <0>        -0.0671
     25 C21        -1.0808   -6.5798    7.7038 C.ar      1 <0>        -0.1160
     26 Cl1         0.0303   -9.1957    4.8998 Cl        1 <0>        -0.0544
     27 Cl2         2.5317    0.4879    6.9929 Cl        1 <0>        -0.0534
     28 C22        -2.1476   -0.1309   -1.0529 C.3       1 <0>         0.0207
     29 C23        -3.5846   -0.5448   -0.8659 C.2       1 <0>        -0.1954
     30 C24        -3.9924   -1.6057   -1.4170 C.2       1 <0>        -0.0907
     31 C25        -3.4702   -2.0649   -2.7536 C.3       1 <0>        -0.1032
     32 C26        -4.5105   -1.3831   -3.6807 C.3       1 <0>        -0.1201
     33 C27        -4.5873    0.1260   -3.3637 C.3       1 <0>        -0.1206
     34 C28        -5.6303    0.4255   -2.2884 C.3       1 <0>        -0.1249
     35 C29        -5.0377    1.2608   -1.1333 C.3       1 <0>        -0.1163
     36 C30        -4.4881    0.3162   -0.0227 C.3       1 <0>        -0.0861
     37 H1          1.3108    1.3953   -0.5002 H         1 <0>         0.1047
     38 H2         -0.3047    1.4951   -1.2408 H         1 <0>         0.0809
     39 H3         -0.1187    1.6894    0.5187 H         1 <0>         0.0801
     40 H4          0.4066   -0.8581   -1.0779 H         1 <0>         0.1272
     41 H5          0.6686   -0.6739    0.6730 H         1 <0>         0.1312
     42 H6         -1.6885    1.0930    1.2003 H         1 <0>         0.1340
     43 H7         -2.8078   -0.2532    1.5183 H         1 <0>         0.1364
     44 H8          0.1532   -0.1889    2.2574 H         1 <0>         0.0949
     45 H9         -1.2050    0.0294    3.3882 H         1 <0>         0.1183
     46 H10        -2.0297   -2.2338    2.8732 H         1 <0>         0.1062
     47 H11         0.4176   -2.4185    1.0558 H         1 <0>         0.0904
     48 H12        -0.7609   -3.7161    1.3696 H         1 <0>         0.1156
     49 H13        -2.5638   -2.3117    0.4089 H         1 <0>         0.1323
     50 H14        -1.2551   -2.5632   -0.7702 H         1 <0>         0.1285
     51 H15         0.6892   -1.9147    3.8952 H         1 <0>         0.4039
     52 H16         1.5631   -4.2187    4.9923 H         1 <0>         0.1270
     53 H17         1.9907   -1.7764    5.3557 H         1 <0>         0.1367
     54 H18         0.9186   -0.2916    9.2081 H         1 <0>         0.1514
     55 H19        -0.4861   -2.2752    9.5834 H         1 <0>         0.1527
     56 H20         0.7689   -6.5063    4.3335 H         1 <0>         0.1373
     57 H21        -1.2485   -8.6868    7.3943 H         1 <0>         0.1503
     58 H22        -1.6014   -6.6011    8.6498 H         1 <0>         0.1506
     59 H23        -2.0837    0.9569   -1.0819 H         1 <0>         0.1287
     60 H24        -1.7700   -0.5421   -1.9890 H         1 <0>         0.1317
     61 H25        -4.7388   -2.2026   -0.9141 H         1 <0>         0.1247
     62 H26        -2.4645   -1.6876   -2.9388 H         1 <0>         0.0740
     63 H27        -3.5078   -3.1505   -2.8439 H         1 <0>         0.0891
     64 H28        -4.2136   -1.5200   -4.7205 H         1 <0>         0.0735
     65 H29        -5.4889   -1.8365   -3.5222 H         1 <0>         0.0740
     66 H30        -3.6115    0.4664   -3.0171 H         1 <0>         0.0589
     67 H31        -4.8486    0.6673   -4.2730 H         1 <0>         0.0653
     68 H32        -6.4561    0.9768   -2.7382 H         1 <0>         0.0657
     69 H33        -6.0088   -0.5152   -1.8887 H         1 <0>         0.0679
     70 H34        -4.2269    1.8817   -1.5144 H         1 <0>         0.0644
     71 H35        -5.8143    1.8996   -0.7128 H         1 <0>         0.0711
     72 H36        -5.2865   -0.2705    0.4316 H         1 <0>         0.0901
     73 H37        -3.9241    0.8662    0.7308 H         1 <0>         0.0764
@<TRIPOS>BOND
     1    1    2 1
     2    1   37 1
     3    1   38 1
     4    1   39 1
     5    2    3 1
     6    2   40 1
     7    2   41 1
     8    3    8 1
     9    3    4 1
    10    3   28 1
    11    4    5 1
    12    4   42 1
    13    4   43 1
    14    5    6 1
    15    5   44 1
    16    5   45 1
    17    6    7 1
    18    6    9 1
    19    6   46 1
    20    7    8 1
    21    7   47 1
    22    7   48 1
    23    8   49 1
    24    8   50 1
    25    9   10 am
    26    9   51 1
    27   10   11 2
    28   10   12 1
    29   12   21 1
    30   12   13 1
    31   12   52 1
    32   13   18 ar
    33   13   14 ar
    34   14   15 ar
    35   14   53 1
    36   15   16 ar
    37   15   27 1
    38   16   17 ar
    39   16   54 1
    40   17   18 ar
    41   17   55 1
    42   18   19 1
    43   19   20 1
    44   20   25 ar
    45   20   21 ar
    46   21   22 ar
    47   22   23 ar
    48   22   56 1
    49   23   24 ar
    50   23   26 1
    51   24   25 ar
    52   24   57 1
    53   25   58 1
    54   28   29 1
    55   28   59 1
    56   28   60 1
    57   29   36 1
    58   29   30 2
    59   30   31 1
    60   30   61 1
    61   31   32 1
    62   31   62 1
    63   31   63 1
    64   32   33 1
    65   32   64 1
    66   32   65 1
    67   33   34 1
    68   33   66 1
    69   33   67 1
    70   34   35 1
    71   34   68 1
    72   34   69 1
    73   35   36 1
    74   35   70 1
    75   35   71 1
    76   36   72 1
    77   36   73 1
