@<TRIPOS>MOLECULE
ZINC04978046
   51    53     0     0     0
SMALL
USER_CHARGES

@<TRIPOS>ATOM
      1 C1         -0.2501    1.2754    0.3728 C.3       1 <0>        -0.1552
      2 C2         -0.1764   -0.2514    0.3068 C.3       1 <0>         0.0604
      3 O1          0.4880   -0.6447   -0.8957 O.3       1 <0>        -0.3488
      4 C3          0.6358   -1.9619   -1.1074 C.2       1 <0>         0.4624
      5 O2          0.2150   -2.7547   -0.2985 O.2       1 <0>        -0.4914
      6 C4          1.3266   -2.4519   -2.3539 C.3       1 <0>        -0.0928
      7 C5          0.5575   -1.9716   -3.5880 C.3       1 <0>        -0.1394
      8 C6          1.2182   -2.5383   -4.8465 C.3       1 <0>        -0.0038
      9 N1          1.1981   -4.0051   -4.7958 N.4       1 <0>        -0.3859
     10 C7          1.9937   -4.4750   -3.6554 C.3       1 <0>        -0.0109
     11 C8          1.3629   -3.9828   -2.3511 C.3       1 <0>        -0.1325
     12 C9          1.7626   -4.5444   -6.0402 C.3       1 <0>         0.0447
     13 C10         1.6306   -6.0456   -6.0425 C.ar      1 <0>        -0.1442
     14 C11         2.6390   -6.8286   -5.5112 C.ar      1 <0>        -0.1021
     15 C12         2.5209   -8.2060   -5.5113 C.ar      1 <0>        -0.0921
     16 C13         1.3946   -8.8039   -6.0431 C.ar      1 <0>        -0.0907
     17 C14         0.3814   -8.0207   -6.5768 C.ar      1 <0>         0.1033
     18 C15         0.5000   -6.6380   -6.5702 C.ar      1 <0>        -0.1181
     19 O3         -0.7274   -8.6062   -7.1004 O.3       1 <0>        -0.2561
     20 C16        -0.9287   -8.5069   -8.4406 C.ar      1 <0>         0.1086
     21 C17         0.0458   -7.9401   -9.2497 C.ar      1 <0>        -0.1972
     22 C18        -0.1614   -7.8403  -10.6117 C.ar      1 <0>        -0.0822
     23 C19        -1.3388   -8.3042  -11.1690 C.ar      1 <0>        -0.1424
     24 C20        -2.3116   -8.8690  -10.3650 C.ar      1 <0>        -0.0781
     25 C21        -2.1067   -8.9773   -9.0032 C.ar      1 <0>        -0.1382
     26 H1          0.7585    1.6886    0.3632 H         1 <0>         0.0694
     27 H2         -0.8044    1.6500   -0.4878 H         1 <0>         0.0683
     28 H3         -0.7569    1.5754    1.2900 H         1 <0>         0.0864
     29 H4          0.3779   -0.6259    1.1673 H         1 <0>         0.0731
     30 H5         -1.1850   -0.6645    0.3164 H         1 <0>         0.0721
     31 H6          2.3445   -2.0632   -2.3832 H         1 <0>         0.1284
     32 H7         -0.4745   -2.3178   -3.5313 H         1 <0>         0.0950
     33 H8          0.5750   -0.8824   -3.6267 H         1 <0>         0.1285
     34 H9          0.6732   -2.1981   -5.7270 H         1 <0>         0.1389
     35 H10         2.2500   -2.1912   -4.9023 H         1 <0>         0.1360
     36 H11         2.0213   -5.5647   -3.6566 H         1 <0>         0.1386
     37 H12         3.0090   -4.0867   -3.7366 H         1 <0>         0.1343
     38 H13         1.9561   -4.3313   -1.5056 H         1 <0>         0.1226
     39 H14         0.3476   -4.3709   -2.2687 H         1 <0>         0.0992
     40 H15         1.2237   -4.1309   -6.8927 H         1 <0>         0.1398
     41 H16         2.8157   -4.2721   -6.1094 H         1 <0>         0.1410
     42 H17         3.5206   -6.3632   -5.0957 H         1 <0>         0.1384
     43 H18         3.3099   -8.8152   -5.0957 H         1 <0>         0.1466
     44 H19         1.3031   -9.8800   -6.0436 H         1 <0>         0.1461
     45 H20        -0.2892   -6.0259   -6.9813 H         1 <0>         0.1388
     46 H21         0.9652   -7.5770   -8.8148 H         1 <0>         0.1248
     47 H22         0.5967   -7.3993  -11.2419 H         1 <0>         0.1289
     48 H23        -1.4990   -8.2249  -12.2341 H         1 <0>         0.1308
     49 H24        -3.2305   -9.2303  -10.8027 H         1 <0>         0.1371
     50 H25        -2.8648   -9.4229   -8.3762 H         1 <0>         0.1358
     51 H26         0.2462   -4.3241   -4.6947 H         1 <0>         0.4241
@<TRIPOS>BOND
     1    1    2 1
     2    1   26 1
     3    1   27 1
     4    1   28 1
     5    2    3 1
     6    2   29 1
     7    2   30 1
     8    3    4 1
     9    4    5 2
    10    4    6 1
    11    6   11 1
    12    6    7 1
    13    6   31 1
    14    7    8 1
    15    7   32 1
    16    7   33 1
    17    8    9 1
    18    8   34 1
    19    8   35 1
    20    9   10 1
    21    9   12 1
    22    9   51 1
    23   10   11 1
    24   10   36 1
    25   10   37 1
    26   11   38 1
    27   11   39 1
    28   12   13 1
    29   12   40 1
    30   12   41 1
    31   13   18 ar
    32   13   14 ar
    33   14   15 ar
    34   14   42 1
    35   15   16 ar
    36   15   43 1
    37   16   17 ar
    38   16   44 1
    39   17   18 ar
    40   17   19 1
    41   18   45 1
    42   19   20 1
    43   20   25 ar
    44   20   21 ar
    45   21   22 ar
    46   21   46 1
    47   22   23 ar
    48   22   47 1
    49   23   24 ar
    50   23   48 1
    51   24   25 ar
    52   24   49 1
    53   25   50 1
@<TRIPOS>MOLECULE
ZINC00823152
   48    51     0     0     0
SMALL
USER_CHARGES

@<TRIPOS>ATOM
      1 C1         -0.0778    1.2703   -0.1783 C.ar      1 <0>        -0.0858
      2 C2          1.0483    1.9086   -0.6671 C.ar      1 <0>        -0.1251
      3 C3          2.2539    1.2404   -0.7232 C.ar      1 <0>        -0.0536
      4 C4          2.3363   -0.0824   -0.2850 C.ar      1 <0>        -0.1422
      5 C5          1.1964   -0.7202    0.2075 C.ar      1 <0>        -0.0856
      6 C6         -0.0031   -0.0407    0.2577 C.ar      1 <0>        -0.1250
      7 C7          3.6246   -0.8047   -0.3426 C.2       1 <0>         0.5635
      8 O1          4.6155   -0.2468   -0.7724 O.2       1 <0>        -0.5049
      9 N1          3.7007   -2.0818    0.0813 N.am      1 <0>        -0.6679
     10 C8          4.8931   -2.7928   -0.0570 C.ar      1 <0>         0.2177
     11 C9          6.1054   -2.1463    0.0560 C.ar      1 <0>        -0.1551
     12 C10         7.3004   -2.8462   -0.0803 C.ar      1 <0>         0.0141
     13 C11         7.3066   -4.1851   -0.3283 C.ar      1 <0>        -0.6840
     14 C12         6.0924   -4.8817   -0.4506 C.ar      1 <0>         0.0495
     15 C13         4.8692   -4.1812   -0.3081 C.ar      1 <0>        -0.0808
     16 C14         3.6572   -4.8796   -0.4247 C.ar      1 <0>        -0.0979
     17 C15         3.6719   -6.2193   -0.6673 C.ar      1 <0>        -0.1144
     18 C16         4.8744   -6.9104   -0.8016 C.ar      1 <0>        -0.0802
     19 C17         6.0683   -6.2637   -0.7069 C.ar      1 <0>        -0.1357
     20 S1          8.8361   -5.0435   -0.4964 S.o2      1 <0>         2.6927
     21 O2          8.7781   -6.1539    0.3885 O.2       1 <0>        -0.9469
     22 O3          9.0676   -5.1917   -1.8905 O.2       1 <0>        -0.9468
     23 N2         10.0246   -4.0430    0.0770 N.pl3     1 <0>        -1.0023
     24 C18        10.8051   -3.1930   -0.8361 C.3       1 <0>         0.0792
     25 C19        10.7875   -1.7588   -0.2952 C.3       1 <0>         0.0429
     26 O4         11.2005   -1.7668    1.0734 O.3       1 <0>        -0.3717
     27 C20        10.3367   -2.5048    1.9411 C.3       1 <0>         0.0430
     28 C21        10.3273   -3.9731    1.5154 C.3       1 <0>         0.0844
     29 H1         -1.0182    1.7993   -0.1326 H         1 <0>         0.1317
     30 H2          0.9833    2.9320   -1.0059 H         1 <0>         0.1345
     31 H3          3.1320    1.7395   -1.1057 H         1 <0>         0.1391
     32 H4          1.2533   -1.7436    0.5478 H         1 <0>         0.1245
     33 H5         -0.8857   -0.5330    0.6385 H         1 <0>         0.1330
     34 H6          2.9265   -2.5066    0.4825 H         1 <0>         0.4148
     35 H7          6.1280   -1.0845    0.2521 H         1 <0>         0.1538
     36 H8          8.2383   -2.3188    0.0118 H         1 <0>         0.1357
     37 H9          2.7176   -4.3569   -0.3222 H         1 <0>         0.1269
     38 H10         2.7379   -6.7542   -0.7565 H         1 <0>         0.1336
     39 H11         4.8588   -7.9732   -0.9930 H         1 <0>         0.1360
     40 H12         6.9926   -6.8121   -0.8135 H         1 <0>         0.1317
     41 H13        11.8324   -3.5541   -0.8858 H         1 <0>         0.0903
     42 H14        10.3589   -3.2159   -1.8304 H         1 <0>         0.1055
     43 H15        11.4711   -1.1415   -0.8782 H         1 <0>         0.1132
     44 H16         9.7780   -1.3544   -0.3685 H         1 <0>         0.0567
     45 H17        10.6958   -2.4242    2.9671 H         1 <0>         0.1118
     46 H18         9.3255   -2.1031    1.8759 H         1 <0>         0.0564
     47 H19         9.5649   -4.5123    2.0776 H         1 <0>         0.1001
     48 H20        11.3057   -4.4140    1.7065 H         1 <0>         0.0896
@<TRIPOS>BOND
     1    1    6 ar
     2    1    2 ar
     3    1   29 1
     4    2    3 ar
     5    2   30 1
     6    3    4 ar
     7    3   31 1
     8    4    5 ar
     9    4    7 1
    10    5    6 ar
    11    5   32 1
    12    6   33 1
    13    7    8 2
    14    7    9 am
    15    9   10 1
    16    9   34 1
    17   10   15 ar
    18   10   11 ar
    19   11   12 ar
    20   11   35 1
    21   12   13 ar
    22   12   36 1
    23   13   14 ar
    24   13   20 1
    25   14   19 ar
    26   14   15 ar
    27   15   16 ar
    28   16   17 ar
    29   16   37 1
    30   17   18 ar
    31   17   38 1
    32   18   19 ar
    33   18   39 1
    34   19   40 1
    35   20   21 2
    36   20   22 2
    37   20   23 1
    38   23   28 1
    39   23   24 1
    40   24   25 1
    41   24   41 1
    42   24   42 1
    43   25   26 1
    44   25   43 1
    45   25   44 1
    46   26   27 1
    47   27   28 1
    48   27   45 1
    49   27   46 1
    50   28   47 1
    51   28   48 1
@<TRIPOS>MOLECULE
ZINC03146695
   51    54     0     0     0
SMALL
USER_CHARGES

@<TRIPOS>ATOM
      1 C1         -2.7053   -2.6583   -8.1143 C.3       1 <0>         0.0259
      2 O1         -1.4016   -3.1812   -8.3768 O.3       1 <0>        -0.3155
      3 C2         -0.4623   -3.0132   -7.4077 C.ar      1 <0>         0.1222
      4 C3         -0.7925   -2.3636   -6.2275 C.ar      1 <0>        -0.1924
      5 C4          0.1607   -2.1926   -5.2428 C.ar      1 <0>        -0.0842
      6 C5          1.4500   -2.6713   -5.4346 C.ar      1 <0>         0.1056
      7 C6          1.7798   -3.3215   -6.6164 C.ar      1 <0>        -0.1089
      8 C7          0.8238   -3.4966   -7.5977 C.ar      1 <0>        -0.1278
      9 N1          2.4166   -2.4980   -4.4376 N.pl3     1 <0>        -1.0542
     10 S1          3.3877   -3.7649   -3.9968 S.o2      1 <0>         2.6931
     11 O2          3.9720   -4.2638   -5.1922 O.2       1 <0>        -0.9493
     12 O3          4.1679   -3.3152   -2.8976 O.2       1 <0>        -0.9481
     13 C8          2.3363   -5.0376   -3.3809 C.ar      1 <0>        -0.6946
     14 C9          2.2659   -6.2348   -4.0260 C.ar      1 <0>         0.0420
     15 C10         1.4434   -7.2553   -3.5588 C.ar      1 <0>        -0.1684
     16 C11         0.6758   -7.0797   -2.4273 C.ar      1 <0>         0.2255
     17 C12         0.7287   -5.8493   -1.7383 C.ar      1 <0>        -0.0884
     18 C13         1.5743   -4.8199   -2.2206 C.ar      1 <0>         0.0550
     19 C14         1.6306   -3.5960   -1.5313 C.ar      1 <0>        -0.1366
     20 C15         0.8788   -3.4189   -0.4107 C.ar      1 <0>        -0.0810
     21 C16         0.0521   -4.4343    0.0662 C.ar      1 <0>        -0.1194
     22 C17        -0.0362   -5.6283   -0.5823 C.ar      1 <0>        -0.0955
     23 N2         -0.1463   -8.1090   -1.9676 N.am      1 <0>        -0.6651
     24 C18         0.1406   -9.3893   -2.2760 C.2       1 <0>         0.5620
     25 O4          1.1676   -9.6562   -2.8692 O.2       1 <0>        -0.4996
     26 C19        -0.7934  -10.4689   -1.8929 C.ar      1 <0>        -0.1426
     27 C20        -1.9764  -10.1653   -1.2168 C.ar      1 <0>        -0.0858
     28 C21        -2.8440  -11.1776   -0.8626 C.ar      1 <0>        -0.1252
     29 C22        -2.5439  -12.4914   -1.1760 C.ar      1 <0>        -0.0857
     30 C23        -1.3729  -12.7993   -1.8456 C.ar      1 <0>        -0.1249
     31 C24        -0.4993  -11.7959   -2.2107 C.ar      1 <0>        -0.0531
     32 H1         -3.1151   -3.1344   -7.2235 H         1 <0>         0.0555
     33 H2         -2.6395   -1.5822   -7.9535 H         1 <0>         0.0567
     34 H3         -3.3556   -2.8594   -8.9656 H         1 <0>         0.1016
     35 H4         -1.7953   -1.9911   -6.0787 H         1 <0>         0.1331
     36 H5         -0.0965   -1.6864   -4.3241 H         1 <0>         0.1314
     37 H6          2.7823   -3.6941   -6.7663 H         1 <0>         0.1621
     38 H7          1.0788   -4.0066   -8.5149 H         1 <0>         0.1397
     39 H8          2.5178   -1.6359   -4.0047 H         1 <0>         0.4257
     40 H9          2.8578   -6.3947   -4.9150 H         1 <0>         0.1509
     41 H10         1.4057   -8.1955   -4.0889 H         1 <0>         0.1595
     42 H11         2.2675   -2.8005   -1.8890 H         1 <0>         0.1332
     43 H12         0.9239   -2.4777    0.1170 H         1 <0>         0.1333
     44 H13        -0.5339   -4.2686    0.9581 H         1 <0>         0.1312
     45 H14        -0.6817   -6.4061   -0.2019 H         1 <0>         0.1242
     46 H15        -0.9243   -7.9032   -1.4261 H         1 <0>         0.4141
     47 H16        -2.2116   -9.1402   -0.9712 H         1 <0>         0.1240
     48 H17        -3.7594  -10.9442   -0.3392 H         1 <0>         0.1329
     49 H18        -3.2266  -13.2802   -0.8964 H         1 <0>         0.1317
     50 H19        -1.1444  -13.8269   -2.0870 H         1 <0>         0.1347
     51 H20         0.4123  -12.0371   -2.7374 H         1 <0>         0.1397
@<TRIPOS>BOND
     1    1    2 1
     2    1   32 1
     3    1   33 1
     4    1   34 1
     5    2    3 1
     6    3    8 ar
     7    3    4 ar
     8    4    5 ar
     9    4   35 1
    10    5    6 ar
    11    5   36 1
    12    6    7 ar
    13    6    9 1
    14    7    8 ar
    15    7   37 1
    16    8   38 1
    17    9   10 1
    18    9   39 1
    19   10   11 2
    20   10   12 2
    21   10   13 1
    22   13   18 ar
    23   13   14 ar
    24   14   15 ar
    25   14   40 1
    26   15   16 ar
    27   15   41 1
    28   16   17 ar
    29   16   23 1
    30   17   22 ar
    31   17   18 ar
    32   18   19 ar
    33   19   20 ar
    34   19   42 1
    35   20   21 ar
    36   20   43 1
    37   21   22 ar
    38   21   44 1
    39   22   45 1
    40   23   24 am
    41   23   46 1
    42   24   25 2
    43   24   26 1
    44   26   31 ar
    45   26   27 ar
    46   27   28 ar
    47   27   47 1
    48   28   29 ar
    49   28   48 1
    50   29   30 ar
    51   29   49 1
    52   30   31 ar
    53   30   50 1
    54   31   51 1
