@<TRIPOS>MOLECULE
ZINC04654676
   36    39     0     0     0
SMALL
USER_CHARGES
BLAHtetrol
@<TRIPOS>ATOM
      1 C1          1.2246    3.5002    0.0270 C.ar      1 <0>        -0.0998
      2 C2          0.0447    4.1821    0.0493 C.ar      1 <0>        -0.0613
      3 C3         -1.1759    3.5065    0.0483 C.ar      1 <0>         0.1186
      4 C4         -1.2203    2.1251    0.0309 C.ar      1 <0>         0.1274
      5 C5         -0.0169    1.3972    0.0097 C.ar      1 <0>        -0.1108
      6 C6          1.2187    2.0987    0.0017 C.ar      1 <0>         0.0140
      7 C7          2.4039    1.3468   -0.0341 C.ar      1 <0>        -0.0711
      8 C8          2.3195   -0.0345   -0.0538 C.ar      1 <0>         0.1487
      9 N1          1.1405   -0.6650   -0.0091 N.ar      1 <0>        -0.3368
     10 C9          0.0021   -0.0041    0.0020 C.ar      1 <0>         0.2068
     11 C10         1.0840   -2.1294    0.0674 C.3       1 <0>         0.0537
     12 C11         2.1477   -2.7672   -0.8212 C.3       1 <0>        -0.1015
     13 C12         3.4952   -2.1705   -0.5095 C.ar      1 <0>        -0.0607
     14 C13         3.5722   -0.8256   -0.1479 C.ar      1 <0>        -0.0856
     15 C14         4.8100   -0.2378    0.0918 C.ar      1 <0>        -0.0864
     16 C15         5.9602   -1.0022    0.0024 C.ar      1 <0>         0.0922
     17 C16         5.8760   -2.3514   -0.3344 C.ar      1 <0>         0.1276
     18 C17         4.6417   -2.9305   -0.5921 C.ar      1 <0>        -0.1177
     19 O1          7.0064   -3.1027   -0.4112 O.3       1 <0>        -0.4798
     20 O2          7.1730   -0.4363    0.2439 O.3       1 <0>        -0.4782
     21 O3         -2.4146    1.4768    0.0310 O.3       1 <0>        -0.4757
     22 O4         -2.3364    4.2158    0.0677 O.3       1 <0>        -0.4795
     23 H1          2.1611    4.0380    0.0292 H         1 <0>         0.1635
     24 H2          0.0549    5.2619    0.0685 H         1 <0>         0.1632
     25 H3          3.3655    1.8382   -0.0461 H         1 <0>         0.1844
     26 H4         -0.9302   -0.5493    0.0056 H         1 <0>         0.2139
     27 H5          1.2468   -2.4402    1.0993 H         1 <0>         0.1299
     28 H6          0.0990   -2.4666   -0.2556 H         1 <0>         0.1382
     29 H7          1.9034   -2.5841   -1.8676 H         1 <0>         0.1066
     30 H8          2.1759   -3.8414   -0.6389 H         1 <0>         0.1292
     31 H9          4.8730    0.8098    0.3466 H         1 <0>         0.1492
     32 H10         4.5796   -3.9758   -0.8568 H         1 <0>         0.1524
     33 H11         7.2531   -3.5284    0.4213 H         1 <0>         0.4027
     34 H12         7.4512   -0.4819    1.1689 H         1 <0>         0.3992
     35 H13        -2.7528    1.2756    0.9143 H         1 <0>         0.4110
     36 H14        -2.6786    4.4343   -0.8100 H         1 <0>         0.4125
@<TRIPOS>BOND
     1    1    6 ar
     2    1    2 ar
     3    1   23 1
     4    2    3 ar
     5    2   24 1
     6    3    4 ar
     7    3   22 1
     8    4    5 ar
     9    4   21 1
    10    5   10 ar
    11    5    6 ar
    12    6    7 ar
    13    7    8 ar
    14    7   25 1
    15    8   14 1
    16    8    9 ar
    17    9   10 ar
    18    9   11 1
    19   10   26 1
    20   11   12 1
    21   11   27 1
    22   11   28 1
    23   12   13 1
    24   12   29 1
    25   12   30 1
    26   13   18 ar
    27   13   14 ar
    28   14   15 ar
    29   15   16 ar
    30   15   31 1
    31   16   17 ar
    32   16   20 1
    33   17   18 ar
    34   17   19 1
    35   18   32 1
    36   19   33 1
    37   20   34 1
    38   21   35 1
    39   22   36 1
