@<TRIPOS>MOLECULE
ZINC16052718
   27    29     0     0     0
SMALL
USER_CHARGES
2-(4-pyridyl)-1,5,6,7-tetrahydropyrrolo[3,2-c]pyridin-4-one
@<TRIPOS>ATOM
      1 C1         -1.2211    1.7394    0.0173 C.ar      1 <0>        -0.1847
      2 C2         -0.0126    1.0758    0.0080 C.ar      1 <0>         0.1111
      3 N1          1.1266    1.7422    0.0007 N.ar      1 <0>        -0.4905
      4 C3          1.1665    3.0614    0.0069 C.ar      1 <0>         0.1119
      5 C4          0.0054    3.8049    0.0215 C.ar      1 <0>        -0.1618
      6 C5         -1.2265    3.1395    0.0297 C.ar      1 <0>         0.0379
      7 C6         -2.4974    3.8941    0.0449 C.2       1 <0>         0.0152
      8 C7         -2.6168    5.2527    0.0519 C.2       1 <0>        -0.0780
      9 C8         -3.9881    5.5373    0.0657 C.2       1 <0>        -0.2330
     10 C9         -4.6662    4.3225    0.0683 C.2       1 <0>         0.0775
     11 N2         -3.7609    3.3429    0.0484 N.pl3     1 <0>        -0.5119
     12 H1         -3.9600    2.3935    0.0405 H         1 <0>         0.4194
     13 C10        -6.1725    4.2736    0.0855 C.3       1 <0>        -0.0706
     14 C11        -6.6980    5.5192    0.7998 C.3       1 <0>         0.1242
     15 N3         -6.0502    6.7447    0.3531 N.am      1 <0>        -0.7362
     16 C12        -4.7270    6.8120    0.0741 C.2       1 <0>         0.5975
     17 O1         -4.1760    7.8712   -0.1574 O.2       1 <0>        -0.5324
     18 H2         -2.1495    1.1876    0.0191 H         1 <0>         0.1271
     19 H3          0.0021   -0.0041    0.0020 H         1 <0>         0.1582
     20 H4          2.1216    3.5654    0.0002 H         1 <0>         0.1618
     21 H5          0.0456    4.8841    0.0262 H         1 <0>         0.1422
     22 H6         -1.8098    5.9704    0.0479 H         1 <0>         0.1542
     23 H7         -6.5491    4.2527   -0.9371 H         1 <0>         0.0964
     24 H8         -6.5030    3.3798    0.6148 H         1 <0>         0.0985
     25 H9         -7.7696    5.6022    0.6183 H         1 <0>         0.0948
     26 H10        -6.5315    5.4063    1.8710 H         1 <0>         0.0675
     27 H11        -6.5885    7.5452    0.2514 H         1 <0>         0.4040
@<TRIPOS>BOND
     1    1    6 ar
     2    1    2 ar
     3    1   18 1
     4    2    3 ar
     5    2   19 1
     6    3    4 ar
     7    4    5 ar
     8    4   20 1
     9    5    6 ar
    10    5   21 1
    11    6    7 1
    12    7   11 1
    13    7    8 2
    14    8    9 1
    15    8   22 1
    16    9   16 1
    17    9   10 2
    18   10   11 1
    19   10   13 1
    20   11   12 1
    21   13   14 1
    22   13   23 1
    23   13   24 1
    24   14   15 1
    25   14   25 1
    26   14   26 1
    27   15   16 am
    28   15   27 1
    29   16   17 2
@<TRIPOS>MOLECULE
ZINC28645388
   27    29     0     0     0
SMALL
USER_CHARGES
2-(2-chloro-4-pyridyl)-1,5,6,7-tetrahydropyrrolo[3,2-c]pyridin-4-one
@<TRIPOS>ATOM
      1 C1          2.3495   -0.0455   -0.0201 C.ar      1 <0>        -0.1620
      2 C2          1.1302   -0.6889   -0.0124 C.ar      1 <0>         0.1346
      3 N1          0.0021   -0.0041    0.0020 N.ar      1 <0>        -0.4855
      4 C3         -0.0158    1.3166    0.0093 C.ar      1 <0>         0.1881
      5 C4          1.1591    2.0409    0.0020 C.ar      1 <0>        -0.1708
      6 C5          2.3789    1.3544   -0.0129 C.ar      1 <0>         0.0578
      7 C6          3.6627    2.0871   -0.0212 C.2       1 <0>         0.0005
      8 C7          4.9030    1.5203   -0.0365 C.2       1 <0>        -0.0745
      9 C8          5.8276    2.5724   -0.0403 C.2       1 <0>        -0.2382
     10 C9          5.1060    3.7618   -0.0252 C.2       1 <0>         0.0939
     11 N2          3.8071    3.4581   -0.0208 N.pl3     1 <0>        -0.5242
     12 H1          2.9173    4.1049   -0.0172 H         1 <0>         0.4470
     13 C10         5.8073    5.0960   -0.0217 C.3       1 <0>        -0.0721
     14 C11         7.1629    4.9385    0.6679 C.3       1 <0>         0.1286
     15 N3          7.9006    3.7698    0.2085 N.am      1 <0>        -0.7494
     16 C12         7.3008    2.5857   -0.0589 C.2       1 <0>         0.5960
     17 O1          7.9456    1.5835   -0.3018 O.2       1 <0>        -0.5370
     18 Cl1        -1.5373    2.1526    0.0210 Cl        1 <0>        -0.0269
     19 H2          3.2684   -0.6129   -0.0312 H         1 <0>         0.1502
     20 H3          1.0978   -1.7684   -0.0179 H         1 <0>         0.1724
     21 H4          1.1377    3.1207    0.0076 H         1 <0>         0.1375
     22 H5          5.1287    0.4642   -0.0440 H         1 <0>         0.1524
     23 H6          5.9534    5.4361   -1.0575 H         1 <0>         0.0965
     24 H7          5.1954    5.8305    0.5225 H         1 <0>         0.0988
     25 H8          7.7818    5.8254    0.4669 H         1 <0>         0.0943
     26 H9          7.0126    4.8345    1.7526 H         1 <0>         0.0660
     27 H10         8.9898    3.8280    0.0659 H         1 <0>         0.4261
@<TRIPOS>BOND
     1    1    6 ar
     2    1    2 ar
     3    1   19 1
     4    2    3 ar
     5    2   20 1
     6    3    4 ar
     7    4    5 ar
     8    4   18 1
     9    5    6 ar
    10    5   21 1
    11    6    7 1
    12    7   11 1
    13    7    8 2
    14    8    9 1
    15    8   22 1
    16    9   16 1
    17    9   10 2
    18   10   11 1
    19   10   13 1
    20   11   12 1
    21   13   14 1
    22   13   23 1
    23   13   24 1
    24   14   15 1
    25   14   25 1
    26   14   26 1
    27   15   16 am
    28   15   27 1
    29   16   17 2
@<TRIPOS>MOLECULE
ZINC00084214
   29    31     0     0     0
SMALL
USER_CHARGES
trimethylBLAHamine
@<TRIPOS>ATOM
      1 C1          0.9741   -4.1031   -0.0305 C.3       1 <0>        -0.1151
      2 C2          0.6598   -2.6293   -0.0192 C.ar      1 <0>        -0.1541
      3 C3          1.6852   -1.7093   -0.0236 C.ar      1 <0>         0.0373
      4 C4          1.3698   -0.3322   -0.0128 C.ar      1 <0>        -0.1496
      5 C5          2.3066    0.8070   -0.0156 C.ar      1 <0>         0.2292
      6 C6          1.7226    2.0793   -0.0032 C.ar      1 <0>        -0.2982
      7 C7          2.5076    3.2244   -0.0046 C.ar      1 <0>         0.5003
      8 N1          3.8324    3.0820   -0.0180 N.ar      1 <0>        -0.5627
      9 C8          4.3671    1.8748   -0.0296 C.ar      1 <0>         0.3472
     10 N2          3.6580    0.7741   -0.0291 N.ar      1 <0>        -0.5360
     11 N3          1.9279    4.4837    0.0073 N.pl3     1 <0>        -0.8249
     12 S1         -0.0220    1.7721    0.0118 S.3       1 <0>         0.1278
     13 C9          0.0021   -0.0041    0.0020 C.ar      1 <0>         0.1308
     14 N4         -0.9453   -0.9175    0.0058 N.ar      1 <0>        -0.4551
     15 C10        -0.6586   -2.2056   -0.0039 C.ar      1 <0>         0.1821
     16 C11        -1.7720   -3.2211    0.0019 C.3       1 <0>        -0.1107
     17 C12         3.1216   -2.1649   -0.0403 C.3       1 <0>        -0.1291
     18 H1          1.0595   -4.4643    0.9943 H         1 <0>         0.0779
     19 H2          0.1746   -4.6412   -0.5399 H         1 <0>         0.0775
     20 H3          1.9154   -4.2699   -0.5542 H         1 <0>         0.0758
     21 H4          5.4438    1.7911   -0.0403 H         1 <0>         0.2036
     22 H5          0.9621    4.5729    0.0166 H         1 <0>         0.4141
     23 H6          2.4882    5.2755    0.0062 H         1 <0>         0.4157
     24 H7         -2.0302   -3.4714    1.0308 H         1 <0>         0.0884
     25 H8         -2.6452   -2.8057   -0.5012 H         1 <0>         0.0837
     26 H9         -1.4458   -4.1208   -0.5200 H         1 <0>         0.0874
     27 H10         3.4780   -2.2805    0.9833 H         1 <0>         0.0838
     28 H11         3.1937   -3.1202   -0.5602 H         1 <0>         0.0766
     29 H12         3.7320   -1.4236   -0.5559 H         1 <0>         0.0962
@<TRIPOS>BOND
     1    1    2 1
     2    1   18 1
     3    1   19 1
     4    1   20 1
     5    2   15 ar
     6    2    3 ar
     7    3    4 ar
     8    3   17 1
     9    4   13 ar
    10    4    5 1
    11    5   10 ar
    12    5    6 ar
    13    6    7 ar
    14    6   12 1
    15    7    8 ar
    16    7   11 1
    17    8    9 ar
    18    9   10 ar
    19    9   21 1
    20   11   22 1
    21   11   23 1
    22   12   13 1
    23   13   14 ar
    24   14   15 ar
    25   15   16 1
    26   16   24 1
    27   16   25 1
    28   16   26 1
    29   17   27 1
    30   17   28 1
    31   17   29 1
@<TRIPOS>MOLECULE
ZINC00069901
   26    28     0     0     0
SMALL
USER_CHARGES
dimethylBLAHamine
@<TRIPOS>ATOM
      1 C1          3.1215   -2.1650   -0.0403 C.3       1 <0>        -0.1277
      2 C2          1.6851   -1.7093   -0.0237 C.ar      1 <0>         0.0409
      3 C3          0.6597   -2.6293   -0.0180 C.ar      1 <0>        -0.1901
      4 C4         -0.6586   -2.2055   -0.0027 C.ar      1 <0>         0.1834
      5 N1         -0.9453   -0.9175    0.0065 N.ar      1 <0>        -0.4589
      6 C5          0.0021   -0.0041    0.0020 C.ar      1 <0>         0.1373
      7 C6          1.3698   -0.3322   -0.0128 C.ar      1 <0>        -0.1549
      8 C7          2.3066    0.8070   -0.0156 C.ar      1 <0>         0.2295
      9 C8          1.7226    2.0793   -0.0032 C.ar      1 <0>        -0.2990
     10 S1         -0.0220    1.7721    0.0118 S.3       1 <0>         0.1297
     11 C9          2.5075    3.2244   -0.0050 C.ar      1 <0>         0.5006
     12 N2          3.8324    3.0821   -0.0188 N.ar      1 <0>        -0.5626
     13 C10         4.3671    1.8749   -0.0303 C.ar      1 <0>         0.3478
     14 N3          3.6580    0.7741   -0.0291 N.ar      1 <0>        -0.5364
     15 N4          1.9278    4.4837    0.0069 N.pl3     1 <0>        -0.8247
     16 C11        -1.7720   -3.2211    0.0029 C.3       1 <0>        -0.1078
     17 H1          3.4575   -2.2698   -1.0719 H         1 <0>         0.0840
     18 H2          3.7421   -1.4291    0.4710 H         1 <0>         0.0971
     19 H3          3.2038   -3.1257    0.4679 H         1 <0>         0.0736
     20 H4          0.8850   -3.6855   -0.0259 H         1 <0>         0.1481
     21 H5          5.4438    1.7912   -0.0417 H         1 <0>         0.2038
     22 H6          0.9620    4.5729    0.0165 H         1 <0>         0.4141
     23 H7          2.4881    5.2755    0.0055 H         1 <0>         0.4158
     24 H8         -2.0503   -3.4608   -1.0234 H         1 <0>         0.0882
     25 H9         -1.4358   -4.1261    0.5089 H         1 <0>         0.0843
     26 H10        -2.6352   -2.8110    0.5271 H         1 <0>         0.0843
@<TRIPOS>BOND
     1    1    2 1
     2    1   17 1
     3    1   18 1
     4    1   19 1
     5    2    7 ar
     6    2    3 ar
     7    3    4 ar
     8    3   20 1
     9    4    5 ar
    10    4   16 1
    11    5    6 ar
    12    6   10 1
    13    6    7 ar
    14    7    8 1
    15    8   14 ar
    16    8    9 ar
    17    9   10 1
    18    9   11 ar
    19   11   12 ar
    20   11   15 1
    21   12   13 ar
    22   13   14 ar
    23   13   21 1
    24   15   22 1
    25   15   23 1
    26   16   24 1
    27   16   25 1
    28   16   26 1
