@<TRIPOS>MOLECULE
ZINC06119090
   28    29     0     0     0
SMALL
USER_CHARGES

@<TRIPOS>ATOM
      1 C1         -0.0164    1.3560    0.0095 C.2       1 <0>        -0.2898
      2 C2          1.1961    2.0521    0.0017 C.2       1 <0>         0.2518
      3 N1          2.3335    1.3872   -0.0128 N.2       1 <0>        -0.5454
      4 C3          2.3453    0.0521   -0.0201 C.2       1 <0>         0.6283
      5 O1          3.4117   -0.5394   -0.0334 O.2       1 <0>        -0.5143
      6 N2          1.1970   -0.6505   -0.0124 N.am      1 <0>        -0.5122
      7 C4          0.0021   -0.0041    0.0020 C.2       1 <0>         0.1909
      8 C5          1.2359   -2.1150   -0.0207 C.3       1 <0>         0.2930
      9 H1          0.2304   -2.5212    0.0887 H         1 <0>         0.1228
     10 C6          1.8844   -2.6283   -1.3254 C.3       1 <0>         0.0812
     11 H2          2.5391   -1.8681   -1.7514 H         1 <0>         0.0934
     12 C7          2.7038   -3.8595   -0.8782 C.3       1 <0>         0.0521
     13 H3          3.7636   -3.7079   -1.0831 H         1 <0>         0.0885
     14 C8          2.4535   -3.9444    0.6438 C.3       1 <0>         0.0533
     15 H4          1.6355   -4.6327    0.8561 H         1 <0>         0.0955
     16 O2          2.0922   -2.6011    1.0359 O.3       1 <0>        -0.3347
     17 C9          3.7250   -4.3902    1.3687 C.3       1 <0>         0.0812
     18 O3          3.4420   -4.5746    2.7572 O.3       1 <0>        -0.5651
     19 O4          2.2324   -5.0393   -1.5324 O.3       1 <0>        -0.5433
     20 O5          0.8798   -3.0076   -2.2683 O.3       1 <0>        -0.5422
     21 H5         -0.9546    1.8908    0.0258 H         1 <0>         0.1641
     22 H6          1.2003    3.1321    0.0071 H         1 <0>         0.1783
     23 H7         -0.9219   -0.5633    0.0082 H         1 <0>         0.1771
     24 H8          4.0763   -5.3296    0.9416 H         1 <0>         0.0645
     25 H9          4.4955   -3.6279    1.2530 H         1 <0>         0.0640
     26 H10         4.2046   -4.8581    3.2798 H         1 <0>         0.3855
     27 H11         2.7119   -5.8427   -1.2882 H         1 <0>         0.3870
     28 H12         1.2316   -3.3378   -3.1063 H         1 <0>         0.3944
@<TRIPOS>BOND
     1    1    7 2
     2    1    2 1
     3    1   21 1
     4    2    3 2
     5    2   22 1
     6    3    4 1
     7    4    5 2
     8    4    6 am
     9    6    7 1
    10    6    8 1
    11    7   23 1
    12    8    9 1
    13    8   16 1
    14    8   10 1
    15   10   11 1
    16   10   12 1
    17   10   20 1
    18   12   13 1
    19   12   14 1
    20   12   19 1
    21   14   15 1
    22   14   16 1
    23   14   17 1
    24   17   18 1
    25   17   24 1
    26   17   25 1
    27   18   26 1
    28   19   27 1
    29   20   28 1
@<TRIPOS>MOLECULE
ZINC03814314
   30    32     0     0     0
SMALL
USER_CHARGES

@<TRIPOS>ATOM
      1 C1         -0.0159    1.3180    0.0093 C.ar      1 <0>         0.2239
      2 C2          1.2004    2.0027    0.0014 C.ar      1 <0>        -0.0528
      3 C3          2.3904    1.2471   -0.0141 C.ar      1 <0>         0.2838
      4 N1          2.3119   -0.0765   -0.0200 N.ar      1 <0>        -0.5042
      5 C4          1.1395   -0.6756   -0.0117 C.ar      1 <0>         0.3142
      6 N2          0.0021   -0.0041    0.0020 N.ar      1 <0>        -0.5193
      7 N3          3.4159    2.1589   -0.0190 N.pl3     1 <0>        -0.4758
      8 C5          2.8581    3.4019   -0.0070 C.2       1 <0>         0.2907
      9 N4          1.5600    3.3094    0.0049 N.2       1 <0>        -0.4673
     10 C6          4.8483    1.8519   -0.0336 C.3       1 <0>         0.3119
     11 H1          5.0501    0.9580    0.5567 H         1 <0>         0.1239
     12 C7          5.3426    1.6611   -1.4846 C.3       1 <0>         0.0790
     13 H2          4.6912    2.1874   -2.1823 H         1 <0>         0.0858
     14 C8          6.7552    2.2871   -1.4854 C.3       1 <0>         0.0477
     15 H3          6.8022    3.1229   -2.1835 H         1 <0>         0.0882
     16 C9          6.9472    2.7820   -0.0347 C.3       1 <0>         0.0504
     17 H4          7.4727    2.0316    0.5559 H         1 <0>         0.1009
     18 O1          5.6075    2.9710    0.4733 O.3       1 <0>        -0.3467
     19 C10         7.7169    4.1042   -0.0206 C.3       1 <0>         0.0820
     20 O2          7.9851    4.4849    1.3305 O.3       1 <0>        -0.5636
     21 O3          7.7383    1.3041   -1.8162 O.3       1 <0>        -0.5386
     22 O4          5.4074    0.2718   -1.8129 O.3       1 <0>        -0.5266
     23 H5         -0.9518    1.8566    0.0256 H         1 <0>         0.1803
     24 H6          1.1065   -1.7550   -0.0172 H         1 <0>         0.2074
     25 H7          3.4124    4.3288   -0.0073 H         1 <0>         0.2280
     26 H8          8.6578    3.9827   -0.5574 H         1 <0>         0.0678
     27 H9          7.1199    4.8774   -0.5042 H         1 <0>         0.0615
     28 H10         8.4717    5.3162    1.4157 H         1 <0>         0.3874
     29 H11         8.6438    1.6431   -1.8313 H         1 <0>         0.3882
     30 H12         5.7121    0.0942   -2.7133 H         1 <0>         0.3919
@<TRIPOS>BOND
     1    1    6 ar
     2    1    2 ar
     3    1   23 1
     4    2    9 1
     5    2    3 ar
     6    3    4 ar
     7    3    7 1
     8    4    5 ar
     9    5    6 ar
    10    5   24 1
    11    7    8 1
    12    7   10 1
    13    8    9 2
    14    8   25 1
    15   10   11 1
    16   10   18 1
    17   10   12 1
    18   12   13 1
    19   12   14 1
    20   12   22 1
    21   14   15 1
    22   14   16 1
    23   14   21 1
    24   16   17 1
    25   16   18 1
    26   16   19 1
    27   19   20 1
    28   19   26 1
    29   19   27 1
    30   20   28 1
    31   21   29 1
    32   22   30 1
